REMARK  Name = 
REMARK  9 active torsions:
REMARK  status: ('A' for Active; 'I' for Inactive)
REMARK    1  A    between atoms: C_2  and  C_3
REMARK    2  A    between atoms: C_4  and  C_5
REMARK    3  A    between atoms: C_8  and  C_9
REMARK    4  A    between atoms: C_9  and  N_10
REMARK    5  A    between atoms: N_10  and  C_11
REMARK    6  A    between atoms: C_11  and  C_12
REMARK    7  A    between atoms: C_12  and  C_13
REMARK    8  A    between atoms: C_14  and  C_22
REMARK    9  A    between atoms: N_25  and  O_26
REMARK                            x       y       z     vdW  Elec       q    Type
REMARK                         _______ _______ _______ _____ _____    ______ ____
ROOT
ATOM      1  N   UNL     1      -0.307   0.772  -0.034  0.00  0.00    +0.000 N 
ATOM      2  H   UNL     1      -0.161   1.246  -0.926  0.00  0.00    +0.000 HD
ATOM      3  H   UNL     1       0.176   1.251   0.726  0.00  0.00    +0.000 HD
ENDROOT
BRANCH   1   4
ATOM      4  C   UNL     1       0.241  -0.587  -0.127  0.00  0.00    +0.000 C 
BRANCH   4   8
ATOM      5  C   UNL     1       4.556  -0.310  -0.078  0.00  0.00    +0.000 A 
ATOM      6  C   UNL     1       3.830  -0.398   1.127  0.00  0.00    +0.000 A 
ATOM      7  C   UNL     1       2.436  -0.493   1.108  0.00  0.00    +0.000 A 
ATOM      8  C   UNL     1       1.743  -0.523  -0.111  0.00  0.00    +0.000 A 
ATOM      9  C   UNL     1       2.461  -0.436  -1.312  0.00  0.00    +0.000 A 
ATOM     10  C   UNL     1       3.856  -0.342  -1.295  0.00  0.00    +0.000 A 
BRANCH   5  12
ATOM     11  C   UNL     1       6.772   0.239   0.911  0.00  0.00    +0.000 C 
ATOM     12  C   UNL     1       6.037  -0.222  -0.110  0.00  0.00    +0.000 C 
BRANCH  11  14
ATOM     13  O   UNL     1       8.822   1.093   1.697  0.00  0.00    +0.000 OA
ATOM     14  C   UNL     1       8.245   0.342   0.866  0.00  0.00    +0.000 C 
ATOM     15  N   UNL     1       9.034  -0.409  -0.066  0.00  0.00    +0.000 N 
ATOM     16  H   UNL     1       8.605  -1.079  -0.644  0.00  0.00    +0.000 HD
BRANCH  15  17
ATOM     17  O   UNL     1      10.370  -0.199  -0.153  0.00  0.00    +0.000 OA
ATOM     18  H   UNL     1      10.631   0.488   0.480  0.00  0.00    +0.000 HD
ENDBRANCH  15  17
ENDBRANCH  11  14
ENDBRANCH   5  12
ENDBRANCH   4   8
ENDBRANCH   1   4
BRANCH   1  19
ATOM     19  C   UNL     1      -1.745   0.776   0.274  0.00  0.00    +0.000 C 
BRANCH  19  20
ATOM     20  C   UNL     1      -2.604   0.334  -0.923  0.00  0.00    +0.000 C 
BRANCH  20  21
ATOM     21  C   UNL     1      -4.064   0.459  -0.593  0.00  0.00    +0.000 A 
ATOM     22  C   UNL     1      -4.898   1.553  -0.831  0.00  0.00    +0.000 A 
ATOM     23  N   UNL     1      -6.137   1.327  -0.333  0.00  0.00    +0.000 N 
ATOM     24  C   UNL     1      -6.088   0.110   0.235  0.00  0.00    +0.000 A 
ATOM     25  C   UNL     1      -4.840  -0.448   0.103  0.00  0.00    +0.000 A 
ATOM     26  C   UNL     1      -4.536  -1.701   0.635  0.00  0.00    +0.000 A 
ATOM     27  C   UNL     1      -5.558  -2.392   1.312  0.00  0.00    +0.000 A 
ATOM     28  C   UNL     1      -6.843  -1.821   1.444  0.00  0.00    +0.000 A 
ATOM     29  C   UNL     1      -7.118  -0.552   0.902  0.00  0.00    +0.000 A 
ATOM     30  C   UNL     1      -4.508   2.810  -1.541  0.00  0.00    +0.000 C 
ATOM     31  H   UNL     1      -6.913   1.931  -0.377  0.00  0.00    +0.000 HD
ENDBRANCH  20  21
ENDBRANCH  19  20
ENDBRANCH   1  19
TORSDOF 8
