          AutoDock 4.2 Release 4.2.6   
         (C) 1989-2012 The Scripps Research Institute
        AutoDock comes with ABSOLUTELY NO WARRANTY.
        AutoDock is free software, and you are welcome
        to redistribute it under certain conditions;
        for details type 'autodock4 -C'

                     main.cc  $Revision: 1.213 $

                   Compiled on Feb 20 2022 at 09:48:33


This file was created at:			10:03 16" a.m., 11/08/2024
                   on host:		"ThinkStation-P620"
Current Working Directory = "/home/antonio/Documenti/buccheri/IDROSSAMICO HDAC/HDAC 2/P/Ligand_1"

      ________________________________________________________________

                   SETTING UP DEFAULT PARAMETER LIBRARY
      ________________________________________________________________


Random number generator was seeded with values 328163, 1731056596.
Docking parameter file (DPF) used for this docking:		ligand_dock.biased.dpf
DPF> autodock_parameter_version 4.2       # used by autodock to validate parameter set

	Autodock parameter version 4.2.
DPF> outlev 1                             # diagnostic output level

Output Level = 1  ADT-COMPATIBLE OUTPUT DURING DOCKING.
DPF> intelec                              # calculate internal electrostatics

Electrostatic energies will be calculated for all non-bonds between moving atoms.
DPF> seed pid time                        # seeds for random generator

Random number generator was seeded with values 328163, 1731056596.
DPF> ligand_types A C OA HD N             # atoms types in ligand

DPF> fld receptor.maps.fld                # grid_data_file

Opening Grid Map Dimensions file:		receptor.maps.fld
Grid Point Spacing =				0.375 Angstroms

Even Number of User-specified Grid Points =	70 x-points
						70 y-points
						70 z-points

Coordinates of Central Grid Point of Maps =	(24.757, -16.735, 0.794)
Macromolecule file used to create Grid Maps =	receptor.pdbqt
Grid Parameter file used to create Grid Maps =	receptor.gpf
Minimum coordinates in grid = (11.632, -29.860, -12.331)
Maximum coordinates in grid = (37.882, -3.610, 13.919)

DPF> map receptor.A.map                   # atom-specific affinity map

DPF> map receptor.C.map                   # atom-specific affinity map

DPF> map receptor.OA.biased.map

DPF> map receptor.HD.biased.map

DPF> map receptor.N.map                   # atom-specific affinity map

DPF> elecmap receptor.e.map               # electrostatics map

DPF> desolvmap receptor.d.map             # desolvation map

DPF> move ligand.pdbqt                    # small molecule

1,4-interactions will be _ignored_ in the non-bonded internal energy calculation.

Ligand PDBQT file = "ligand.pdbqt"

INPUT LIGAND PDBQT FILE:
________________________

INPUT-LIGAND-PDBQT: REMARK  Name = 
INPUT-LIGAND-PDBQT: REMARK  9 active torsions:
INPUT-LIGAND-PDBQT: REMARK  status: ('A' for Active; 'I' for Inactive)
INPUT-LIGAND-PDBQT: REMARK    1  A    between atoms: C_2  and  C_3
INPUT-LIGAND-PDBQT: REMARK    2  A    between atoms: C_4  and  C_5
INPUT-LIGAND-PDBQT: REMARK    3  A    between atoms: C_8  and  C_9
INPUT-LIGAND-PDBQT: REMARK    4  A    between atoms: C_9  and  N_10
INPUT-LIGAND-PDBQT: REMARK    5  A    between atoms: N_10  and  C_11
INPUT-LIGAND-PDBQT: REMARK    6  A    between atoms: C_11  and  C_12
INPUT-LIGAND-PDBQT: REMARK    7  A    between atoms: C_12  and  C_13
INPUT-LIGAND-PDBQT: REMARK    8  A    between atoms: C_14  and  C_22
INPUT-LIGAND-PDBQT: REMARK    9  A    between atoms: N_25  and  O_26
INPUT-LIGAND-PDBQT: REMARK                            x       y       z     vdW  Elec       q    Type
INPUT-LIGAND-PDBQT: REMARK                         _______ _______ _______ _____ _____    ______ ____
INPUT-LIGAND-PDBQT: ROOT
INPUT-LIGAND-PDBQT: ATOM      1  N   UNL     1      -0.307   0.772  -0.034  0.00  0.00    +0.000 N 
INPUT-LIGAND-PDBQT: ATOM      2  H   UNL     1      -0.161   1.246  -0.926  0.00  0.00    +0.000 HD
INPUT-LIGAND-PDBQT: ATOM      3  H   UNL     1       0.176   1.251   0.726  0.00  0.00    +0.000 HD
INPUT-LIGAND-PDBQT: ENDROOT
INPUT-LIGAND-PDBQT: BRANCH   1   4
INPUT-LIGAND-PDBQT: ATOM      4  C   UNL     1       0.241  -0.587  -0.127  0.00  0.00    +0.000 C 
INPUT-LIGAND-PDBQT: BRANCH   4   8
INPUT-LIGAND-PDBQT: ATOM      5  C   UNL     1       4.556  -0.310  -0.078  0.00  0.00    +0.000 A 
INPUT-LIGAND-PDBQT: ATOM      6  C   UNL     1       3.830  -0.398   1.127  0.00  0.00    +0.000 A 
INPUT-LIGAND-PDBQT: ATOM      7  C   UNL     1       2.436  -0.493   1.108  0.00  0.00    +0.000 A 
INPUT-LIGAND-PDBQT: ATOM      8  C   UNL     1       1.743  -0.523  -0.111  0.00  0.00    +0.000 A 
INPUT-LIGAND-PDBQT: ATOM      9  C   UNL     1       2.461  -0.436  -1.312  0.00  0.00    +0.000 A 
INPUT-LIGAND-PDBQT: ATOM     10  C   UNL     1       3.856  -0.342  -1.295  0.00  0.00    +0.000 A 
INPUT-LIGAND-PDBQT: BRANCH   5  12
INPUT-LIGAND-PDBQT: ATOM     11  C   UNL     1       6.772   0.239   0.911  0.00  0.00    +0.000 C 
INPUT-LIGAND-PDBQT: ATOM     12  C   UNL     1       6.037  -0.222  -0.110  0.00  0.00    +0.000 C 
INPUT-LIGAND-PDBQT: BRANCH  11  14
INPUT-LIGAND-PDBQT: ATOM     13  O   UNL     1       8.822   1.093   1.697  0.00  0.00    +0.000 OA
INPUT-LIGAND-PDBQT: ATOM     14  C   UNL     1       8.245   0.342   0.866  0.00  0.00    +0.000 C 
INPUT-LIGAND-PDBQT: ATOM     15  N   UNL     1       9.034  -0.409  -0.066  0.00  0.00    +0.000 N 
INPUT-LIGAND-PDBQT: ATOM     16  H   UNL     1       8.605  -1.079  -0.644  0.00  0.00    +0.000 HD
INPUT-LIGAND-PDBQT: BRANCH  15  17
INPUT-LIGAND-PDBQT: ATOM     17  O   UNL     1      10.370  -0.199  -0.153  0.00  0.00    +0.000 OA
INPUT-LIGAND-PDBQT: ATOM     18  H   UNL     1      10.631   0.488   0.480  0.00  0.00    +0.000 HD
INPUT-LIGAND-PDBQT: ENDBRANCH  15  17
INPUT-LIGAND-PDBQT: ENDBRANCH  11  14
INPUT-LIGAND-PDBQT: ENDBRANCH   5  12
INPUT-LIGAND-PDBQT: ENDBRANCH   4   8
INPUT-LIGAND-PDBQT: ENDBRANCH   1   4
INPUT-LIGAND-PDBQT: BRANCH   1  19
INPUT-LIGAND-PDBQT: ATOM     19  C   UNL     1      -1.745   0.776   0.274  0.00  0.00    +0.000 C 
INPUT-LIGAND-PDBQT: BRANCH  19  20
INPUT-LIGAND-PDBQT: ATOM     20  C   UNL     1      -2.604   0.334  -0.923  0.00  0.00    +0.000 C 
INPUT-LIGAND-PDBQT: BRANCH  20  21
INPUT-LIGAND-PDBQT: ATOM     21  C   UNL     1      -4.064   0.459  -0.593  0.00  0.00    +0.000 A 
INPUT-LIGAND-PDBQT: ATOM     22  C   UNL     1      -4.898   1.553  -0.831  0.00  0.00    +0.000 A 
INPUT-LIGAND-PDBQT: ATOM     23  N   UNL     1      -6.137   1.327  -0.333  0.00  0.00    +0.000 N 
INPUT-LIGAND-PDBQT: ATOM     24  C   UNL     1      -6.088   0.110   0.235  0.00  0.00    +0.000 A 
INPUT-LIGAND-PDBQT: ATOM     25  C   UNL     1      -4.840  -0.448   0.103  0.00  0.00    +0.000 A 
INPUT-LIGAND-PDBQT: ATOM     26  C   UNL     1      -4.536  -1.701   0.635  0.00  0.00    +0.000 A 
INPUT-LIGAND-PDBQT: ATOM     27  C   UNL     1      -5.558  -2.392   1.312  0.00  0.00    +0.000 A 
INPUT-LIGAND-PDBQT: ATOM     28  C   UNL     1      -6.843  -1.821   1.444  0.00  0.00    +0.000 A 
INPUT-LIGAND-PDBQT: ATOM     29  C   UNL     1      -7.118  -0.552   0.902  0.00  0.00    +0.000 A 
INPUT-LIGAND-PDBQT: ATOM     30  C   UNL     1      -4.508   2.810  -1.541  0.00  0.00    +0.000 C 
INPUT-LIGAND-PDBQT: ATOM     31  H   UNL     1      -6.913   1.931  -0.377  0.00  0.00    +0.000 HD
INPUT-LIGAND-PDBQT: ENDBRANCH  20  21
INPUT-LIGAND-PDBQT: ENDBRANCH  19  20
INPUT-LIGAND-PDBQT: ENDBRANCH   1  19
INPUT-LIGAND-PDBQT: TORSDOF 8
________________________________________________________________________________

Total charge on ligand                               =	+0.000 e
REMARK  Name = 
REMARK  9 active torsions:
REMARK  status: ('A' for Active; 'I' for Inactive)
REMARK    1  A    between atoms: C_2  and  C_3
REMARK    2  A    between atoms: C_4  and  C_5
REMARK    3  A    between atoms: C_8  and  C_9
REMARK    4  A    between atoms: C_9  and  N_10
REMARK    5  A    between atoms: N_10  and  C_11
REMARK    6  A    between atoms: C_11  and  C_12
REMARK    7  A    between atoms: C_12  and  C_13
REMARK    8  A    between atoms: C_14  and  C_22
REMARK    9  A    between atoms: N_25  and  O_26
REMARK                            x       y       z     vdW  Elec       q    Type
REMARK                         _______ _______ _______ _____ _____    ______ ____


Number of Rotatable Bonds in Small Molecule =	8 torsions
Number of atoms in ligand:  31

Number of non-hydrogen atoms in ligand:  26

Number of vibrational degrees of freedom of ligand:  87


Number of torsional degrees of freedom = 8
Estimated loss of torsional free energy upon binding = +2.3864 kcal/mol


DPF> about 0.693 0.091 0.076            # small molecule center

Small molecule center of rotation =	(+0.693, +0.091, +0.076)

DPF> tran0 random                         # initial coordinates/A or random

Initial translation =			(34.144, -20.428, -6.694) Angstroms
DPF> quaternion0 random                   # initial orientation

Each run will begin with a new, random initial orientation.
Initial quaternion,  (x,y,z,w) =	( 0.375, 0.334, 0.389, 0.773 ),
DPF> dihe0 random                         # initial dihedrals (relative) or random

DPF> torsdof 8                            # torsional degrees of freedom

Number of torsional degrees of freedom = 8
Free energy coefficient for torsional degrees of freedom = 0.2983, the factory default value.

Estimated loss of torsional free energy upon binding = +2.3864 kcal/mol

DPF> rmstol 2.0                           # cluster_tolerance/A

Maximum RMS tolerance for conformational cluster analysis = 2.00 Angstroms
DPF> extnrg 1000.0                        # external grid energy

External grid energy (beyond grid map walls) = 1000.00

DPF> e0max 0.0 10000                      # max initial energy; max number of retries

Using user-specified maximum number of retries for simanneal initialization, 10000 retries.
If the simanneal initial energy is greater than e0max, 0.000,
then a new, random initial state will be created.

DPF> ga_pop_size 150                      # number of individuals in population

A population of 150 individuals will be used
DPF> ga_num_evals 2500000                 # maximum number of energy evaluations

There will be at most 2500000 function evaluations used.
DPF> ga_num_generations 27000             # maximum number of generations

The GA will run for at most 27000 generations.
DPF> ga_elitism 1                         # number of top individuals to survive to next generation

The 1 best will be preserved each GA generation.
DPF> ga_mutation_rate 0.02                # rate of gene mutation

The mutation rate is 0.020000.
DPF> ga_crossover_rate 0.8                # rate of crossover

The crossover rate is 0.800000.
DPF> ga_window_size 10                    # 

The GA's selection window is 10 generations.
DPF> ga_cauchy_alpha 0.0                  # Alpha parameter of Cauchy distribution

The alpha parameter (for the Cauchy distribution) is being set to 0.000000.
DPF> ga_cauchy_beta 1.0                   # Beta parameter Cauchy distribution

The beta parameter (for the Cauchy distribution) is being set to 1.000000.
DPF> set_ga                               # set the above parameters for GA or LGA

DPF> sw_max_its 300                       # iterations of Solis & Wets local search

Solis & Wets algorithms will perform at most 300 iterations.
DPF> sw_max_succ 4                        # consecutive successes before changing rho

Solis & Wets algorithms expand rho every 4 in a row successes.
DPF> sw_max_fail 4                        # consecutive failures before changing rho

Solis & Wets algorithms contract rho every 4 in a row failures.
DPF> sw_rho 1.0                           # size of local search space to sample

rho is set to 1.000000.
DPF> sw_lb_rho 0.01                       # lower bound on rho

rho will never get smaller than 0.010000.
DPF> ls_search_freq 0.06                  # probability of performing local search on individual

Local search will be performed with frequency 0.060000.
DPF> set_psw1                             # set the above pseudo-Solis & Wets parameters

Creating a new Local Search object using the pseudo-Solis-Wets algorithm (pSW1) with the current settings.

DPF> unbound_model bound                  # state of unbound ligand

DPF> ga_run 100

centering ligand on specified point: 0.693 0.091 0.076
Furthest true ligand atom from "about" center is 9.954 Angstroms (maxrad).
Number of requested GA dockings = 100 runs
Unbound model to be used is 'same as bound' [AutoDock 4.2 default].

	BEGINNING GENETIC ALGORITHM DOCKING 1 of 100
Run: 1 Seed: 1449670562 209192810 [ Run 1 of 100 GA/GALS ]
Beginning LAMARCKIAN GENETIC ALGORITHM (LGA), with a maximum of 2500000 energy evaluations.

Final-Value: -16.080


	FINAL GENETIC ALGORITHM DOCKED STATE
	_______________________________________________


Detailed state:  trans 28.041 -17.392 -0.363 quatxyzw -0.138212 0.175592 -0.944889 -0.239270 center 0.693 0.091 0.076 ntor 8 -0.1327 -166.5519 -109.5881 -164.6154 142.4048 8.2360 178.8458 -25.8950
State:	 28.041 -17.392  -0.363  -0.142  0.181 -0.973 -152.313     -0.13 -166.55 -109.59 -164.62  142.40    8.24  178.85  -25.89

DOCKED: MODEL        1
DOCKED: USER    Run = 1
DOCKED: USER    DPF = ligand_dock.biased.dpf
DOCKED: USER  
DOCKED: USER    Estimated Free Energy of Binding    =  -11.23 kcal/mol  [=(1)+(2)+(3)-(4)]
DOCKED: USER    Estimated Inhibition Constant, Ki   =    5.83 nM (nanomolar)  [Temperature = 298.15 K]
DOCKED: USER    
DOCKED: USER    (1) Final Intermolecular Energy     =  -13.62 kcal/mol
DOCKED: USER        vdW + Hbond + desolv Energy     =  -13.62 kcal/mol
DOCKED: USER        Electrostatic Energy            =   +0.00 kcal/mol
DOCKED: USER    (2) Final Total Internal Energy     =   -2.46 kcal/mol
DOCKED: USER    (3) Torsional Free Energy           =   +2.39 kcal/mol
DOCKED: USER    (4) Unbound System's Energy  [=(2)] =   -2.46 kcal/mol
DOCKED: USER    
DOCKED: USER    
DOCKED: USER    NEWDPF move ligand.pdbqt
DOCKED: USER    NEWDPF about 0.693000 0.091000 0.076000
DOCKED: USER    NEWDPF tran0 28.041335 -17.392167 -0.363353
DOCKED: USER    NEWDPF quaternion0 -0.138212 0.175592 -0.944889 -0.239270
DOCKED: USER    NEWDPF axisangle0 -0.142346 0.180845 -0.973156 -152.313029
DOCKED: USER    NEWDPF quat0 -0.142346 0.180845 -0.973156 -152.313029
DOCKED: USER    NEWDPF dihe0 -0.13 -166.55 -109.59 -164.62 142.40 8.24 178.85 -25.89 
DOCKED: USER  keepresnum = 1 
DOCKED: USER  
DOCKED: REMARK  Name = 
DOCKED: REMARK  9 active torsions:
DOCKED: REMARK  status: ('A' for Active; 'I' for Inactive)
DOCKED: REMARK    1  A    between atoms: C_2  and  C_3
DOCKED: REMARK    2  A    between atoms: C_4  and  C_5
DOCKED: REMARK    3  A    between atoms: C_8  and  C_9
DOCKED: REMARK    4  A    between atoms: C_9  and  N_10
DOCKED: REMARK    5  A    between atoms: N_10  and  C_11
DOCKED: REMARK    6  A    between atoms: C_11  and  C_12
DOCKED: REMARK    7  A    between atoms: C_12  and  C_13
DOCKED: REMARK    8  A    between atoms: C_14  and  C_22
DOCKED: REMARK    9  A    between atoms: N_25  and  O_26
DOCKED: REMARK                            x       y       z     vdW  Elec       q    Type
DOCKED: REMARK                         _______ _______ _______ _____ _____    ______ ____
DOCKED: USER                              x       y       z     vdW  Elec       q    Type
DOCKED: USER                           _______ _______ _______ _____ _____    ______ ____
DOCKED: ROOT
DOCKED: ATOM      1  N   UNL     1      29.126 -17.423  -0.911 -0.29 -0.00    +0.000 N 
DOCKED: ATOM      2  H   UNL     1      28.885 -17.650  -1.876 -0.03 -0.00    +0.000 HD
DOCKED: ATOM      3  H   UNL     1      29.172 -18.262  -0.332 -0.61 -0.00    +0.000 HD
DOCKED: ENDROOT
DOCKED: BRANCH   1   4
DOCKED: ATOM      4  C   UNL     1      28.081 -16.553  -0.356 -0.34 -0.00    +0.000 C 
DOCKED: BRANCH   4   8
DOCKED: ATOM      5  C   UNL     1      24.153 -18.132  -1.240 -0.68 -0.00    +0.000 A 
DOCKED: ATOM      6  C   UNL     1      24.753 -17.185  -2.094 -0.52 -0.00    +0.000 A 
DOCKED: ATOM      7  C   UNL     1      26.025 -16.680  -1.809 -0.48 -0.00    +0.000 A 
DOCKED: ATOM      8  C   UNL     1      26.729 -17.126  -0.681 -0.47 -0.00    +0.000 A 
DOCKED: ATOM      9  C   UNL     1      26.136 -18.069   0.171 -0.52 -0.00    +0.000 A 
DOCKED: ATOM     10  C   UNL     1      24.864 -18.575  -0.113 -0.45 -0.00    +0.000 A 
DOCKED: BRANCH   5  12
DOCKED: ATOM     11  C   UNL     1      21.856 -18.820  -0.575 -0.85 -0.00    +0.000 C 
DOCKED: ATOM     12  C   UNL     1      22.812 -18.707  -1.507 -0.69 -0.00    +0.000 C 
DOCKED: BRANCH  11  14
DOCKED: ATOM     13  O   UNL     1      20.245 -19.743  -2.024 -1.86 -0.00    +0.000 OA
DOCKED: ATOM     14  C   UNL     1      20.529 -19.411  -0.843 -0.90 -0.00    +0.000 C 
DOCKED: ATOM     15  N   UNL     1      19.575 -19.648   0.201 -0.74 -0.00    +0.000 N 
DOCKED: ATOM     16  H   UNL     1      19.826 -19.496   1.139 -0.08 -0.00    +0.000 HD
DOCKED: BRANCH  15  17
DOCKED: ATOM     17  O   UNL     1      18.328 -20.083  -0.102 -0.82 -0.00    +0.000 OA
DOCKED: ATOM     18  H   UNL     1      18.244 -20.181  -1.063 -0.39 -0.00    +0.000 HD
DOCKED: ENDBRANCH  15  17
DOCKED: ENDBRANCH  11  14
DOCKED: ENDBRANCH   5  12
DOCKED: ENDBRANCH   4   8
DOCKED: ENDBRANCH   1   4
DOCKED: BRANCH   1  19
DOCKED: ATOM     19  C   UNL     1      30.452 -16.788  -0.890 -0.18 -0.00    +0.000 C 
DOCKED: BRANCH  19  20
DOCKED: ATOM     20  C   UNL     1      30.525 -15.549  -1.797 -0.09 -0.00    +0.000 C 
DOCKED: BRANCH  20  21
DOCKED: ATOM     21  C   UNL     1      29.643 -15.729  -3.000 -0.15 -0.00    +0.000 A 
DOCKED: ATOM     22  C   UNL     1      29.861 -16.567  -4.095 -0.22 -0.00    +0.000 A 
DOCKED: ATOM     23  N   UNL     1      28.884 -16.410  -5.019 -0.31 -0.00    +0.000 N 
DOCKED: ATOM     24  C   UNL     1      28.062 -15.467  -4.528 -0.32 -0.00    +0.000 A 
DOCKED: ATOM     25  C   UNL     1      28.495 -15.023  -3.303 -0.18 -0.00    +0.000 A 
DOCKED: ATOM     26  C   UNL     1      27.818 -14.024  -2.603 -0.16 -0.00    +0.000 A 
DOCKED: ATOM     27  C   UNL     1      26.659 -13.482  -3.189 -0.25 -0.00    +0.000 A 
DOCKED: ATOM     28  C   UNL     1      26.211 -13.942  -4.447 -0.39 -0.00    +0.000 A 
DOCKED: ATOM     29  C   UNL     1      26.918 -14.947  -5.132 -0.41 -0.00    +0.000 A 
DOCKED: ATOM     30  C   UNL     1      31.002 -17.521  -4.250 -0.20 -0.00    +0.000 C 
DOCKED: ATOM     31  H   UNL     1      28.795 -16.889  -5.875 -0.03 -0.00    +0.000 HD
DOCKED: ENDBRANCH  20  21
DOCKED: ENDBRANCH  19  20
DOCKED: ENDBRANCH   1  19
DOCKED: TORSDOF 8
DOCKED: TER
DOCKED: ENDMDL
________________________________________________________________________________


	BEGINNING GENETIC ALGORITHM DOCKING 2 of 100
Run: 2 Seed: 1841662633 771658279 [ Run 2 of 100 GA/GALS ]
Beginning LAMARCKIAN GENETIC ALGORITHM (LGA), with a maximum of 2500000 energy evaluations.

Final-Value: -16.264


	FINAL GENETIC ALGORITHM DOCKED STATE
	_______________________________________________


Detailed state:  trans 28.576 -16.356 0.006 quatxyzw -0.294621 0.769956 0.501111 0.263161 center 0.693 0.091 0.076 ntor 8 11.3918 76.6141 53.4033 11.8309 113.3135 -101.0663 -156.9944 37.4450
State:	 28.576 -16.356   0.006  -0.305  0.798  0.519 149.485     11.39   76.61   53.40   11.83  113.31 -101.07 -156.99   37.45

DOCKED: MODEL        2
DOCKED: USER    Run = 2
DOCKED: USER    DPF = ligand_dock.biased.dpf
DOCKED: USER  
DOCKED: USER    Estimated Free Energy of Binding    =  -11.97 kcal/mol  [=(1)+(2)+(3)-(4)]
DOCKED: USER    Estimated Inhibition Constant, Ki   =    1.69 nM (nanomolar)  [Temperature = 298.15 K]
DOCKED: USER    
DOCKED: USER    (1) Final Intermolecular Energy     =  -14.35 kcal/mol
DOCKED: USER        vdW + Hbond + desolv Energy     =  -14.35 kcal/mol
DOCKED: USER        Electrostatic Energy            =   +0.00 kcal/mol
DOCKED: USER    (2) Final Total Internal Energy     =   -1.91 kcal/mol
DOCKED: USER    (3) Torsional Free Energy           =   +2.39 kcal/mol
DOCKED: USER    (4) Unbound System's Energy  [=(2)] =   -1.91 kcal/mol
DOCKED: USER    
DOCKED: USER    
DOCKED: USER    NEWDPF move ligand.pdbqt
DOCKED: USER    NEWDPF about 0.693000 0.091000 0.076000
DOCKED: USER    NEWDPF tran0 28.575684 -16.356328 0.005700
DOCKED: USER    NEWDPF quaternion0 -0.294621 0.769956 0.501111 0.263161
DOCKED: USER    NEWDPF axisangle0 -0.305386 0.798087 0.519420 149.484584
DOCKED: USER    NEWDPF quat0 -0.305386 0.798087 0.519420 149.484584
DOCKED: USER    NEWDPF dihe0 11.39 76.61 53.40 11.83 113.31 -101.07 -156.99 37.45 
DOCKED: USER  keepresnum = 1 
DOCKED: USER  
DOCKED: REMARK  Name = 
DOCKED: REMARK  9 active torsions:
DOCKED: REMARK  status: ('A' for Active; 'I' for Inactive)
DOCKED: REMARK    1  A    between atoms: C_2  and  C_3
DOCKED: REMARK    2  A    between atoms: C_4  and  C_5
DOCKED: REMARK    3  A    between atoms: C_8  and  C_9
DOCKED: REMARK    4  A    between atoms: C_9  and  N_10
DOCKED: REMARK    5  A    between atoms: N_10  and  C_11
DOCKED: REMARK    6  A    between atoms: C_11  and  C_12
DOCKED: REMARK    7  A    between atoms: C_12  and  C_13
DOCKED: REMARK    8  A    between atoms: C_14  and  C_22
DOCKED: REMARK    9  A    between atoms: N_25  and  O_26
DOCKED: REMARK                            x       y       z     vdW  Elec       q    Type
DOCKED: REMARK                         _______ _______ _______ _____ _____    ______ ____
DOCKED: USER                              x       y       z     vdW  Elec       q    Type
DOCKED: USER                           _______ _______ _______ _____ _____    ______ ____
DOCKED: ROOT
DOCKED: ATOM      1  N   UNL     1      29.211 -15.486   0.566 -0.11 -0.00    +0.000 N 
DOCKED: ATOM      2  H   UNL     1      29.646 -15.987   1.342 -0.88 -0.00    +0.000 HD
DOCKED: ATOM      3  H   UNL     1      28.256 -15.209   0.790 -0.20 -0.00    +0.000 HD
DOCKED: ENDROOT
DOCKED: BRANCH   1   4
DOCKED: ATOM      4  C   UNL     1      29.158 -16.377  -0.599 -0.24 -0.00    +0.000 C 
DOCKED: BRANCH   4   8
DOCKED: ATOM      5  C   UNL     1      25.078 -17.541  -1.437 -0.59 -0.00    +0.000 A 
DOCKED: ATOM      6  C   UNL     1      25.733 -18.007  -0.279 -0.60 -0.00    +0.000 A 
DOCKED: ATOM      7  C   UNL     1      27.049 -17.625  -0.008 -0.37 -0.00    +0.000 A 
DOCKED: ATOM      8  C   UNL     1      27.729 -16.756  -0.874 -0.36 -0.00    +0.000 A 
DOCKED: ATOM      9  C   UNL     1      27.082 -16.289  -2.027 -0.34 -0.00    +0.000 A 
DOCKED: ATOM     10  C   UNL     1      25.764 -16.670  -2.299 -0.46 -0.00    +0.000 A 
DOCKED: BRANCH   5  12
DOCKED: ATOM     11  C   UNL     1      22.753 -18.186  -0.832 -0.83 -0.00    +0.000 C 
DOCKED: ATOM     12  C   UNL     1      23.677 -17.907  -1.761 -0.59 -0.00    +0.000 C 
DOCKED: BRANCH  11  14
DOCKED: ATOM     13  O   UNL     1      20.422 -17.865  -0.707 -2.27 -0.00    +0.000 OA
DOCKED: ATOM     14  C   UNL     1      21.364 -18.568  -1.161 -0.65 -0.00    +0.000 C 
DOCKED: ATOM     15  N   UNL     1      21.061 -19.687  -2.005 -0.50 -0.00    +0.000 N 
DOCKED: ATOM     16  H   UNL     1      21.787 -20.175  -2.452 -0.60 -0.00    +0.000 HD
DOCKED: BRANCH  15  17
DOCKED: ATOM     17  O   UNL     1      19.775 -20.074  -2.187 -1.68 -0.00    +0.000 OA
DOCKED: ATOM     18  H   UNL     1      19.180 -19.395  -1.833 -0.49 -0.00    +0.000 HD
DOCKED: ENDBRANCH  15  17
DOCKED: ENDBRANCH  11  14
DOCKED: ENDBRANCH   5  12
DOCKED: ENDBRANCH   4   8
DOCKED: ENDBRANCH   1   4
DOCKED: BRANCH   1  19
DOCKED: ATOM     19  C   UNL     1      29.984 -14.263   0.301 -0.11 -0.00    +0.000 C 
DOCKED: BRANCH  19  20
DOCKED: ATOM     20  C   UNL     1      30.169 -13.400   1.561 -0.10 -0.00    +0.000 C 
DOCKED: BRANCH  20  21
DOCKED: ATOM     21  C   UNL     1      28.837 -12.935   2.077 -0.14 -0.00    +0.000 A 
DOCKED: ATOM     22  C   UNL     1      28.138 -13.422   3.183 -0.30 -0.00    +0.000 A 
DOCKED: ATOM     23  N   UNL     1      26.937 -12.805   3.299 -0.27 +0.00    +0.000 N 
DOCKED: ATOM     24  C   UNL     1      26.863 -11.949   2.265 -0.29 +0.00    +0.000 A 
DOCKED: ATOM     25  C   UNL     1      27.998 -12.004   1.494 -0.15 -0.00    +0.000 A 
DOCKED: ATOM     26  C   UNL     1      28.146 -11.223   0.348 -0.09 -0.00    +0.000 A 
DOCKED: ATOM     27  C   UNL     1      27.091 -10.359   0.003 -0.15 +0.00    +0.000 A 
DOCKED: ATOM     28  C   UNL     1      25.925 -10.298   0.798 -0.34 +0.00    +0.000 A 
DOCKED: ATOM     29  C   UNL     1      25.802 -11.103   1.945 -0.28 +0.00    +0.000 A 
DOCKED: ATOM     30  C   UNL     1      28.624 -14.472   4.130 -0.49 -0.00    +0.000 C 
DOCKED: ATOM     31  H   UNL     1      26.259 -12.955   3.996 +0.11 +0.00    +0.000 HD
DOCKED: ENDBRANCH  20  21
DOCKED: ENDBRANCH  19  20
DOCKED: ENDBRANCH   1  19
DOCKED: TORSDOF 8
DOCKED: TER
DOCKED: ENDMDL
________________________________________________________________________________


	BEGINNING GENETIC ALGORITHM DOCKING 3 of 100
Run: 3 Seed: 461138460 288096495 [ Run 3 of 100 GA/GALS ]
Beginning LAMARCKIAN GENETIC ALGORITHM (LGA), with a maximum of 2500000 energy evaluations.

Final-Value: -16.812


	FINAL GENETIC ALGORITHM DOCKED STATE
	_______________________________________________


Detailed state:  trans 28.717 -15.588 0.168 quatxyzw 0.151247 -0.576439 -0.799585 -0.074206 center 0.693 0.091 0.076 ntor 8 12.8731 153.5361 33.3386 9.3223 154.7144 -167.3510 -155.1239 3.3890
State:	 28.717 -15.588   0.168   0.152 -0.578 -0.802 -171.489     12.87  153.54   33.34    9.32  154.71 -167.35 -155.12    3.39

DOCKED: MODEL        3
DOCKED: USER    Run = 3
DOCKED: USER    DPF = ligand_dock.biased.dpf
DOCKED: USER  
DOCKED: USER    Estimated Free Energy of Binding    =  -11.91 kcal/mol  [=(1)+(2)+(3)-(4)]
DOCKED: USER    Estimated Inhibition Constant, Ki   =    1.85 nM (nanomolar)  [Temperature = 298.15 K]
DOCKED: USER    
DOCKED: USER    (1) Final Intermolecular Energy     =  -14.30 kcal/mol
DOCKED: USER        vdW + Hbond + desolv Energy     =  -14.30 kcal/mol
DOCKED: USER        Electrostatic Energy            =   +0.00 kcal/mol
DOCKED: USER    (2) Final Total Internal Energy     =   -2.51 kcal/mol
DOCKED: USER    (3) Torsional Free Energy           =   +2.39 kcal/mol
DOCKED: USER    (4) Unbound System's Energy  [=(2)] =   -2.51 kcal/mol
DOCKED: USER    
DOCKED: USER    
DOCKED: USER    NEWDPF move ligand.pdbqt
DOCKED: USER    NEWDPF about 0.693000 0.091000 0.076000
DOCKED: USER    NEWDPF tran0 28.717104 -15.587625 0.168144
DOCKED: USER    NEWDPF quaternion0 0.151247 -0.576439 -0.799585 -0.074206
DOCKED: USER    NEWDPF axisangle0 0.151665 -0.578033 -0.801796 -171.488749
DOCKED: USER    NEWDPF quat0 0.151665 -0.578033 -0.801796 -171.488749
DOCKED: USER    NEWDPF dihe0 12.87 153.54 33.34 9.32 154.71 -167.35 -155.12 3.39 
DOCKED: USER  keepresnum = 1 
DOCKED: USER  
DOCKED: REMARK  Name = 
DOCKED: REMARK  9 active torsions:
DOCKED: REMARK  status: ('A' for Active; 'I' for Inactive)
DOCKED: REMARK    1  A    between atoms: C_2  and  C_3
DOCKED: REMARK    2  A    between atoms: C_4  and  C_5
DOCKED: REMARK    3  A    between atoms: C_8  and  C_9
DOCKED: REMARK    4  A    between atoms: C_9  and  N_10
DOCKED: REMARK    5  A    between atoms: N_10  and  C_11
DOCKED: REMARK    6  A    between atoms: C_11  and  C_12
DOCKED: REMARK    7  A    between atoms: C_12  and  C_13
DOCKED: REMARK    8  A    between atoms: C_14  and  C_22
DOCKED: REMARK    9  A    between atoms: N_25  and  O_26
DOCKED: REMARK                            x       y       z     vdW  Elec       q    Type
DOCKED: REMARK                         _______ _______ _______ _____ _____    ______ ____
DOCKED: USER                              x       y       z     vdW  Elec       q    Type
DOCKED: USER                           _______ _______ _______ _____ _____    ______ ____
DOCKED: ROOT
DOCKED: ATOM      1  N   UNL     1      29.658 -15.614   0.936 +0.21 -0.00    +0.000 N 
DOCKED: ATOM      2  H   UNL     1      29.786 -16.613   1.102 -0.61 -0.00    +0.000 HD
DOCKED: ATOM      3  H   UNL     1      28.927 -15.228   1.533 -1.18 -0.00    +0.000 HD
DOCKED: ENDROOT
DOCKED: BRANCH   1   4
DOCKED: ATOM      4  C   UNL     1      29.248 -15.418  -0.460 -0.18 -0.00    +0.000 C 
DOCKED: BRANCH   4   8
DOCKED: ATOM      5  C   UNL     1      25.092 -16.491  -0.987 -0.51 -0.00    +0.000 A 
DOCKED: ATOM      6  C   UNL     1      26.053 -17.475  -0.678 -0.55 -0.00    +0.000 A 
DOCKED: ATOM      7  C   UNL     1      27.394 -17.125  -0.502 -0.41 -0.00    +0.000 A 
DOCKED: ATOM      8  C   UNL     1      27.798 -15.786  -0.612 -0.28 -0.00    +0.000 A 
DOCKED: ATOM      9  C   UNL     1      26.846 -14.804  -0.919 -0.28 -0.00    +0.000 A 
DOCKED: ATOM     10  C   UNL     1      25.503 -15.152  -1.094 -0.27 -0.00    +0.000 A 
DOCKED: BRANCH   5  12
DOCKED: ATOM     11  C   UNL     1      23.122 -18.007  -0.881 -0.81 -0.00    +0.000 C 
DOCKED: ATOM     12  C   UNL     1      23.654 -16.811  -1.168 -0.55 -0.00    +0.000 C 
DOCKED: BRANCH  11  14
DOCKED: ATOM     13  O   UNL     1      20.831 -17.486  -0.708 -2.08 +0.00    +0.000 OA
DOCKED: ATOM     14  C   UNL     1      21.693 -18.326  -1.081 -0.74 -0.00    +0.000 C 
DOCKED: ATOM     15  N   UNL     1      21.264 -19.537  -1.715 -0.62 -0.00    +0.000 N 
DOCKED: ATOM     16  H   UNL     1      21.928 -20.147  -2.108 -0.54 -0.00    +0.000 HD
DOCKED: BRANCH  15  17
DOCKED: ATOM     17  O   UNL     1      19.946 -19.846  -1.775 -1.81 -0.00    +0.000 OA
DOCKED: ATOM     18  H   UNL     1      19.421 -19.067  -1.534 -0.32 -0.00    +0.000 HD
DOCKED: ENDBRANCH  15  17
DOCKED: ENDBRANCH  11  14
DOCKED: ENDBRANCH   5  12
DOCKED: ENDBRANCH   4   8
DOCKED: ENDBRANCH   1   4
DOCKED: BRANCH   1  19
DOCKED: ATOM     19  C   UNL     1      30.914 -14.917   1.253 -0.13 -0.00    +0.000 C 
DOCKED: BRANCH  19  20
DOCKED: ATOM     20  C   UNL     1      30.742 -13.878   2.374 -0.14 -0.00    +0.000 C 
DOCKED: BRANCH  20  21
DOCKED: ATOM     21  C   UNL     1      29.298 -13.481   2.502 -0.16 -0.00    +0.000 A 
DOCKED: ATOM     22  C   UNL     1      28.379 -13.918   3.458 -0.35 -0.00    +0.000 A 
DOCKED: ATOM     23  N   UNL     1      27.153 -13.398   3.215 -0.39 -0.00    +0.000 N 
DOCKED: ATOM     24  C   UNL     1      27.283 -12.654   2.103 -0.26 -0.00    +0.000 A 
DOCKED: ATOM     25  C   UNL     1      28.574 -12.685   1.635 -0.13 -0.00    +0.000 A 
DOCKED: ATOM     26  C   UNL     1      28.952 -12.008   0.476 -0.05 -0.00    +0.000 A 
DOCKED: ATOM     27  C   UNL     1      27.964 -11.274  -0.206 -0.09 -0.00    +0.000 A 
DOCKED: ATOM     28  C   UNL     1      26.637 -11.237   0.277 -0.19 +0.00    +0.000 A 
DOCKED: ATOM     29  C   UNL     1      26.285 -11.936   1.446 -0.33 +0.00    +0.000 A 
DOCKED: ATOM     30  C   UNL     1      28.680 -14.827   4.607 -0.50 -0.00    +0.000 C 
DOCKED: ATOM     31  H   UNL     1      26.334 -13.538   3.743 -0.03 -0.00    +0.000 HD
DOCKED: ENDBRANCH  20  21
DOCKED: ENDBRANCH  19  20
DOCKED: ENDBRANCH   1  19
DOCKED: TORSDOF 8
DOCKED: TER
DOCKED: ENDMDL
________________________________________________________________________________


	BEGINNING GENETIC ALGORITHM DOCKING 4 of 100
Run: 4 Seed: 1607077876 159543906 [ Run 4 of 100 GA/GALS ]
Beginning LAMARCKIAN GENETIC ALGORITHM (LGA), with a maximum of 2500000 energy evaluations.

Final-Value: -16.429


	FINAL GENETIC ALGORITHM DOCKED STATE
	_______________________________________________


Detailed state:  trans 29.020 -16.523 -0.369 quatxyzw 0.501399 -0.287179 -0.545639 -0.606964 center 0.693 0.091 0.076 ntor 8 11.3416 170.3169 -145.2332 -26.6134 -34.5210 -169.1092 37.4922 94.9630
State:	 29.020 -16.523  -0.369   0.631 -0.361 -0.687 -105.259     11.34  170.32 -145.23  -26.61  -34.52 -169.11   37.49   94.96

DOCKED: MODEL        4
DOCKED: USER    Run = 4
DOCKED: USER    DPF = ligand_dock.biased.dpf
DOCKED: USER  
DOCKED: USER    Estimated Free Energy of Binding    =  -12.30 kcal/mol  [=(1)+(2)+(3)-(4)]
DOCKED: USER    Estimated Inhibition Constant, Ki   =  970.13 pM (picomolar)  [Temperature = 298.15 K]
DOCKED: USER    
DOCKED: USER    (1) Final Intermolecular Energy     =  -14.68 kcal/mol
DOCKED: USER        vdW + Hbond + desolv Energy     =  -14.68 kcal/mol
DOCKED: USER        Electrostatic Energy            =   +0.00 kcal/mol
DOCKED: USER    (2) Final Total Internal Energy     =   -1.75 kcal/mol
DOCKED: USER    (3) Torsional Free Energy           =   +2.39 kcal/mol
DOCKED: USER    (4) Unbound System's Energy  [=(2)] =   -1.75 kcal/mol
DOCKED: USER    
DOCKED: USER    
DOCKED: USER    NEWDPF move ligand.pdbqt
DOCKED: USER    NEWDPF about 0.693000 0.091000 0.076000
DOCKED: USER    NEWDPF tran0 29.020435 -16.523408 -0.368597
DOCKED: USER    NEWDPF quaternion0 0.501399 -0.287179 -0.545639 -0.606964
DOCKED: USER    NEWDPF axisangle0 0.630905 -0.361354 -0.686573 -105.259379
DOCKED: USER    NEWDPF quat0 0.630905 -0.361354 -0.686573 -105.259379
DOCKED: USER    NEWDPF dihe0 11.34 170.32 -145.23 -26.61 -34.52 -169.11 37.49 94.96 
DOCKED: USER  keepresnum = 1 
DOCKED: USER  
DOCKED: REMARK  Name = 
DOCKED: REMARK  9 active torsions:
DOCKED: REMARK  status: ('A' for Active; 'I' for Inactive)
DOCKED: REMARK    1  A    between atoms: C_2  and  C_3
DOCKED: REMARK    2  A    between atoms: C_4  and  C_5
DOCKED: REMARK    3  A    between atoms: C_8  and  C_9
DOCKED: REMARK    4  A    between atoms: C_9  and  N_10
DOCKED: REMARK    5  A    between atoms: N_10  and  C_11
DOCKED: REMARK    6  A    between atoms: C_11  and  C_12
DOCKED: REMARK    7  A    between atoms: C_12  and  C_13
DOCKED: REMARK    8  A    between atoms: C_14  and  C_22
DOCKED: REMARK    9  A    between atoms: N_25  and  O_26
DOCKED: REMARK                            x       y       z     vdW  Elec       q    Type
DOCKED: REMARK                         _______ _______ _______ _____ _____    ______ ____
DOCKED: USER                              x       y       z     vdW  Elec       q    Type
DOCKED: USER                           _______ _______ _______ _____ _____    ______ ____
DOCKED: ROOT
DOCKED: ATOM      1  N   UNL     1      29.134 -15.607   0.421 -0.17 -0.00    +0.000 N 
DOCKED: ATOM      2  H   UNL     1      30.146 -15.529   0.533 -0.12 -0.00    +0.000 HD
DOCKED: ATOM      3  H   UNL     1      28.749 -16.338   1.020 -0.69 -0.00    +0.000 HD
DOCKED: ENDROOT
DOCKED: BRANCH   1   4
DOCKED: ATOM      4  C   UNL     1      28.840 -15.967  -0.971 -0.24 -0.00    +0.000 C 
DOCKED: BRANCH   4   8
DOCKED: ATOM      5  C   UNL     1      24.667 -17.067  -1.247 -0.60 -0.00    +0.000 A 
DOCKED: ATOM      6  C   UNL     1      25.200 -16.062  -2.079 -0.49 -0.00    +0.000 A 
DOCKED: ATOM      7  C   UNL     1      26.550 -15.712  -1.992 -0.37 -0.00    +0.000 A 
DOCKED: ATOM      8  C   UNL     1      27.397 -16.372  -1.090 -0.36 -0.00    +0.000 A 
DOCKED: ATOM      9  C   UNL     1      26.872 -17.373  -0.260 -0.47 -0.00    +0.000 A 
DOCKED: ATOM     10  C   UNL     1      25.521 -17.725  -0.347 -0.59 -0.00    +0.000 A 
DOCKED: BRANCH   5  12
DOCKED: ATOM     11  C   UNL     1      22.665 -18.280  -0.404 -0.83 -0.00    +0.000 C 
DOCKED: ATOM     12  C   UNL     1      23.244 -17.484  -1.312 -0.63 -0.00    +0.000 C 
DOCKED: BRANCH  11  14
DOCKED: ATOM     13  O   UNL     1      20.428 -17.952  -1.067 -2.18 -0.00    +0.000 OA
DOCKED: ATOM     14  C   UNL     1      21.253 -18.706  -0.485 -0.83 -0.00    +0.000 C 
DOCKED: ATOM     15  N   UNL     1      20.803 -19.959   0.046 -0.69 -0.00    +0.000 N 
DOCKED: ATOM     16  H   UNL     1      21.455 -20.603   0.404 -0.59 -0.00    +0.000 HD
DOCKED: BRANCH  15  17
DOCKED: ATOM     17  O   UNL     1      19.482 -20.261   0.055 -0.85 -0.00    +0.000 OA
DOCKED: ATOM     18  H   UNL     1      18.999 -19.617  -0.485 -0.12 -0.00    +0.000 HD
DOCKED: ENDBRANCH  15  17
DOCKED: ENDBRANCH  11  14
DOCKED: ENDBRANCH   5  12
DOCKED: ENDBRANCH   4   8
DOCKED: ENDBRANCH   1   4
DOCKED: BRANCH   1  19
DOCKED: ATOM     19  C   UNL     1      28.515 -14.332   0.813 -0.22 -0.00    +0.000 C 
DOCKED: BRANCH  19  20
DOCKED: ATOM     20  C   UNL     1      27.502 -14.498   1.958 -0.15 -0.00    +0.000 C 
DOCKED: BRANCH  20  21
DOCKED: ATOM     21  C   UNL     1      27.449 -13.251   2.793 -0.31 -0.00    +0.000 A 
DOCKED: ATOM     22  C   UNL     1      27.004 -11.986   2.404 -0.28 +0.00    +0.000 A 
DOCKED: ATOM     23  N   UNL     1      27.171 -11.091   3.407 -0.31 +0.00    +0.000 N 
DOCKED: ATOM     24  C   UNL     1      27.735 -11.774   4.418 -0.29 +0.00    +0.000 A 
DOCKED: ATOM     25  C   UNL     1      27.926 -13.091   4.080 -0.37 -0.00    +0.000 A 
DOCKED: ATOM     26  C   UNL     1      28.520 -13.996   4.960 -0.47 -0.00    +0.000 A 
DOCKED: ATOM     27  C   UNL     1      28.916 -13.520   6.223 -0.36 -0.00    +0.000 A 
DOCKED: ATOM     28  C   UNL     1      28.715 -12.166   6.574 -0.35 -0.00    +0.000 A 
DOCKED: ATOM     29  C   UNL     1      28.119 -11.275   5.663 -0.36 +0.00    +0.000 A 
DOCKED: ATOM     30  C   UNL     1      26.415 -11.638   1.075 -0.34 +0.00    +0.000 C 
DOCKED: ATOM     31  H   UNL     1      26.930 -10.137   3.397 -0.03 +0.00    +0.000 HD
DOCKED: ENDBRANCH  20  21
DOCKED: ENDBRANCH  19  20
DOCKED: ENDBRANCH   1  19
DOCKED: TORSDOF 8
DOCKED: TER
DOCKED: ENDMDL
________________________________________________________________________________


	BEGINNING GENETIC ALGORITHM DOCKING 5 of 100
Run: 5 Seed: 605716760 661197255 [ Run 5 of 100 GA/GALS ]
Beginning LAMARCKIAN GENETIC ALGORITHM (LGA), with a maximum of 2500000 energy evaluations.

Final-Value: -15.049


	FINAL GENETIC ALGORITHM DOCKED STATE
	_______________________________________________


Detailed state:  trans 29.047 -14.939 -1.668 quatxyzw 0.310830 0.790323 -0.326967 0.414569 center 0.693 0.091 0.076 ntor 8 -88.2312 114.5887 -140.9187 -1.5884 -113.1515 -179.9956 -151.1165 82.9452
State:	 29.047 -14.939  -1.668   0.342  0.868 -0.359 131.016    -88.23  114.59 -140.92   -1.59 -113.15 -180.00 -151.12   82.95

DOCKED: MODEL        5
DOCKED: USER    Run = 5
DOCKED: USER    DPF = ligand_dock.biased.dpf
DOCKED: USER  
DOCKED: USER    Estimated Free Energy of Binding    =  -10.95 kcal/mol  [=(1)+(2)+(3)-(4)]
DOCKED: USER    Estimated Inhibition Constant, Ki   =    9.40 nM (nanomolar)  [Temperature = 298.15 K]
DOCKED: USER    
DOCKED: USER    (1) Final Intermolecular Energy     =  -13.34 kcal/mol
DOCKED: USER        vdW + Hbond + desolv Energy     =  -13.34 kcal/mol
DOCKED: USER        Electrostatic Energy            =   +0.00 kcal/mol
DOCKED: USER    (2) Final Total Internal Energy     =   -1.71 kcal/mol
DOCKED: USER    (3) Torsional Free Energy           =   +2.39 kcal/mol
DOCKED: USER    (4) Unbound System's Energy  [=(2)] =   -1.71 kcal/mol
DOCKED: USER    
DOCKED: USER    
DOCKED: USER    NEWDPF move ligand.pdbqt
DOCKED: USER    NEWDPF about 0.693000 0.091000 0.076000
DOCKED: USER    NEWDPF tran0 29.047384 -14.939199 -1.668295
DOCKED: USER    NEWDPF quaternion0 0.310830 0.790323 -0.326967 0.414569
DOCKED: USER    NEWDPF axisangle0 0.341565 0.868469 -0.359297 131.015611
DOCKED: USER    NEWDPF quat0 0.341565 0.868469 -0.359297 131.015611
DOCKED: USER    NEWDPF dihe0 -88.23 114.59 -140.92 -1.59 -113.15 -180.00 -151.12 82.95 
DOCKED: USER  keepresnum = 1 
DOCKED: USER  
DOCKED: REMARK  Name = 
DOCKED: REMARK  9 active torsions:
DOCKED: REMARK  status: ('A' for Active; 'I' for Inactive)
DOCKED: REMARK    1  A    between atoms: C_2  and  C_3
DOCKED: REMARK    2  A    between atoms: C_4  and  C_5
DOCKED: REMARK    3  A    between atoms: C_8  and  C_9
DOCKED: REMARK    4  A    between atoms: C_9  and  N_10
DOCKED: REMARK    5  A    between atoms: N_10  and  C_11
DOCKED: REMARK    6  A    between atoms: C_11  and  C_12
DOCKED: REMARK    7  A    between atoms: C_12  and  C_13
DOCKED: REMARK    8  A    between atoms: C_14  and  C_22
DOCKED: REMARK    9  A    between atoms: N_25  and  O_26
DOCKED: REMARK                            x       y       z     vdW  Elec       q    Type
DOCKED: REMARK                         _______ _______ _______ _____ _____    ______ ____
DOCKED: USER                              x       y       z     vdW  Elec       q    Type
DOCKED: USER                           _______ _______ _______ _____ _____    ______ ____
DOCKED: ROOT
DOCKED: ATOM      1  N   UNL     1      29.755 -15.269  -2.599 -0.10 -0.00    +0.000 N 
DOCKED: ATOM      2  H   UNL     1      30.557 -14.646  -2.506 +0.00 -0.00    +0.000 HD
DOCKED: ATOM      3  H   UNL     1      28.984 -14.814  -3.088 +0.01 -0.00    +0.000 HD
DOCKED: ENDROOT
DOCKED: BRANCH   1   4
DOCKED: ATOM      4  C   UNL     1      29.282 -15.633  -1.258 -0.18 -0.00    +0.000 C 
DOCKED: BRANCH   4   8
DOCKED: ATOM      5  C   UNL     1      25.104 -16.744  -1.372 -0.56 -0.00    +0.000 A 
DOCKED: ATOM      6  C   UNL     1      25.508 -15.438  -1.715 -0.40 -0.00    +0.000 A 
DOCKED: ATOM      7  C   UNL     1      26.859 -15.083  -1.682 -0.29 -0.00    +0.000 A 
DOCKED: ATOM      8  C   UNL     1      27.833 -16.028  -1.328 -0.29 -0.00    +0.000 A 
DOCKED: ATOM      9  C   UNL     1      27.436 -17.329  -0.987 -0.40 -0.00    +0.000 A 
DOCKED: ATOM     10  C   UNL     1      26.085 -17.686  -1.020 -0.52 -0.00    +0.000 A 
DOCKED: BRANCH   5  12
DOCKED: ATOM     11  C   UNL     1      23.236 -18.291  -0.819 -0.82 -0.00    +0.000 C 
DOCKED: ATOM     12  C   UNL     1      23.684 -17.173  -1.405 -0.63 -0.00    +0.000 C 
DOCKED: BRANCH  11  14
DOCKED: ATOM     13  O   UNL     1      21.014 -18.237  -0.036 -1.58 -0.00    +0.000 OA
DOCKED: ATOM     14  C   UNL     1      21.823 -18.722  -0.871 -0.84 -0.00    +0.000 C 
DOCKED: ATOM     15  N   UNL     1      21.343 -19.643  -1.859 -0.47 -0.00    +0.000 N 
DOCKED: ATOM     16  H   UNL     1      21.940 -19.943  -2.581 -0.58 -0.00    +0.000 HD
DOCKED: BRANCH  15  17
DOCKED: ATOM     17  O   UNL     1      20.070 -20.102  -1.802 -1.75 -0.00    +0.000 OA
DOCKED: ATOM     18  H   UNL     1      20.037 -20.896  -1.246 -0.56 -0.00    +0.000 HD
DOCKED: ENDBRANCH  15  17
DOCKED: ENDBRANCH  11  14
DOCKED: ENDBRANCH   5  12
DOCKED: ENDBRANCH   4   8
DOCKED: ENDBRANCH   1   4
DOCKED: BRANCH   1  19
DOCKED: ATOM     19  C   UNL     1      30.157 -16.443  -3.388 -0.19 -0.00    +0.000 C 
DOCKED: BRANCH  19  20
DOCKED: ATOM     20  C   UNL     1      29.151 -16.775  -4.504 -0.08 -0.00    +0.000 C 
DOCKED: BRANCH  20  21
DOCKED: ATOM     21  C   UNL     1      29.221 -15.745  -5.595 -0.32 -0.00    +0.000 A 
DOCKED: ATOM     22  C   UNL     1      30.024 -15.771  -6.736 -0.30 -0.00    +0.000 A 
DOCKED: ATOM     23  N   UNL     1      29.868 -14.634  -7.457 -0.30 -0.00    +0.000 N 
DOCKED: ATOM     24  C   UNL     1      28.990 -13.883  -6.771 -0.29 -0.00    +0.000 A 
DOCKED: ATOM     25  C   UNL     1      28.578 -14.523  -5.627 -0.31 -0.00    +0.000 A 
DOCKED: ATOM     26  C   UNL     1      27.683 -13.930  -4.736 -0.27 -0.00    +0.000 A 
DOCKED: ATOM     27  C   UNL     1      27.200 -12.646  -5.048 -0.22 -0.00    +0.000 A 
DOCKED: ATOM     28  C   UNL     1      27.619 -11.989  -6.227 -0.17 -0.00    +0.000 A 
DOCKED: ATOM     29  C   UNL     1      28.528 -12.610  -7.103 -0.22 -0.00    +0.000 A 
DOCKED: ATOM     30  C   UNL     1      30.935 -16.887  -7.138 -0.32 -0.00    +0.000 C 
DOCKED: ATOM     31  H   UNL     1      30.308 -14.406  -8.307 -0.40 -0.00    +0.000 HD
DOCKED: ENDBRANCH  20  21
DOCKED: ENDBRANCH  19  20
DOCKED: ENDBRANCH   1  19
DOCKED: TORSDOF 8
DOCKED: TER
DOCKED: ENDMDL
________________________________________________________________________________


	BEGINNING GENETIC ALGORITHM DOCKING 6 of 100
Run: 6 Seed: 1898467793 775507669 [ Run 6 of 100 GA/GALS ]
Beginning LAMARCKIAN GENETIC ALGORITHM (LGA), with a maximum of 2500000 energy evaluations.

Final-Value: -15.721


	FINAL GENETIC ALGORITHM DOCKED STATE
	_______________________________________________


Detailed state:  trans 27.700 -16.566 -0.093 quatxyzw -0.075803 0.074202 -0.954896 -0.277349 center 0.693 0.091 0.076 ntor 8 -1.4539 149.5734 -22.0702 172.8114 169.6500 -14.9254 128.8780 -17.7560
State:	 27.700 -16.566  -0.093  -0.079  0.077 -0.994 -147.796     -1.45  149.57  -22.07  172.81  169.65  -14.93  128.88  -17.76

DOCKED: MODEL        6
DOCKED: USER    Run = 6
DOCKED: USER    DPF = ligand_dock.biased.dpf
DOCKED: USER  
DOCKED: USER    Estimated Free Energy of Binding    =  -11.03 kcal/mol  [=(1)+(2)+(3)-(4)]
DOCKED: USER    Estimated Inhibition Constant, Ki   =    8.28 nM (nanomolar)  [Temperature = 298.15 K]
DOCKED: USER    
DOCKED: USER    (1) Final Intermolecular Energy     =  -13.41 kcal/mol
DOCKED: USER        vdW + Hbond + desolv Energy     =  -13.41 kcal/mol
DOCKED: USER        Electrostatic Energy            =   +0.00 kcal/mol
DOCKED: USER    (2) Final Total Internal Energy     =   -2.31 kcal/mol
DOCKED: USER    (3) Torsional Free Energy           =   +2.39 kcal/mol
DOCKED: USER    (4) Unbound System's Energy  [=(2)] =   -2.31 kcal/mol
DOCKED: USER    
DOCKED: USER    
DOCKED: USER    NEWDPF move ligand.pdbqt
DOCKED: USER    NEWDPF about 0.693000 0.091000 0.076000
DOCKED: USER    NEWDPF tran0 27.699761 -16.565914 -0.092757
DOCKED: USER    NEWDPF quaternion0 -0.075803 0.074202 -0.954896 -0.277349
DOCKED: USER    NEWDPF axisangle0 -0.078899 0.077232 -0.993886 -147.795938
DOCKED: USER    NEWDPF quat0 -0.078899 0.077232 -0.993886 -147.795938
DOCKED: USER    NEWDPF dihe0 -1.45 149.57 -22.07 172.81 169.65 -14.93 128.88 -17.76 
DOCKED: USER  keepresnum = 1 
DOCKED: USER  
DOCKED: REMARK  Name = 
DOCKED: REMARK  9 active torsions:
DOCKED: REMARK  status: ('A' for Active; 'I' for Inactive)
DOCKED: REMARK    1  A    between atoms: C_2  and  C_3
DOCKED: REMARK    2  A    between atoms: C_4  and  C_5
DOCKED: REMARK    3  A    between atoms: C_8  and  C_9
DOCKED: REMARK    4  A    between atoms: C_9  and  N_10
DOCKED: REMARK    5  A    between atoms: N_10  and  C_11
DOCKED: REMARK    6  A    between atoms: C_11  and  C_12
DOCKED: REMARK    7  A    between atoms: C_12  and  C_13
DOCKED: REMARK    8  A    between atoms: C_14  and  C_22
DOCKED: REMARK    9  A    between atoms: N_25  and  O_26
DOCKED: REMARK                            x       y       z     vdW  Elec       q    Type
DOCKED: REMARK                         _______ _______ _______ _____ _____    ______ ____
DOCKED: USER                              x       y       z     vdW  Elec       q    Type
DOCKED: USER                           _______ _______ _______ _____ _____    ______ ____
DOCKED: ROOT
DOCKED: ATOM      1  N   UNL     1      28.867 -16.583  -0.429 -0.26 -0.00    +0.000 N 
DOCKED: ATOM      2  H   UNL     1      28.825 -16.969  -1.373 -0.02 -0.00    +0.000 HD
DOCKED: ATOM      3  H   UNL     1      28.854 -17.320   0.276 -0.48 -0.00    +0.000 HD
DOCKED: ENDROOT
DOCKED: BRANCH   1   4
DOCKED: ATOM      4  C   UNL     1      27.688 -15.735  -0.213 -0.33 -0.00    +0.000 C 
DOCKED: BRANCH   4   8
DOCKED: ATOM      5  C   UNL     1      24.073 -18.003  -0.910 -0.70 -0.00    +0.000 A 
DOCKED: ATOM      6  C   UNL     1      24.148 -16.645  -1.278 -0.47 -0.00    +0.000 A 
DOCKED: ATOM      7  C   UNL     1      25.320 -15.916  -1.057 -0.42 -0.00    +0.000 A 
DOCKED: ATOM      8  C   UNL     1      26.442 -16.532  -0.485 -0.43 -0.00    +0.000 A 
DOCKED: ATOM      9  C   UNL     1      26.372 -17.883  -0.118 -0.55 -0.00    +0.000 A 
DOCKED: ATOM     10  C   UNL     1      25.201 -18.615  -0.339 -0.53 -0.00    +0.000 A 
DOCKED: BRANCH   5  12
DOCKED: ATOM     11  C   UNL     1      21.619 -18.406  -0.841 -0.82 -0.00    +0.000 C 
DOCKED: ATOM     12  C   UNL     1      22.857 -18.823  -1.138 -0.81 -0.00    +0.000 C 
DOCKED: BRANCH  11  14
DOCKED: ATOM     13  O   UNL     1      20.258 -19.798  -2.168 -1.87 -0.00    +0.000 OA
DOCKED: ATOM     14  C   UNL     1      20.414 -19.234  -1.052 -0.89 -0.00    +0.000 C 
DOCKED: ATOM     15  N   UNL     1      19.441 -19.442  -0.020 -0.77 -0.00    +0.000 N 
DOCKED: ATOM     16  H   UNL     1      19.606 -19.099   0.887 -0.18 -0.00    +0.000 HD
DOCKED: BRANCH  15  17
DOCKED: ATOM     17  O   UNL     1      18.294 -20.112  -0.289 -0.83 -0.00    +0.000 OA
DOCKED: ATOM     18  H   UNL     1      18.277 -20.360  -1.227 -0.38 -0.00    +0.000 HD
DOCKED: ENDBRANCH  15  17
DOCKED: ENDBRANCH  11  14
DOCKED: ENDBRANCH   5  12
DOCKED: ENDBRANCH   4   8
DOCKED: ENDBRANCH   1   4
DOCKED: BRANCH   1  19
DOCKED: ATOM     19  C   UNL     1      30.127 -15.839  -0.278 -0.16 -0.00    +0.000 C 
DOCKED: BRANCH  19  20
DOCKED: ATOM     20  C   UNL     1      30.579 -15.175  -1.589 -0.07 -0.00    +0.000 C 
DOCKED: BRANCH  20  21
DOCKED: ATOM     21  C   UNL     1      29.678 -15.585  -2.720 -0.13 -0.00    +0.000 A 
DOCKED: ATOM     22  C   UNL     1      29.877 -16.625  -3.629 -0.20 -0.00    +0.000 A 
DOCKED: ATOM     23  N   UNL     1      28.886 -16.649  -4.552 -0.20 -0.00    +0.000 N 
DOCKED: ATOM     24  C   UNL     1      28.075 -15.621  -4.247 -0.30 -0.00    +0.000 A 
DOCKED: ATOM     25  C   UNL     1      28.528 -14.945  -3.141 -0.17 -0.00    +0.000 A 
DOCKED: ATOM     26  C   UNL     1      27.866 -13.823  -2.644 -0.15 -0.00    +0.000 A 
DOCKED: ATOM     27  C   UNL     1      26.700 -13.401  -3.310 -0.25 -0.00    +0.000 A 
DOCKED: ATOM     28  C   UNL     1      26.231 -14.098  -4.445 -0.41 -0.00    +0.000 A 
DOCKED: ATOM     29  C   UNL     1      26.924 -15.224  -4.926 -0.46 -0.00    +0.000 A 
DOCKED: ATOM     30  C   UNL     1      31.012 -17.599  -3.608 -0.18 -0.00    +0.000 C 
DOCKED: ATOM     31  H   UNL     1      28.783 -17.287  -5.295 -0.02 -0.00    +0.000 HD
DOCKED: ENDBRANCH  20  21
DOCKED: ENDBRANCH  19  20
DOCKED: ENDBRANCH   1  19
DOCKED: TORSDOF 8
DOCKED: TER
DOCKED: ENDMDL
________________________________________________________________________________


	BEGINNING GENETIC ALGORITHM DOCKING 7 of 100
Run: 7 Seed: 167599098 680569188 [ Run 7 of 100 GA/GALS ]
Beginning LAMARCKIAN GENETIC ALGORITHM (LGA), with a maximum of 2500000 energy evaluations.

Final-Value: -15.703


	FINAL GENETIC ALGORITHM DOCKED STATE
	_______________________________________________


Detailed state:  trans 29.495 -16.790 0.218 quatxyzw -0.650764 -0.296303 -0.684695 -0.141082 center 0.693 0.091 0.076 ntor 8 6.2130 87.5196 -117.2191 -165.7317 60.9375 118.3128 -179.9190 -109.5194
State:	 29.495 -16.790   0.218  -0.657 -0.299 -0.692 -163.779      6.21   87.52 -117.22 -165.73   60.94  118.31 -179.92 -109.52

DOCKED: MODEL        7
DOCKED: USER    Run = 7
DOCKED: USER    DPF = ligand_dock.biased.dpf
DOCKED: USER  
DOCKED: USER    Estimated Free Energy of Binding    =  -11.01 kcal/mol  [=(1)+(2)+(3)-(4)]
DOCKED: USER    Estimated Inhibition Constant, Ki   =    8.53 nM (nanomolar)  [Temperature = 298.15 K]
DOCKED: USER    
DOCKED: USER    (1) Final Intermolecular Energy     =  -13.39 kcal/mol
DOCKED: USER        vdW + Hbond + desolv Energy     =  -13.39 kcal/mol
DOCKED: USER        Electrostatic Energy            =   +0.00 kcal/mol
DOCKED: USER    (2) Final Total Internal Energy     =   -2.31 kcal/mol
DOCKED: USER    (3) Torsional Free Energy           =   +2.39 kcal/mol
DOCKED: USER    (4) Unbound System's Energy  [=(2)] =   -2.31 kcal/mol
DOCKED: USER    
DOCKED: USER    
DOCKED: USER    NEWDPF move ligand.pdbqt
DOCKED: USER    NEWDPF about 0.693000 0.091000 0.076000
DOCKED: USER    NEWDPF tran0 29.495209 -16.789785 0.218466
DOCKED: USER    NEWDPF quaternion0 -0.650764 -0.296303 -0.684695 -0.141082
DOCKED: USER    NEWDPF axisangle0 -0.657339 -0.299297 -0.691612 -163.779035
DOCKED: USER    NEWDPF quat0 -0.657339 -0.299297 -0.691612 -163.779035
DOCKED: USER    NEWDPF dihe0 6.21 87.52 -117.22 -165.73 60.94 118.31 -179.92 -109.52 
DOCKED: USER  keepresnum = 1 
DOCKED: USER  
DOCKED: REMARK  Name = 
DOCKED: REMARK  9 active torsions:
DOCKED: REMARK  status: ('A' for Active; 'I' for Inactive)
DOCKED: REMARK    1  A    between atoms: C_2  and  C_3
DOCKED: REMARK    2  A    between atoms: C_4  and  C_5
DOCKED: REMARK    3  A    between atoms: C_8  and  C_9
DOCKED: REMARK    4  A    between atoms: C_9  and  N_10
DOCKED: REMARK    5  A    between atoms: N_10  and  C_11
DOCKED: REMARK    6  A    between atoms: C_11  and  C_12
DOCKED: REMARK    7  A    between atoms: C_12  and  C_13
DOCKED: REMARK    8  A    between atoms: C_14  and  C_22
DOCKED: REMARK    9  A    between atoms: N_25  and  O_26
DOCKED: REMARK                            x       y       z     vdW  Elec       q    Type
DOCKED: REMARK                         _______ _______ _______ _____ _____    ______ ____
DOCKED: USER                              x       y       z     vdW  Elec       q    Type
DOCKED: USER                           _______ _______ _______ _____ _____    ______ ____
DOCKED: ROOT
DOCKED: ATOM      1  N   UNL     1      29.914 -17.581  -0.603 -0.22 -0.00    +0.000 N 
DOCKED: ATOM      2  H   UNL     1      29.451 -18.451  -0.335 -0.60 -0.00    +0.000 HD
DOCKED: ATOM      3  H   UNL     1      30.750 -17.416  -0.042 -0.05 -0.00    +0.000 HD
DOCKED: ENDROOT
DOCKED: BRANCH   1   4
DOCKED: ATOM      4  C   UNL     1      28.990 -16.464  -0.368 -0.24 -0.00    +0.000 C 
DOCKED: BRANCH   4   8
DOCKED: ATOM      5  C   UNL     1      24.926 -17.628  -1.280 -0.61 -0.00    +0.000 A 
DOCKED: ATOM      6  C   UNL     1      25.738 -17.029  -2.264 -0.36 -0.00    +0.000 A 
DOCKED: ATOM      7  C   UNL     1      27.053 -16.659  -1.968 -0.34 -0.00    +0.000 A 
DOCKED: ATOM      8  C   UNL     1      27.588 -16.898  -0.694 -0.38 -0.00    +0.000 A 
DOCKED: ATOM      9  C   UNL     1      26.784 -17.494   0.288 -0.29 -0.00    +0.000 A 
DOCKED: ATOM     10  C   UNL     1      25.469 -17.865  -0.006 -0.55 -0.00    +0.000 A 
DOCKED: BRANCH   5  12
DOCKED: ATOM     11  C   UNL     1      22.532 -17.911  -0.667 -0.82 -0.00    +0.000 C 
DOCKED: ATOM     12  C   UNL     1      23.530 -18.051  -1.549 -0.69 -0.00    +0.000 C 
DOCKED: BRANCH  11  14
DOCKED: ATOM     13  O   UNL     1      20.254 -17.475  -1.080 -2.00 -0.00    +0.000 OA
DOCKED: ATOM     14  C   UNL     1      21.147 -18.351  -0.934 -0.74 -0.00    +0.000 C 
DOCKED: ATOM     15  N   UNL     1      20.799 -19.736  -1.066 -0.80 -0.00    +0.000 N 
DOCKED: ATOM     16  H   UNL     1      21.504 -20.421  -1.063 -0.18 -0.00    +0.000 HD
DOCKED: BRANCH  15  17
DOCKED: ATOM     17  O   UNL     1      19.501 -20.103  -1.194 -1.26 -0.00    +0.000 OA
DOCKED: ATOM     18  H   UNL     1      18.948 -19.311  -1.277 -0.48 -0.00    +0.000 HD
DOCKED: ENDBRANCH  15  17
DOCKED: ENDBRANCH  11  14
DOCKED: ENDBRANCH   5  12
DOCKED: ENDBRANCH   4   8
DOCKED: ENDBRANCH   1   4
DOCKED: BRANCH   1  19
DOCKED: ATOM     19  C   UNL     1      30.328 -17.680  -2.010 -0.20 -0.00    +0.000 C 
DOCKED: BRANCH  19  20
DOCKED: ATOM     20  C   UNL     1      30.717 -16.316  -2.605 -0.12 -0.00    +0.000 C 
DOCKED: BRANCH  20  21
DOCKED: ATOM     21  C   UNL     1      29.755 -15.925  -3.690 -0.17 -0.00    +0.000 A 
DOCKED: ATOM     22  C   UNL     1      29.662 -16.460  -4.976 -0.28 -0.00    +0.000 A 
DOCKED: ATOM     23  N   UNL     1      28.719 -15.808  -5.698 -0.36 -0.00    +0.000 N 
DOCKED: ATOM     24  C   UNL     1      28.231 -14.853  -4.888 -0.31 -0.00    +0.000 A 
DOCKED: ATOM     25  C   UNL     1      28.841 -14.889  -3.658 -0.17 -0.00    +0.000 A 
DOCKED: ATOM     26  C   UNL     1      28.519 -13.978  -2.652 -0.11 -0.00    +0.000 A 
DOCKED: ATOM     27  C   UNL     1      27.532 -13.014  -2.931 -0.15 -0.00    +0.000 A 
DOCKED: ATOM     28  C   UNL     1      26.901 -12.980  -4.194 -0.25 -0.00    +0.000 A 
DOCKED: ATOM     29  C   UNL     1      27.251 -13.908  -5.191 -0.29 -0.00    +0.000 A 
DOCKED: ATOM     30  C   UNL     1      30.471 -17.598  -5.509 -0.32 -0.00    +0.000 C 
DOCKED: ATOM     31  H   UNL     1      28.449 -15.994  -6.626 -0.05 +0.00    +0.000 HD
DOCKED: ENDBRANCH  20  21
DOCKED: ENDBRANCH  19  20
DOCKED: ENDBRANCH   1  19
DOCKED: TORSDOF 8
DOCKED: TER
DOCKED: ENDMDL
________________________________________________________________________________


	BEGINNING GENETIC ALGORITHM DOCKING 8 of 100
Run: 8 Seed: 1179659980 1240477752 [ Run 8 of 100 GA/GALS ]
Beginning LAMARCKIAN GENETIC ALGORITHM (LGA), with a maximum of 2500000 energy evaluations.

Final-Value: -16.611


	FINAL GENETIC ALGORITHM DOCKED STATE
	_______________________________________________


Detailed state:  trans 28.555 -15.312 0.147 quatxyzw 0.120159 -0.848271 -0.499845 0.127093 center 0.693 0.091 0.076 ntor 8 11.6324 122.5351 56.8934 170.0270 -146.5492 -150.9508 169.9319 -13.8057
State:	 28.555 -15.312   0.147   0.121 -0.855 -0.504 165.397     11.63  122.54   56.89  170.03 -146.55 -150.95  169.93  -13.81

DOCKED: MODEL        8
DOCKED: USER    Run = 8
DOCKED: USER    DPF = ligand_dock.biased.dpf
DOCKED: USER  
DOCKED: USER    Estimated Free Energy of Binding    =  -12.36 kcal/mol  [=(1)+(2)+(3)-(4)]
DOCKED: USER    Estimated Inhibition Constant, Ki   =  867.93 pM (picomolar)  [Temperature = 298.15 K]
DOCKED: USER    
DOCKED: USER    (1) Final Intermolecular Energy     =  -14.75 kcal/mol
DOCKED: USER        vdW + Hbond + desolv Energy     =  -14.75 kcal/mol
DOCKED: USER        Electrostatic Energy            =   +0.00 kcal/mol
DOCKED: USER    (2) Final Total Internal Energy     =   -1.86 kcal/mol
DOCKED: USER    (3) Torsional Free Energy           =   +2.39 kcal/mol
DOCKED: USER    (4) Unbound System's Energy  [=(2)] =   -1.86 kcal/mol
DOCKED: USER    
DOCKED: USER    
DOCKED: USER    NEWDPF move ligand.pdbqt
DOCKED: USER    NEWDPF about 0.693000 0.091000 0.076000
DOCKED: USER    NEWDPF tran0 28.554739 -15.311642 0.146714
DOCKED: USER    NEWDPF quaternion0 0.120159 -0.848271 -0.499845 0.127093
DOCKED: USER    NEWDPF axisangle0 0.121142 -0.855206 -0.503932 165.396678
DOCKED: USER    NEWDPF quat0 0.121142 -0.855206 -0.503932 165.396678
DOCKED: USER    NEWDPF dihe0 11.63 122.54 56.89 170.03 -146.55 -150.95 169.93 -13.81 
DOCKED: USER  keepresnum = 1 
DOCKED: USER  
DOCKED: REMARK  Name = 
DOCKED: REMARK  9 active torsions:
DOCKED: REMARK  status: ('A' for Active; 'I' for Inactive)
DOCKED: REMARK    1  A    between atoms: C_2  and  C_3
DOCKED: REMARK    2  A    between atoms: C_4  and  C_5
DOCKED: REMARK    3  A    between atoms: C_8  and  C_9
DOCKED: REMARK    4  A    between atoms: C_9  and  N_10
DOCKED: REMARK    5  A    between atoms: N_10  and  C_11
DOCKED: REMARK    6  A    between atoms: C_11  and  C_12
DOCKED: REMARK    7  A    between atoms: C_12  and  C_13
DOCKED: REMARK    8  A    between atoms: C_14  and  C_22
DOCKED: REMARK    9  A    between atoms: N_25  and  O_26
DOCKED: REMARK                            x       y       z     vdW  Elec       q    Type
DOCKED: REMARK                         _______ _______ _______ _____ _____    ______ ____
DOCKED: USER                              x       y       z     vdW  Elec       q    Type
DOCKED: USER                           _______ _______ _______ _____ _____    ______ ____
DOCKED: ROOT
DOCKED: ATOM      1  N   UNL     1      29.258 -15.010   1.091 -0.11 -0.00    +0.000 N 
DOCKED: ATOM      2  H   UNL     1      28.879 -15.582   1.847 -1.47 -0.00    +0.000 HD
DOCKED: ATOM      3  H   UNL     1      28.718 -14.154   0.964 -0.10 -0.00    +0.000 HD
DOCKED: ENDROOT
DOCKED: BRANCH   1   4
DOCKED: ATOM      4  C   UNL     1      29.184 -15.775  -0.161 -0.20 -0.00    +0.000 C 
DOCKED: BRANCH   4   8
DOCKED: ATOM      5  C   UNL     1      25.090 -16.841  -1.057 -0.56 -0.00    +0.000 A 
DOCKED: ATOM      6  C   UNL     1      25.976 -17.794  -0.514 -0.57 -0.00    +0.000 A 
DOCKED: ATOM      7  C   UNL     1      27.297 -17.445  -0.220 -0.37 -0.00    +0.000 A 
DOCKED: ATOM      8  C   UNL     1      27.752 -16.137  -0.442 -0.31 -0.00    +0.000 A 
DOCKED: ATOM      9  C   UNL     1      26.874 -15.186  -0.982 -0.30 -0.00    +0.000 A 
DOCKED: ATOM     10  C   UNL     1      25.552 -15.533  -1.276 -0.39 -0.00    +0.000 A 
DOCKED: BRANCH   5  12
DOCKED: ATOM     11  C   UNL     1      22.939 -18.029  -0.668 -0.82 -0.00    +0.000 C 
DOCKED: ATOM     12  C   UNL     1      23.676 -17.159  -1.372 -0.63 -0.00    +0.000 C 
DOCKED: BRANCH  11  14
DOCKED: ATOM     13  O   UNL     1      20.639 -17.522  -0.707 -2.11 +0.00    +0.000 OA
DOCKED: ATOM     14  C   UNL     1      21.537 -18.356  -0.998 -0.76 -0.00    +0.000 C 
DOCKED: ATOM     15  N   UNL     1      21.174 -19.571  -1.668 -0.66 -0.00    +0.000 N 
DOCKED: ATOM     16  H   UNL     1      21.875 -20.177  -1.998 -0.50 -0.00    +0.000 HD
DOCKED: BRANCH  15  17
DOCKED: ATOM     17  O   UNL     1      19.869 -19.886  -1.848 -1.82 -0.00    +0.000 OA
DOCKED: ATOM     18  H   UNL     1      19.318 -19.116  -1.638 -0.41 -0.00    +0.000 HD
DOCKED: ENDBRANCH  15  17
DOCKED: ENDBRANCH  11  14
DOCKED: ENDBRANCH   5  12
DOCKED: ENDBRANCH   4   8
DOCKED: ENDBRANCH   1   4
DOCKED: BRANCH   1  19
DOCKED: ATOM     19  C   UNL     1      30.636 -14.628   1.433 -0.13 -0.00    +0.000 C 
DOCKED: BRANCH  19  20
DOCKED: ATOM     20  C   UNL     1      30.739 -13.170   1.912 -0.07 -0.00    +0.000 C 
DOCKED: BRANCH  20  21
DOCKED: ATOM     21  C   UNL     1      29.548 -12.811   2.754 -0.12 -0.00    +0.000 A 
DOCKED: ATOM     22  C   UNL     1      28.394 -12.137   2.350 -0.15 -0.00    +0.000 A 
DOCKED: ATOM     23  N   UNL     1      27.567 -11.931   3.403 -0.28 +0.00    +0.000 N 
DOCKED: ATOM     24  C   UNL     1      28.197 -12.450   4.471 -0.32 -0.00    +0.000 A 
DOCKED: ATOM     25  C   UNL     1      29.409 -12.989   4.117 -0.20 -0.00    +0.000 A 
DOCKED: ATOM     26  C   UNL     1      30.259 -13.566   5.061 -0.26 -0.00    +0.000 A 
DOCKED: ATOM     27  C   UNL     1      29.832 -13.590   6.401 -0.28 -0.00    +0.000 A 
DOCKED: ATOM     28  C   UNL     1      28.583 -13.040   6.765 -0.34 -0.00    +0.000 A 
DOCKED: ATOM     29  C   UNL     1      27.750 -12.459   5.791 -0.35 +0.00    +0.000 A 
DOCKED: ATOM     30  C   UNL     1      28.083 -11.698   0.955 -0.14 -0.00    +0.000 C 
DOCKED: ATOM     31  H   UNL     1      26.687 -11.491   3.388 -0.02 +0.00    +0.000 HD
DOCKED: ENDBRANCH  20  21
DOCKED: ENDBRANCH  19  20
DOCKED: ENDBRANCH   1  19
DOCKED: TORSDOF 8
DOCKED: TER
DOCKED: ENDMDL
________________________________________________________________________________


	BEGINNING GENETIC ALGORITHM DOCKING 9 of 100
Run: 9 Seed: 1589716954 1336056037 [ Run 9 of 100 GA/GALS ]
Beginning LAMARCKIAN GENETIC ALGORITHM (LGA), with a maximum of 2500000 energy evaluations.

Final-Value: -15.540


	FINAL GENETIC ALGORITHM DOCKED STATE
	_______________________________________________


Detailed state:  trans 28.392 -16.441 -2.504 quatxyzw 0.321384 -0.380933 0.232183 0.835281 center 0.693 0.091 0.076 ntor 8 18.5780 -46.6701 -79.4254 -23.4456 69.1917 -179.0507 123.1878 -137.8977
State:	 28.392 -16.441  -2.504   0.585 -0.693  0.422 66.710     18.58  -46.67  -79.43  -23.45   69.19 -179.05  123.19 -137.90

DOCKED: MODEL        9
DOCKED: USER    Run = 9
DOCKED: USER    DPF = ligand_dock.biased.dpf
DOCKED: USER  
DOCKED: USER    Estimated Free Energy of Binding    =  -11.54 kcal/mol  [=(1)+(2)+(3)-(4)]
DOCKED: USER    Estimated Inhibition Constant, Ki   =    3.48 nM (nanomolar)  [Temperature = 298.15 K]
DOCKED: USER    
DOCKED: USER    (1) Final Intermolecular Energy     =  -13.93 kcal/mol
DOCKED: USER        vdW + Hbond + desolv Energy     =  -13.93 kcal/mol
DOCKED: USER        Electrostatic Energy            =   +0.00 kcal/mol
DOCKED: USER    (2) Final Total Internal Energy     =   -1.61 kcal/mol
DOCKED: USER    (3) Torsional Free Energy           =   +2.39 kcal/mol
DOCKED: USER    (4) Unbound System's Energy  [=(2)] =   -1.61 kcal/mol
DOCKED: USER    
DOCKED: USER    
DOCKED: USER    NEWDPF move ligand.pdbqt
DOCKED: USER    NEWDPF about 0.693000 0.091000 0.076000
DOCKED: USER    NEWDPF tran0 28.392146 -16.440541 -2.503878
DOCKED: USER    NEWDPF quaternion0 0.321384 -0.380933 0.232183 0.835281
DOCKED: USER    NEWDPF axisangle0 0.584521 -0.692827 0.422286 66.709877
DOCKED: USER    NEWDPF quat0 0.584521 -0.692827 0.422286 66.709877
DOCKED: USER    NEWDPF dihe0 18.58 -46.67 -79.43 -23.45 69.19 -179.05 123.19 -137.90 
DOCKED: USER  keepresnum = 1 
DOCKED: USER  
DOCKED: REMARK  Name = 
DOCKED: REMARK  9 active torsions:
DOCKED: REMARK  status: ('A' for Active; 'I' for Inactive)
DOCKED: REMARK    1  A    between atoms: C_2  and  C_3
DOCKED: REMARK    2  A    between atoms: C_4  and  C_5
DOCKED: REMARK    3  A    between atoms: C_8  and  C_9
DOCKED: REMARK    4  A    between atoms: C_9  and  N_10
DOCKED: REMARK    5  A    between atoms: N_10  and  C_11
DOCKED: REMARK    6  A    between atoms: C_11  and  C_12
DOCKED: REMARK    7  A    between atoms: C_12  and  C_13
DOCKED: REMARK    8  A    between atoms: C_14  and  C_22
DOCKED: REMARK    9  A    between atoms: N_25  and  O_26
DOCKED: REMARK                            x       y       z     vdW  Elec       q    Type
DOCKED: REMARK                         _______ _______ _______ _____ _____    ______ ____
DOCKED: USER                              x       y       z     vdW  Elec       q    Type
DOCKED: USER                           _______ _______ _______ _____ _____    ______ ____
DOCKED: ROOT
DOCKED: ATOM      1  N   UNL     1      27.801 -15.381  -2.558 -0.23 -0.00    +0.000 N 
DOCKED: ATOM      2  H   UNL     1      27.256 -15.469  -3.416 -0.01 -0.00    +0.000 HD
DOCKED: ATOM      3  H   UNL     1      28.757 -15.084  -2.753 +0.01 -0.00    +0.000 HD
DOCKED: ENDROOT
DOCKED: BRANCH   1   4
DOCKED: ATOM      4  C   UNL     1      27.864 -16.692  -1.902 -0.35 -0.00    +0.000 C 
DOCKED: BRANCH   4   8
DOCKED: ATOM      5  C   UNL     1      23.900 -17.948  -0.714 -0.71 -0.00    +0.000 A 
DOCKED: ATOM      6  C   UNL     1      25.030 -18.344   0.030 -0.52 -0.00    +0.000 A 
DOCKED: ATOM      7  C   UNL     1      26.309 -17.932  -0.353 -0.56 -0.00    +0.000 A 
DOCKED: ATOM      8  C   UNL     1      26.483 -17.102  -1.471 -0.45 -0.00    +0.000 A 
DOCKED: ATOM      9  C   UNL     1      25.362 -16.706  -2.213 -0.52 -0.00    +0.000 A 
DOCKED: ATOM     10  C   UNL     1      24.081 -17.116  -1.831 -0.44 -0.00    +0.000 A 
DOCKED: BRANCH   5  12
DOCKED: ATOM     11  C   UNL     1      21.832 -19.307  -0.971 -0.79 -0.00    +0.000 C 
DOCKED: ATOM     12  C   UNL     1      22.521 -18.347  -0.339 -0.84 -0.00    +0.000 C 
DOCKED: BRANCH  11  14
DOCKED: ATOM     13  O   UNL     1      19.529 -19.480  -1.439 -1.48 -0.00    +0.000 OA
DOCKED: ATOM     14  C   UNL     1      20.452 -19.687  -0.606 -0.88 -0.00    +0.000 C 
DOCKED: ATOM     15  N   UNL     1      20.139 -20.311   0.646 -0.69 -0.00    +0.000 N 
DOCKED: ATOM     16  H   UNL     1      20.863 -20.576   1.257 -0.55 -0.00    +0.000 HD
DOCKED: BRANCH  15  17
DOCKED: ATOM     17  O   UNL     1      18.848 -20.537   0.992 -0.78 -0.00    +0.000 OA
DOCKED: ATOM     18  H   UNL     1      18.290 -20.500   0.199 -0.05 -0.00    +0.000 HD
DOCKED: ENDBRANCH  15  17
DOCKED: ENDBRANCH  11  14
DOCKED: ENDBRANCH   5  12
DOCKED: ENDBRANCH   4   8
DOCKED: ENDBRANCH   1   4
DOCKED: BRANCH   1  19
DOCKED: ATOM     19  C   UNL     1      27.178 -14.357  -1.706 -0.26 -0.00    +0.000 C 
DOCKED: BRANCH  19  20
DOCKED: ATOM     20  C   UNL     1      28.197 -13.334  -1.174 -0.13 -0.00    +0.000 C 
DOCKED: BRANCH  20  21
DOCKED: ATOM     21  C   UNL     1      28.465 -13.573   0.284 -0.13 -0.00    +0.000 A 
DOCKED: ATOM     22  C   UNL     1      29.132 -14.657   0.859 -0.15 -0.00    +0.000 A 
DOCKED: ATOM     23  N   UNL     1      29.120 -14.563   2.210 -0.14 -0.00    +0.000 N 
DOCKED: ATOM     24  C   UNL     1      28.434 -13.443   2.495 -0.23 -0.00    +0.000 A 
DOCKED: ATOM     25  C   UNL     1      28.013 -12.816   1.348 -0.17 -0.00    +0.000 A 
DOCKED: ATOM     26  C   UNL     1      27.259 -11.643   1.387 -0.22 +0.00    +0.000 A 
DOCKED: ATOM     27  C   UNL     1      26.944 -11.107   2.650 -0.28 +0.00    +0.000 A 
DOCKED: ATOM     28  C   UNL     1      27.380 -11.749   3.829 -0.20 +0.00    +0.000 A 
DOCKED: ATOM     29  C   UNL     1      28.135 -12.935   3.758 -0.31 -0.00    +0.000 A 
DOCKED: ATOM     30  C   UNL     1      29.786 -15.775   0.113 -0.14 -0.00    +0.000 C 
DOCKED: ATOM     31  H   UNL     1      29.528 -15.189   2.852 -1.76 -0.00    +0.000 HD
DOCKED: ENDBRANCH  20  21
DOCKED: ENDBRANCH  19  20
DOCKED: ENDBRANCH   1  19
DOCKED: TORSDOF 8
DOCKED: TER
DOCKED: ENDMDL
________________________________________________________________________________


	BEGINNING GENETIC ALGORITHM DOCKING 10 of 100
Run: 10 Seed: 1522378925 93087862 [ Run 10 of 100 GA/GALS ]
Beginning LAMARCKIAN GENETIC ALGORITHM (LGA), with a maximum of 2500000 energy evaluations.

Final-Value: -16.797


	FINAL GENETIC ALGORITHM DOCKED STATE
	_______________________________________________


Detailed state:  trans 28.861 -15.446 0.438 quatxyzw 0.249704 -0.581059 -0.763048 -0.133325 center 0.693 0.091 0.076 ntor 8 -148.8589 144.6406 47.8119 1.6977 147.0316 -162.9227 -168.1387 14.9204
State:	 28.861 -15.446   0.438   0.252 -0.586 -0.770 -164.676   -148.86  144.64   47.81    1.70  147.03 -162.92 -168.14   14.92

DOCKED: MODEL       10
DOCKED: USER    Run = 10
DOCKED: USER    DPF = ligand_dock.biased.dpf
DOCKED: USER  
DOCKED: USER    Estimated Free Energy of Binding    =  -12.31 kcal/mol  [=(1)+(2)+(3)-(4)]
DOCKED: USER    Estimated Inhibition Constant, Ki   =  952.88 pM (picomolar)  [Temperature = 298.15 K]
DOCKED: USER    
DOCKED: USER    (1) Final Intermolecular Energy     =  -14.69 kcal/mol
DOCKED: USER        vdW + Hbond + desolv Energy     =  -14.69 kcal/mol
DOCKED: USER        Electrostatic Energy            =   +0.00 kcal/mol
DOCKED: USER    (2) Final Total Internal Energy     =   -2.10 kcal/mol
DOCKED: USER    (3) Torsional Free Energy           =   +2.39 kcal/mol
DOCKED: USER    (4) Unbound System's Energy  [=(2)] =   -2.10 kcal/mol
DOCKED: USER    
DOCKED: USER    
DOCKED: USER    NEWDPF move ligand.pdbqt
DOCKED: USER    NEWDPF about 0.693000 0.091000 0.076000
DOCKED: USER    NEWDPF tran0 28.861420 -15.446471 0.438173
DOCKED: USER    NEWDPF quaternion0 0.249704 -0.581059 -0.763048 -0.133325
DOCKED: USER    NEWDPF axisangle0 0.251954 -0.586294 -0.769922 -164.676404
DOCKED: USER    NEWDPF quat0 0.251954 -0.586294 -0.769922 -164.676404
DOCKED: USER    NEWDPF dihe0 -148.86 144.64 47.81 1.70 147.03 -162.92 -168.14 14.92 
DOCKED: USER  keepresnum = 1 
DOCKED: USER  
DOCKED: REMARK  Name = 
DOCKED: REMARK  9 active torsions:
DOCKED: REMARK  status: ('A' for Active; 'I' for Inactive)
DOCKED: REMARK    1  A    between atoms: C_2  and  C_3
DOCKED: REMARK    2  A    between atoms: C_4  and  C_5
DOCKED: REMARK    3  A    between atoms: C_8  and  C_9
DOCKED: REMARK    4  A    between atoms: C_9  and  N_10
DOCKED: REMARK    5  A    between atoms: N_10  and  C_11
DOCKED: REMARK    6  A    between atoms: C_11  and  C_12
DOCKED: REMARK    7  A    between atoms: C_12  and  C_13
DOCKED: REMARK    8  A    between atoms: C_14  and  C_22
DOCKED: REMARK    9  A    between atoms: N_25  and  O_26
DOCKED: REMARK                            x       y       z     vdW  Elec       q    Type
DOCKED: REMARK                         _______ _______ _______ _____ _____    ______ ____
DOCKED: USER                              x       y       z     vdW  Elec       q    Type
DOCKED: USER                           _______ _______ _______ _____ _____    ______ ____
DOCKED: ROOT
DOCKED: ATOM      1  N   UNL     1      29.701 -15.240   1.292 +0.06 -0.00    +0.000 N 
DOCKED: ATOM      2  H   UNL     1      30.015 -16.181   1.532 -0.75 -0.00    +0.000 HD
DOCKED: ATOM      3  H   UNL     1      28.847 -14.994   1.791 -1.20 -0.00    +0.000 HD
DOCKED: ENDROOT
DOCKED: BRANCH   1   4
DOCKED: ATOM      4  C   UNL     1      29.409 -15.194  -0.147 -0.17 -0.00    +0.000 C 
DOCKED: BRANCH   4   8
DOCKED: ATOM      5  C   UNL     1      25.323 -16.386  -0.911 -0.47 -0.00    +0.000 A 
DOCKED: ATOM      6  C   UNL     1      26.322 -17.355  -0.690 -0.52 -0.00    +0.000 A 
DOCKED: ATOM      7  C   UNL     1      27.641 -16.967  -0.437 -0.37 -0.00    +0.000 A 
DOCKED: ATOM      8  C   UNL     1      27.982 -15.607  -0.381 -0.26 -0.00    +0.000 A 
DOCKED: ATOM      9  C   UNL     1      26.991 -14.640  -0.600 -0.26 -0.00    +0.000 A 
DOCKED: ATOM     10  C   UNL     1      25.671 -15.027  -0.852 -0.27 -0.00    +0.000 A 
DOCKED: BRANCH   5  12
DOCKED: ATOM     11  C   UNL     1      23.357 -17.905  -0.777 -0.80 -0.00    +0.000 C 
DOCKED: ATOM     12  C   UNL     1      23.907 -16.748  -1.169 -0.58 -0.00    +0.000 C 
DOCKED: BRANCH  11  14
DOCKED: ATOM     13  O   UNL     1      21.044 -17.468  -0.704 -2.03 -0.00    +0.000 OA
DOCKED: ATOM     14  C   UNL     1      21.952 -18.268  -1.053 -0.76 -0.00    +0.000 C 
DOCKED: ATOM     15  N   UNL     1      21.597 -19.479  -1.732 -0.54 -0.00    +0.000 N 
DOCKED: ATOM     16  H   UNL     1      22.299 -20.057  -2.105 -0.52 -0.00    +0.000 HD
DOCKED: BRANCH  15  17
DOCKED: ATOM     17  O   UNL     1      20.294 -19.831  -1.862 -1.81 -0.00    +0.000 OA
DOCKED: ATOM     18  H   UNL     1      20.220 -20.798  -1.870 -0.54 -0.00    +0.000 HD
DOCKED: ENDBRANCH  15  17
DOCKED: ENDBRANCH  11  14
DOCKED: ENDBRANCH   5  12
DOCKED: ENDBRANCH   4   8
DOCKED: ENDBRANCH   1   4
DOCKED: BRANCH   1  19
DOCKED: ATOM     19  C   UNL     1      30.743 -14.279   1.682 -0.13 -0.00    +0.000 C 
DOCKED: BRANCH  19  20
DOCKED: ATOM     20  C   UNL     1      30.275 -13.322   2.792 -0.14 -0.00    +0.000 C 
DOCKED: BRANCH  20  21
DOCKED: ATOM     21  C   UNL     1      28.788 -13.124   2.718 -0.19 -0.00    +0.000 A 
DOCKED: ATOM     22  C   UNL     1      27.801 -13.824   3.414 -0.39 -0.00    +0.000 A 
DOCKED: ATOM     23  N   UNL     1      26.567 -13.414   3.037 -0.28 -0.00    +0.000 N 
DOCKED: ATOM     24  C   UNL     1      26.764 -12.477   2.095 -0.30 +0.00    +0.000 A 
DOCKED: ATOM     25  C   UNL     1      28.103 -12.276   1.868 -0.16 -0.00    +0.000 A 
DOCKED: ATOM     26  C   UNL     1      28.558 -11.366   0.913 -0.07 -0.00    +0.000 A 
DOCKED: ATOM     27  C   UNL     1      27.596 -10.643   0.186 -0.12 +0.00    +0.000 A 
DOCKED: ATOM     28  C   UNL     1      26.218 -10.845   0.422 -0.23 +0.00    +0.000 A 
DOCKED: ATOM     29  C   UNL     1      25.789 -11.774   1.387 -0.32 +0.00    +0.000 A 
DOCKED: ATOM     30  C   UNL     1      28.044 -14.881   4.445 -0.59 -0.00    +0.000 C 
DOCKED: ATOM     31  H   UNL     1      25.704 -13.738   3.381 +0.02 +0.00    +0.000 HD
DOCKED: ENDBRANCH  20  21
DOCKED: ENDBRANCH  19  20
DOCKED: ENDBRANCH   1  19
DOCKED: TORSDOF 8
DOCKED: TER
DOCKED: ENDMDL
________________________________________________________________________________


	BEGINNING GENETIC ALGORITHM DOCKING 11 of 100
Run: 11 Seed: 434894009 211327470 [ Run 11 of 100 GA/GALS ]
Beginning LAMARCKIAN GENETIC ALGORITHM (LGA), with a maximum of 2500000 energy evaluations.

Final-Value: -16.671


	FINAL GENETIC ALGORITHM DOCKED STATE
	_______________________________________________


Detailed state:  trans 28.435 -15.665 0.119 quatxyzw 0.183066 -0.472285 -0.843896 -0.176843 center 0.693 0.091 0.076 ntor 8 64.0090 97.3098 140.4747 18.0885 138.1121 -167.4716 -144.5117 0.1992
State:	 28.435 -15.665   0.119   0.186 -0.480 -0.857 -159.628     64.01   97.31  140.47   18.09  138.11 -167.47 -144.51    0.20

DOCKED: MODEL       11
DOCKED: USER    Run = 11
DOCKED: USER    DPF = ligand_dock.biased.dpf
DOCKED: USER  
DOCKED: USER    Estimated Free Energy of Binding    =  -12.16 kcal/mol  [=(1)+(2)+(3)-(4)]
DOCKED: USER    Estimated Inhibition Constant, Ki   =    1.21 nM (nanomolar)  [Temperature = 298.15 K]
DOCKED: USER    
DOCKED: USER    (1) Final Intermolecular Energy     =  -14.55 kcal/mol
DOCKED: USER        vdW + Hbond + desolv Energy     =  -14.55 kcal/mol
DOCKED: USER        Electrostatic Energy            =   +0.00 kcal/mol
DOCKED: USER    (2) Final Total Internal Energy     =   -2.12 kcal/mol
DOCKED: USER    (3) Torsional Free Energy           =   +2.39 kcal/mol
DOCKED: USER    (4) Unbound System's Energy  [=(2)] =   -2.12 kcal/mol
DOCKED: USER    
DOCKED: USER    
DOCKED: USER    NEWDPF move ligand.pdbqt
DOCKED: USER    NEWDPF about 0.693000 0.091000 0.076000
DOCKED: USER    NEWDPF tran0 28.434703 -15.664609 0.118575
DOCKED: USER    NEWDPF quaternion0 0.183066 -0.472285 -0.843896 -0.176843
DOCKED: USER    NEWDPF axisangle0 0.185998 -0.479848 -0.857409 -159.628171
DOCKED: USER    NEWDPF quat0 0.185998 -0.479848 -0.857409 -159.628171
DOCKED: USER    NEWDPF dihe0 64.01 97.31 140.47 18.09 138.11 -167.47 -144.51 0.20 
DOCKED: USER  keepresnum = 1 
DOCKED: USER  
DOCKED: REMARK  Name = 
DOCKED: REMARK  9 active torsions:
DOCKED: REMARK  status: ('A' for Active; 'I' for Inactive)
DOCKED: REMARK    1  A    between atoms: C_2  and  C_3
DOCKED: REMARK    2  A    between atoms: C_4  and  C_5
DOCKED: REMARK    3  A    between atoms: C_8  and  C_9
DOCKED: REMARK    4  A    between atoms: C_9  and  N_10
DOCKED: REMARK    5  A    between atoms: N_10  and  C_11
DOCKED: REMARK    6  A    between atoms: C_11  and  C_12
DOCKED: REMARK    7  A    between atoms: C_12  and  C_13
DOCKED: REMARK    8  A    between atoms: C_14  and  C_22
DOCKED: REMARK    9  A    between atoms: N_25  and  O_26
DOCKED: REMARK                            x       y       z     vdW  Elec       q    Type
DOCKED: REMARK                         _______ _______ _______ _____ _____    ______ ____
DOCKED: USER                              x       y       z     vdW  Elec       q    Type
DOCKED: USER                           _______ _______ _______ _____ _____    ______ ____
DOCKED: ROOT
DOCKED: ATOM      1  N   UNL     1      29.443 -15.608   0.794 +0.02 -0.00    +0.000 N 
DOCKED: ATOM      2  H   UNL     1      29.800 -16.563   0.747 -0.55 -0.00    +0.000 HD
DOCKED: ATOM      3  H   UNL     1      28.721 -15.515   1.508 -1.10 -0.00    +0.000 HD
DOCKED: ENDROOT
DOCKED: BRANCH   1   4
DOCKED: ATOM      4  C   UNL     1      28.840 -15.267  -0.500 -0.20 -0.00    +0.000 C 
DOCKED: BRANCH   4   8
DOCKED: ATOM      5  C   UNL     1      25.089 -17.356  -1.018 -0.60 -0.00    +0.000 A 
DOCKED: ATOM      6  C   UNL     1      26.277 -18.070  -0.762 -0.50 -0.00    +0.000 A 
DOCKED: ATOM      7  C   UNL     1      27.487 -17.392  -0.589 -0.40 -0.00    +0.000 A 
DOCKED: ATOM      8  C   UNL     1      27.530 -15.991  -0.649 -0.32 -0.00    +0.000 A 
DOCKED: ATOM      9  C   UNL     1      26.351 -15.277  -0.903 -0.34 -0.00    +0.000 A 
DOCKED: ATOM     10  C   UNL     1      25.139 -15.954  -1.075 -0.42 -0.00    +0.000 A 
DOCKED: BRANCH   5  12
DOCKED: ATOM     11  C   UNL     1      22.739 -17.850  -0.368 -0.81 -0.00    +0.000 C 
DOCKED: ATOM     12  C   UNL     1      23.778 -18.029  -1.194 -0.78 -0.00    +0.000 C 
DOCKED: BRANCH  11  14
DOCKED: ATOM     13  O   UNL     1      20.486 -17.902  -1.053 -2.20 -0.00    +0.000 OA
DOCKED: ATOM     14  C   UNL     1      21.443 -18.538  -0.537 -0.83 -0.00    +0.000 C 
DOCKED: ATOM     15  N   UNL     1      21.253 -19.910  -0.166 -0.61 -0.00    +0.000 N 
DOCKED: ATOM     16  H   UNL     1      22.020 -20.448   0.134 -0.58 -0.00    +0.000 HD
DOCKED: BRANCH  15  17
DOCKED: ATOM     17  O   UNL     1      20.020 -20.469  -0.229 -0.87 -0.00    +0.000 OA
DOCKED: ATOM     18  H   UNL     1      19.719 -20.485  -1.151 -0.51 -0.00    +0.000 HD
DOCKED: ENDBRANCH  15  17
DOCKED: ENDBRANCH  11  14
DOCKED: ENDBRANCH   5  12
DOCKED: ENDBRANCH   4   8
DOCKED: ENDBRANCH   1   4
DOCKED: BRANCH   1  19
DOCKED: ATOM     19  C   UNL     1      30.549 -14.707   1.151 -0.13 -0.00    +0.000 C 
DOCKED: BRANCH  19  20
DOCKED: ATOM     20  C   UNL     1      30.289 -13.950   2.465 -0.17 -0.00    +0.000 C 
DOCKED: BRANCH  20  21
DOCKED: ATOM     21  C   UNL     1      28.838 -13.574   2.574 -0.21 -0.00    +0.000 A 
DOCKED: ATOM     22  C   UNL     1      27.890 -14.095   3.455 -0.41 -0.00    +0.000 A 
DOCKED: ATOM     23  N   UNL     1      26.668 -13.564   3.213 -0.34 -0.00    +0.000 N 
DOCKED: ATOM     24  C   UNL     1      26.832 -12.728   2.173 -0.30 -0.00    +0.000 A 
DOCKED: ATOM     25  C   UNL     1      28.139 -12.712   1.752 -0.18 -0.00    +0.000 A 
DOCKED: ATOM     26  C   UNL     1      28.552 -11.936   0.668 -0.08 -0.00    +0.000 A 
DOCKED: ATOM     27  C   UNL     1      27.582 -11.153   0.015 -0.12 -0.00    +0.000 A 
DOCKED: ATOM     28  C   UNL     1      26.239 -11.165   0.451 -0.21 +0.00    +0.000 A 
DOCKED: ATOM     29  C   UNL     1      25.851 -11.962   1.543 -0.30 +0.00    +0.000 A 
DOCKED: ATOM     30  C   UNL     1      28.157 -15.097   4.533 -0.52 -0.00    +0.000 C 
DOCKED: ATOM     31  H   UNL     1      25.832 -13.752   3.697 -0.01 +0.00    +0.000 HD
DOCKED: ENDBRANCH  20  21
DOCKED: ENDBRANCH  19  20
DOCKED: ENDBRANCH   1  19
DOCKED: TORSDOF 8
DOCKED: TER
DOCKED: ENDMDL
________________________________________________________________________________


	BEGINNING GENETIC ALGORITHM DOCKING 12 of 100
Run: 12 Seed: 1388589573 1208038845 [ Run 12 of 100 GA/GALS ]
Beginning LAMARCKIAN GENETIC ALGORITHM (LGA), with a maximum of 2500000 energy evaluations.

Final-Value: -16.032


	FINAL GENETIC ALGORITHM DOCKED STATE
	_______________________________________________


Detailed state:  trans 28.712 -15.776 0.079 quatxyzw 0.165274 -0.563623 -0.796744 -0.142174 center 0.693 0.091 0.076 ntor 8 20.9466 -175.5645 -1.2176 133.5012 80.6593 -95.2192 -150.8466 11.6510
State:	 28.712 -15.776   0.079   0.167 -0.569 -0.805 -163.653     20.95 -175.56   -1.22  133.50   80.66  -95.22 -150.85   11.65

DOCKED: MODEL       12
DOCKED: USER    Run = 12
DOCKED: USER    DPF = ligand_dock.biased.dpf
DOCKED: USER  
DOCKED: USER    Estimated Free Energy of Binding    =  -12.06 kcal/mol  [=(1)+(2)+(3)-(4)]
DOCKED: USER    Estimated Inhibition Constant, Ki   =    1.44 nM (nanomolar)  [Temperature = 298.15 K]
DOCKED: USER    
DOCKED: USER    (1) Final Intermolecular Energy     =  -14.45 kcal/mol
DOCKED: USER        vdW + Hbond + desolv Energy     =  -14.45 kcal/mol
DOCKED: USER        Electrostatic Energy            =   +0.00 kcal/mol
DOCKED: USER    (2) Final Total Internal Energy     =   -1.58 kcal/mol
DOCKED: USER    (3) Torsional Free Energy           =   +2.39 kcal/mol
DOCKED: USER    (4) Unbound System's Energy  [=(2)] =   -1.58 kcal/mol
DOCKED: USER    
DOCKED: USER    
DOCKED: USER    NEWDPF move ligand.pdbqt
DOCKED: USER    NEWDPF about 0.693000 0.091000 0.076000
DOCKED: USER    NEWDPF tran0 28.712459 -15.775634 0.078938
DOCKED: USER    NEWDPF quaternion0 0.165274 -0.563623 -0.796744 -0.142174
DOCKED: USER    NEWDPF axisangle0 0.166970 -0.569407 -0.804921 -163.652629
DOCKED: USER    NEWDPF quat0 0.166970 -0.569407 -0.804921 -163.652629
DOCKED: USER    NEWDPF dihe0 20.95 -175.56 -1.22 133.50 80.66 -95.22 -150.85 11.65 
DOCKED: USER  keepresnum = 1 
DOCKED: USER  
DOCKED: REMARK  Name = 
DOCKED: REMARK  9 active torsions:
DOCKED: REMARK  status: ('A' for Active; 'I' for Inactive)
DOCKED: REMARK    1  A    between atoms: C_2  and  C_3
DOCKED: REMARK    2  A    between atoms: C_4  and  C_5
DOCKED: REMARK    3  A    between atoms: C_8  and  C_9
DOCKED: REMARK    4  A    between atoms: C_9  and  N_10
DOCKED: REMARK    5  A    between atoms: N_10  and  C_11
DOCKED: REMARK    6  A    between atoms: C_11  and  C_12
DOCKED: REMARK    7  A    between atoms: C_12  and  C_13
DOCKED: REMARK    8  A    between atoms: C_14  and  C_22
DOCKED: REMARK    9  A    between atoms: N_25  and  O_26
DOCKED: REMARK                            x       y       z     vdW  Elec       q    Type
DOCKED: REMARK                         _______ _______ _______ _____ _____    ______ ____
DOCKED: USER                              x       y       z     vdW  Elec       q    Type
DOCKED: USER                           _______ _______ _______ _____ _____    ______ ____
DOCKED: ROOT
DOCKED: ATOM      1  N   UNL     1      29.691 -15.677   0.792 +0.04 -0.00    +0.000 N 
DOCKED: ATOM      2  H   UNL     1      29.956 -16.650   0.948 -0.57 -0.00    +0.000 HD
DOCKED: ATOM      3  H   UNL     1      28.952 -15.385   1.430 -1.07 -0.00    +0.000 HD
DOCKED: ENDROOT
DOCKED: BRANCH   1   4
DOCKED: ATOM      4  C   UNL     1      29.180 -15.542  -0.578 -0.19 -0.00    +0.000 C 
DOCKED: BRANCH   4   8
DOCKED: ATOM      5  C   UNL     1      24.993 -16.610  -0.747 -0.48 -0.00    +0.000 A 
DOCKED: ATOM      6  C   UNL     1      25.962 -17.565  -0.375 -0.56 -0.00    +0.000 A 
DOCKED: ATOM      7  C   UNL     1      27.314 -17.215  -0.316 -0.41 -0.00    +0.000 A 
DOCKED: ATOM      8  C   UNL     1      27.721 -15.905  -0.606 -0.30 -0.00    +0.000 A 
DOCKED: ATOM      9  C   UNL     1      26.762 -14.952  -0.976 -0.29 -0.00    +0.000 A 
DOCKED: ATOM     10  C   UNL     1      25.409 -15.300  -1.035 -0.23 -0.00    +0.000 A 
DOCKED: BRANCH   5  12
DOCKED: ATOM     11  C   UNL     1      23.069 -18.165  -1.010 -0.81 -0.00    +0.000 C 
DOCKED: ATOM     12  C   UNL     1      23.546 -16.929  -0.811 -0.61 -0.00    +0.000 C 
DOCKED: BRANCH  11  14
DOCKED: ATOM     13  O   UNL     1      20.802 -17.602  -0.707 -2.14 -0.00    +0.000 OA
DOCKED: ATOM     14  C   UNL     1      21.627 -18.473  -1.091 -0.75 -0.00    +0.000 C 
DOCKED: ATOM     15  N   UNL     1      21.140 -19.712  -1.624 -0.65 -0.00    +0.000 N 
DOCKED: ATOM     16  H   UNL     1      21.768 -20.353  -2.027 -0.49 -0.00    +0.000 HD
DOCKED: BRANCH  15  17
DOCKED: ATOM     17  O   UNL     1      19.818 -20.004  -1.573 -1.62 -0.00    +0.000 OA
DOCKED: ATOM     18  H   UNL     1      19.310 -19.184  -1.467 -0.38 -0.00    +0.000 HD
DOCKED: ENDBRANCH  15  17
DOCKED: ENDBRANCH  11  14
DOCKED: ENDBRANCH   5  12
DOCKED: ENDBRANCH   4   8
DOCKED: ENDBRANCH   1   4
DOCKED: BRANCH   1  19
DOCKED: ATOM     19  C   UNL     1      30.862 -14.823   1.039 -0.12 -0.00    +0.000 C 
DOCKED: BRANCH  19  20
DOCKED: ATOM     20  C   UNL     1      31.576 -15.170   2.357 -0.18 -0.00    +0.000 C 
DOCKED: BRANCH  20  21
DOCKED: ATOM     21  C   UNL     1      31.085 -14.285   3.466 -0.20 -0.00    +0.000 A 
DOCKED: ATOM     22  C   UNL     1      31.852 -13.612   4.419 -0.14 -0.00    +0.000 A 
DOCKED: ATOM     23  N   UNL     1      31.057 -12.965   5.304 -0.18 -0.00    +0.000 N 
DOCKED: ATOM     24  C   UNL     1      29.795 -13.240   4.932 -0.25 -0.00    +0.000 A 
DOCKED: ATOM     25  C   UNL     1      29.771 -14.046   3.820 -0.28 -0.00    +0.000 A 
DOCKED: ATOM     26  C   UNL     1      28.573 -14.488   3.260 -0.28 -0.00    +0.000 A 
DOCKED: ATOM     27  C   UNL     1      27.372 -14.073   3.865 -0.46 -0.00    +0.000 A 
DOCKED: ATOM     28  C   UNL     1      27.396 -13.240   5.006 -0.34 -0.00    +0.000 A 
DOCKED: ATOM     29  C   UNL     1      28.621 -12.815   5.553 -0.37 -0.00    +0.000 A 
DOCKED: ATOM     30  C   UNL     1      33.347 -13.584   4.475 -0.10 -0.00    +0.000 C 
DOCKED: ATOM     31  H   UNL     1      31.345 -12.410   6.064 +0.00 -0.00    +0.000 HD
DOCKED: ENDBRANCH  20  21
DOCKED: ENDBRANCH  19  20
DOCKED: ENDBRANCH   1  19
DOCKED: TORSDOF 8
DOCKED: TER
DOCKED: ENDMDL
________________________________________________________________________________


	BEGINNING GENETIC ALGORITHM DOCKING 13 of 100
Run: 13 Seed: 648986370 1063894978 [ Run 13 of 100 GA/GALS ]
Beginning LAMARCKIAN GENETIC ALGORITHM (LGA), with a maximum of 2500000 energy evaluations.

Final-Value: -16.619


	FINAL GENETIC ALGORITHM DOCKED STATE
	_______________________________________________


Detailed state:  trans 27.863 -16.550 -0.504 quatxyzw -0.118524 0.624282 0.746851 0.196055 center 0.693 0.091 0.076 ntor 8 18.5983 6.2155 56.7937 157.3183 -144.3554 159.6794 65.9898 2.6436
State:	 27.863 -16.550  -0.504  -0.121  0.637  0.762 157.387     18.60    6.22   56.79  157.32 -144.36  159.68   65.99    2.64

DOCKED: MODEL       13
DOCKED: USER    Run = 13
DOCKED: USER    DPF = ligand_dock.biased.dpf
DOCKED: USER  
DOCKED: USER    Estimated Free Energy of Binding    =  -12.12 kcal/mol  [=(1)+(2)+(3)-(4)]
DOCKED: USER    Estimated Inhibition Constant, Ki   =    1.31 nM (nanomolar)  [Temperature = 298.15 K]
DOCKED: USER    
DOCKED: USER    (1) Final Intermolecular Energy     =  -14.51 kcal/mol
DOCKED: USER        vdW + Hbond + desolv Energy     =  -14.51 kcal/mol
DOCKED: USER        Electrostatic Energy            =   +0.00 kcal/mol
DOCKED: USER    (2) Final Total Internal Energy     =   -2.11 kcal/mol
DOCKED: USER    (3) Torsional Free Energy           =   +2.39 kcal/mol
DOCKED: USER    (4) Unbound System's Energy  [=(2)] =   -2.11 kcal/mol
DOCKED: USER    
DOCKED: USER    
DOCKED: USER    NEWDPF move ligand.pdbqt
DOCKED: USER    NEWDPF about 0.693000 0.091000 0.076000
DOCKED: USER    NEWDPF tran0 27.862713 -16.550400 -0.503585
DOCKED: USER    NEWDPF quaternion0 -0.118524 0.624282 0.746851 0.196055
DOCKED: USER    NEWDPF axisangle0 -0.120870 0.636637 0.761632 157.387320
DOCKED: USER    NEWDPF quat0 -0.120870 0.636637 0.761632 157.387320
DOCKED: USER    NEWDPF dihe0 18.60 6.22 56.79 157.32 -144.36 159.68 65.99 2.64 
DOCKED: USER  keepresnum = 1 
DOCKED: USER  
DOCKED: REMARK  Name = 
DOCKED: REMARK  9 active torsions:
DOCKED: REMARK  status: ('A' for Active; 'I' for Inactive)
DOCKED: REMARK    1  A    between atoms: C_2  and  C_3
DOCKED: REMARK    2  A    between atoms: C_4  and  C_5
DOCKED: REMARK    3  A    between atoms: C_8  and  C_9
DOCKED: REMARK    4  A    between atoms: C_9  and  N_10
DOCKED: REMARK    5  A    between atoms: N_10  and  C_11
DOCKED: REMARK    6  A    between atoms: C_11  and  C_12
DOCKED: REMARK    7  A    between atoms: C_12  and  C_13
DOCKED: REMARK    8  A    between atoms: C_14  and  C_22
DOCKED: REMARK    9  A    between atoms: N_25  and  O_26
DOCKED: REMARK                            x       y       z     vdW  Elec       q    Type
DOCKED: REMARK                         _______ _______ _______ _____ _____    ______ ____
DOCKED: USER                              x       y       z     vdW  Elec       q    Type
DOCKED: USER                           _______ _______ _______ _____ _____    ______ ____
DOCKED: ROOT
DOCKED: ATOM      1  N   UNL     1      28.903 -16.305   0.074 -0.18 -0.00    +0.000 N 
DOCKED: ATOM      2  H   UNL     1      29.217 -17.228   0.376 -0.51 -0.00    +0.000 HD
DOCKED: ATOM      3  H   UNL     1      28.219 -15.913   0.722 -0.41 -0.00    +0.000 HD
DOCKED: ENDROOT
DOCKED: BRANCH   1   4
DOCKED: ATOM      4  C   UNL     1      28.255 -16.434  -1.237 -0.33 -0.00    +0.000 C 
DOCKED: BRANCH   4   8
DOCKED: ATOM      5  C   UNL     1      24.294 -18.078  -0.685 -0.69 -0.00    +0.000 A 
DOCKED: ATOM      6  C   UNL     1      24.583 -17.264  -1.799 -0.58 -0.00    +0.000 A 
DOCKED: ATOM      7  C   UNL     1      25.865 -16.739  -1.978 -0.48 -0.00    +0.000 A 
DOCKED: ATOM      8  C   UNL     1      26.886 -17.031  -1.062 -0.45 -0.00    +0.000 A 
DOCKED: ATOM      9  C   UNL     1      26.603 -17.840   0.047 -0.51 -0.00    +0.000 A 
DOCKED: ATOM     10  C   UNL     1      25.321 -18.368   0.227 -0.40 -0.00    +0.000 A 
DOCKED: BRANCH   5  12
DOCKED: ATOM     11  C   UNL     1      22.136 -19.051  -1.452 -0.69 -0.00    +0.000 C 
DOCKED: ATOM     12  C   UNL     1      22.952 -18.671  -0.460 -0.82 -0.00    +0.000 C 
DOCKED: BRANCH  11  14
DOCKED: ATOM     13  O   UNL     1      20.009 -19.734  -2.201 -1.89 -0.00    +0.000 OA
DOCKED: ATOM     14  C   UNL     1      20.794 -19.623  -1.221 -0.80 -0.00    +0.000 C 
DOCKED: ATOM     15  N   UNL     1      20.373 -20.085   0.069 -0.72 -0.00    +0.000 N 
DOCKED: ATOM     16  H   UNL     1      21.012 -20.105   0.815 -0.53 -0.00    +0.000 HD
DOCKED: BRANCH  15  17
DOCKED: ATOM     17  O   UNL     1      19.095 -20.494   0.263 -0.81 -0.00    +0.000 OA
DOCKED: ATOM     18  H   UNL     1      18.686 -20.693  -0.593 -0.34 -0.00    +0.000 HD
DOCKED: ENDBRANCH  15  17
DOCKED: ENDBRANCH  11  14
DOCKED: ENDBRANCH   5  12
DOCKED: ENDBRANCH   4   8
DOCKED: ENDBRANCH   1   4
DOCKED: BRANCH   1  19
DOCKED: ATOM     19  C   UNL     1      30.061 -15.399   0.040 -0.15 -0.00    +0.000 C 
DOCKED: BRANCH  19  20
DOCKED: ATOM     20  C   UNL     1      29.664 -13.929   0.262 -0.10 -0.00    +0.000 C 
DOCKED: BRANCH  20  21
DOCKED: ATOM     21  C   UNL     1      28.606 -13.828   1.323 -0.18 -0.00    +0.000 A 
DOCKED: ATOM     22  C   UNL     1      27.265 -13.476   1.155 -0.26 -0.00    +0.000 A 
DOCKED: ATOM     23  N   UNL     1      26.631 -13.424   2.351 -0.32 -0.00    +0.000 N 
DOCKED: ATOM     24  C   UNL     1      27.562 -13.720   3.273 -0.38 -0.00    +0.000 A 
DOCKED: ATOM     25  C   UNL     1      28.780 -13.966   2.687 -0.24 -0.00    +0.000 A 
DOCKED: ATOM     26  C   UNL     1      29.911 -14.271   3.444 -0.25 -0.00    +0.000 A 
DOCKED: ATOM     27  C   UNL     1      29.768 -14.330   4.842 -0.31 -0.00    +0.000 A 
DOCKED: ATOM     28  C   UNL     1      28.516 -14.082   5.446 -0.42 -0.00    +0.000 A 
DOCKED: ATOM     29  C   UNL     1      27.394 -13.770   4.657 -0.49 -0.00    +0.000 A 
DOCKED: ATOM     30  C   UNL     1      26.593 -13.196  -0.151 -0.25 -0.00    +0.000 C 
DOCKED: ATOM     31  H   UNL     1      25.683 -13.212   2.510 -0.00 +0.00    +0.000 HD
DOCKED: ENDBRANCH  20  21
DOCKED: ENDBRANCH  19  20
DOCKED: ENDBRANCH   1  19
DOCKED: TORSDOF 8
DOCKED: TER
DOCKED: ENDMDL
________________________________________________________________________________


	BEGINNING GENETIC ALGORITHM DOCKING 14 of 100
Run: 14 Seed: 1772876186 1403383912 [ Run 14 of 100 GA/GALS ]
Beginning LAMARCKIAN GENETIC ALGORITHM (LGA), with a maximum of 2500000 energy evaluations.

Final-Value: -15.432


	FINAL GENETIC ALGORITHM DOCKED STATE
	_______________________________________________


Detailed state:  trans 27.653 -15.424 -1.077 quatxyzw 0.102316 0.845930 -0.266941 0.450195 center 0.693 0.091 0.076 ntor 8 7.5651 -77.4395 -15.0652 -171.8702 152.5690 -124.6532 70.1285 67.7798
State:	 27.653 -15.424  -1.077   0.115  0.947 -0.299 126.488      7.57  -77.44  -15.07 -171.87  152.57 -124.65   70.13   67.78

DOCKED: MODEL       14
DOCKED: USER    Run = 14
DOCKED: USER    DPF = ligand_dock.biased.dpf
DOCKED: USER  
DOCKED: USER    Estimated Free Energy of Binding    =  -10.87 kcal/mol  [=(1)+(2)+(3)-(4)]
DOCKED: USER    Estimated Inhibition Constant, Ki   =   10.82 nM (nanomolar)  [Temperature = 298.15 K]
DOCKED: USER    
DOCKED: USER    (1) Final Intermolecular Energy     =  -13.25 kcal/mol
DOCKED: USER        vdW + Hbond + desolv Energy     =  -13.25 kcal/mol
DOCKED: USER        Electrostatic Energy            =   +0.00 kcal/mol
DOCKED: USER    (2) Final Total Internal Energy     =   -2.18 kcal/mol
DOCKED: USER    (3) Torsional Free Energy           =   +2.39 kcal/mol
DOCKED: USER    (4) Unbound System's Energy  [=(2)] =   -2.18 kcal/mol
DOCKED: USER    
DOCKED: USER    
DOCKED: USER    NEWDPF move ligand.pdbqt
DOCKED: USER    NEWDPF about 0.693000 0.091000 0.076000
DOCKED: USER    NEWDPF tran0 27.652780 -15.423628 -1.077410
DOCKED: USER    NEWDPF quaternion0 0.102316 0.845930 -0.266941 0.450195
DOCKED: USER    NEWDPF axisangle0 0.114584 0.947365 -0.298950 126.487548
DOCKED: USER    NEWDPF quat0 0.114584 0.947365 -0.298950 126.487548
DOCKED: USER    NEWDPF dihe0 7.57 -77.44 -15.07 -171.87 152.57 -124.65 70.13 67.78 
DOCKED: USER  keepresnum = 1 
DOCKED: USER  
DOCKED: REMARK  Name = 
DOCKED: REMARK  9 active torsions:
DOCKED: REMARK  status: ('A' for Active; 'I' for Inactive)
DOCKED: REMARK    1  A    between atoms: C_2  and  C_3
DOCKED: REMARK    2  A    between atoms: C_4  and  C_5
DOCKED: REMARK    3  A    between atoms: C_8  and  C_9
DOCKED: REMARK    4  A    between atoms: C_9  and  N_10
DOCKED: REMARK    5  A    between atoms: N_10  and  C_11
DOCKED: REMARK    6  A    between atoms: C_11  and  C_12
DOCKED: REMARK    7  A    between atoms: C_12  and  C_13
DOCKED: REMARK    8  A    between atoms: C_14  and  C_22
DOCKED: REMARK    9  A    between atoms: N_25  and  O_26
DOCKED: REMARK                            x       y       z     vdW  Elec       q    Type
DOCKED: REMARK                         _______ _______ _______ _____ _____    ______ ____
DOCKED: USER                              x       y       z     vdW  Elec       q    Type
DOCKED: USER                           _______ _______ _______ _____ _____    ______ ____
DOCKED: ROOT
DOCKED: ATOM      1  N   UNL     1      28.270 -15.228  -2.105 -0.18 -0.00    +0.000 N 
DOCKED: ATOM      2  H   UNL     1      28.883 -14.450  -1.856 +0.01 -0.00    +0.000 HD
DOCKED: ATOM      3  H   UNL     1      27.341 -14.901  -2.368 +0.00 -0.00    +0.000 HD
DOCKED: ENDROOT
DOCKED: BRANCH   1   4
DOCKED: ATOM      4  C   UNL     1      28.123 -16.105  -0.937 -0.32 -0.00    +0.000 C 
DOCKED: BRANCH   4   8
DOCKED: ATOM      5  C   UNL     1      24.052 -17.552  -0.769 -0.67 -0.00    +0.000 A 
DOCKED: ATOM      6  C   UNL     1      25.090 -18.256  -0.125 -0.60 -0.00    +0.000 A 
DOCKED: ATOM      7  C   UNL     1      26.404 -17.783  -0.176 -0.54 -0.00    +0.000 A 
DOCKED: ATOM      8  C   UNL     1      26.703 -16.591  -0.851 -0.43 -0.00    +0.000 A 
DOCKED: ATOM      9  C   UNL     1      25.674 -15.887  -1.493 -0.45 -0.00    +0.000 A 
DOCKED: ATOM     10  C   UNL     1      24.359 -16.358  -1.441 -0.40 -0.00    +0.000 A 
DOCKED: BRANCH   5  12
DOCKED: ATOM     11  C   UNL     1      22.275 -19.293  -0.814 -0.77 -0.00    +0.000 C 
DOCKED: ATOM     12  C   UNL     1      22.640 -18.006  -0.731 -0.82 -0.00    +0.000 C 
DOCKED: BRANCH  11  14
DOCKED: ATOM     13  O   UNL     1      20.217 -19.727  -1.874 -1.85 -0.00    +0.000 OA
DOCKED: ATOM     14  C   UNL     1      20.866 -19.737  -0.795 -0.80 -0.00    +0.000 C 
DOCKED: ATOM     15  N   UNL     1      20.231 -20.208   0.401 -0.71 -0.00    +0.000 N 
DOCKED: ATOM     16  H   UNL     1      20.758 -20.324   1.223 -0.48 -0.00    +0.000 HD
DOCKED: BRANCH  15  17
DOCKED: ATOM     17  O   UNL     1      18.907 -20.496   0.402 -0.81 -0.00    +0.000 OA
DOCKED: ATOM     18  H   UNL     1      18.565 -20.445  -0.504 -0.23 -0.00    +0.000 HD
DOCKED: ENDBRANCH  15  17
DOCKED: ENDBRANCH  11  14
DOCKED: ENDBRANCH   5  12
DOCKED: ENDBRANCH   4   8
DOCKED: ENDBRANCH   1   4
DOCKED: BRANCH   1  19
DOCKED: ATOM     19  C   UNL     1      28.844 -15.930  -3.263 -0.26 -0.00    +0.000 C 
DOCKED: BRANCH  19  20
DOCKED: ATOM     20  C   UNL     1      28.610 -15.175  -4.583 -0.31 -0.00    +0.000 C 
DOCKED: BRANCH  20  21
DOCKED: ATOM     21  C   UNL     1      27.429 -14.256  -4.457 -0.30 -0.00    +0.000 A 
DOCKED: ATOM     22  C   UNL     1      26.077 -14.595  -4.537 -0.43 -0.00    +0.000 A 
DOCKED: ATOM     23  N   UNL     1      25.300 -13.489  -4.446 -0.44 -0.00    +0.000 N 
DOCKED: ATOM     24  C   UNL     1      26.149 -12.453  -4.330 -0.29 -0.00    +0.000 A 
DOCKED: ATOM     25  C   UNL     1      27.455 -12.880  -4.339 -0.20 -0.00    +0.000 A 
DOCKED: ATOM     26  C   UNL     1      28.520 -11.984  -4.256 -0.08 -0.00    +0.000 A 
DOCKED: ATOM     27  C   UNL     1      28.219 -10.613  -4.151 -0.06 -0.00    +0.000 A 
DOCKED: ATOM     28  C   UNL     1      26.877 -10.174  -4.136 -0.12 -0.00    +0.000 A 
DOCKED: ATOM     29  C   UNL     1      25.822 -11.101  -4.228 -0.21 -0.00    +0.000 A 
DOCKED: ATOM     30  C   UNL     1      25.531 -15.978  -4.694 -0.25 -0.00    +0.000 C 
DOCKED: ATOM     31  H   UNL     1      24.317 -13.451  -4.463 -0.27 -0.00    +0.000 HD
DOCKED: ENDBRANCH  20  21
DOCKED: ENDBRANCH  19  20
DOCKED: ENDBRANCH   1  19
DOCKED: TORSDOF 8
DOCKED: TER
DOCKED: ENDMDL
________________________________________________________________________________


	BEGINNING GENETIC ALGORITHM DOCKING 15 of 100
Run: 15 Seed: 774033050 1505086373 [ Run 15 of 100 GA/GALS ]
Beginning LAMARCKIAN GENETIC ALGORITHM (LGA), with a maximum of 2500000 energy evaluations.

Final-Value: -16.095


	FINAL GENETIC ALGORITHM DOCKED STATE
	_______________________________________________


Detailed state:  trans 27.686 -16.594 -0.578 quatxyzw 0.140844 -0.882099 -0.433824 -0.117736 center 0.693 0.091 0.076 ntor 8 -11.6391 -61.9340 132.6474 -171.5027 -176.4544 -122.8722 19.2523 10.1295
State:	 27.686 -16.594  -0.578   0.142 -0.888 -0.437 -166.477    -11.64  -61.93  132.65 -171.50 -176.45 -122.87   19.25   10.13

DOCKED: MODEL       15
DOCKED: USER    Run = 15
DOCKED: USER    DPF = ligand_dock.biased.dpf
DOCKED: USER  
DOCKED: USER    Estimated Free Energy of Binding    =  -11.78 kcal/mol  [=(1)+(2)+(3)-(4)]
DOCKED: USER    Estimated Inhibition Constant, Ki   =    2.31 nM (nanomolar)  [Temperature = 298.15 K]
DOCKED: USER    
DOCKED: USER    (1) Final Intermolecular Energy     =  -14.17 kcal/mol
DOCKED: USER        vdW + Hbond + desolv Energy     =  -14.17 kcal/mol
DOCKED: USER        Electrostatic Energy            =   +0.00 kcal/mol
DOCKED: USER    (2) Final Total Internal Energy     =   -1.93 kcal/mol
DOCKED: USER    (3) Torsional Free Energy           =   +2.39 kcal/mol
DOCKED: USER    (4) Unbound System's Energy  [=(2)] =   -1.93 kcal/mol
DOCKED: USER    
DOCKED: USER    
DOCKED: USER    NEWDPF move ligand.pdbqt
DOCKED: USER    NEWDPF about 0.693000 0.091000 0.076000
DOCKED: USER    NEWDPF tran0 27.686124 -16.593815 -0.577645
DOCKED: USER    NEWDPF quaternion0 0.140844 -0.882099 -0.433824 -0.117736
DOCKED: USER    NEWDPF axisangle0 0.141830 -0.888277 -0.436862 -166.477091
DOCKED: USER    NEWDPF quat0 0.141830 -0.888277 -0.436862 -166.477091
DOCKED: USER    NEWDPF dihe0 -11.64 -61.93 132.65 -171.50 -176.45 -122.87 19.25 10.13 
DOCKED: USER  keepresnum = 1 
DOCKED: USER  
DOCKED: REMARK  Name = 
DOCKED: REMARK  9 active torsions:
DOCKED: REMARK  status: ('A' for Active; 'I' for Inactive)
DOCKED: REMARK    1  A    between atoms: C_2  and  C_3
DOCKED: REMARK    2  A    between atoms: C_4  and  C_5
DOCKED: REMARK    3  A    between atoms: C_8  and  C_9
DOCKED: REMARK    4  A    between atoms: C_9  and  N_10
DOCKED: REMARK    5  A    between atoms: N_10  and  C_11
DOCKED: REMARK    6  A    between atoms: C_11  and  C_12
DOCKED: REMARK    7  A    between atoms: C_12  and  C_13
DOCKED: REMARK    8  A    between atoms: C_14  and  C_22
DOCKED: REMARK    9  A    between atoms: N_25  and  O_26
DOCKED: REMARK                            x       y       z     vdW  Elec       q    Type
DOCKED: REMARK                         _______ _______ _______ _____ _____    ______ ____
DOCKED: USER                              x       y       z     vdW  Elec       q    Type
DOCKED: USER                           _______ _______ _______ _____ _____    ______ ____
DOCKED: ROOT
DOCKED: ATOM      1  N   UNL     1      28.555 -15.926  -0.054 -0.25 -0.00    +0.000 N 
DOCKED: ATOM      2  H   UNL     1      28.644 -16.354   0.869 -0.64 -0.00    +0.000 HD
DOCKED: ATOM      3  H   UNL     1      27.784 -15.259  -0.083 -0.01 -0.00    +0.000 HD
DOCKED: ENDROOT
DOCKED: BRANCH   1   4
DOCKED: ATOM      4  C   UNL     1      28.274 -16.980  -1.037 -0.36 -0.00    +0.000 C 
DOCKED: BRANCH   4   8
DOCKED: ATOM      5  C   UNL     1      24.023 -17.772  -0.994 -0.69 -0.00    +0.000 A 
DOCKED: ATOM      6  C   UNL     1      24.612 -17.081  -2.072 -0.46 -0.00    +0.000 A 
DOCKED: ATOM      7  C   UNL     1      25.987 -16.831  -2.086 -0.43 -0.00    +0.000 A 
DOCKED: ATOM      8  C   UNL     1      26.801 -17.283  -1.037 -0.46 -0.00    +0.000 A 
DOCKED: ATOM      9  C   UNL     1      26.220 -17.971   0.037 -0.56 -0.00    +0.000 A 
DOCKED: ATOM     10  C   UNL     1      24.844 -18.223   0.052 -0.58 -0.00    +0.000 A 
DOCKED: BRANCH   5  12
DOCKED: ATOM     11  C   UNL     1      22.066 -19.305  -1.094 -0.75 -0.00    +0.000 C 
DOCKED: ATOM     12  C   UNL     1      22.571 -18.073  -0.941 -0.80 -0.00    +0.000 C 
DOCKED: BRANCH  11  14
DOCKED: ATOM     13  O   UNL     1      20.005 -19.735  -2.151 -1.89 -0.00    +0.000 OA
DOCKED: ATOM     14  C   UNL     1      20.618 -19.596  -1.059 -0.87 -0.00    +0.000 C 
DOCKED: ATOM     15  N   UNL     1      19.902 -19.758   0.173 -0.74 -0.00    +0.000 N 
DOCKED: ATOM     16  H   UNL     1      20.390 -19.760   1.027 -0.12 -0.00    +0.000 HD
DOCKED: BRANCH  15  17
DOCKED: ATOM     17  O   UNL     1      18.556 -19.908   0.164 -0.80 -0.00    +0.000 OA
DOCKED: ATOM     18  H   UNL     1      18.213 -19.701  -0.720 -0.47 -0.00    +0.000 HD
DOCKED: ENDBRANCH  15  17
DOCKED: ENDBRANCH  11  14
DOCKED: ENDBRANCH   5  12
DOCKED: ENDBRANCH   4   8
DOCKED: ENDBRANCH   1   4
DOCKED: BRANCH   1  19
DOCKED: ATOM     19  C   UNL     1      29.794 -15.194  -0.357 -0.14 -0.00    +0.000 C 
DOCKED: BRANCH  19  20
DOCKED: ATOM     20  C   UNL     1      29.899 -13.869   0.417 -0.10 -0.00    +0.000 C 
DOCKED: BRANCH  20  21
DOCKED: ATOM     21  C   UNL     1      28.793 -13.766   1.428 -0.17 -0.00    +0.000 A 
DOCKED: ATOM     22  C   UNL     1      27.463 -13.409   1.199 -0.24 -0.00    +0.000 A 
DOCKED: ATOM     23  N   UNL     1      26.774 -13.357   2.364 -0.35 -0.00    +0.000 N 
DOCKED: ATOM     24  C   UNL     1      27.661 -13.657   3.328 -0.37 -0.00    +0.000 A 
DOCKED: ATOM     25  C   UNL     1      28.903 -13.905   2.798 -0.24 -0.00    +0.000 A 
DOCKED: ATOM     26  C   UNL     1      29.998 -14.215   3.606 -0.26 -0.00    +0.000 A 
DOCKED: ATOM     27  C   UNL     1      29.790 -14.276   4.997 -0.29 -0.00    +0.000 A 
DOCKED: ATOM     28  C   UNL     1      28.512 -14.025   5.542 -0.40 -0.00    +0.000 A 
DOCKED: ATOM     29  C   UNL     1      27.428 -13.708   4.702 -0.48 -0.00    +0.000 A 
DOCKED: ATOM     30  C   UNL     1      26.852 -13.126  -0.136 -0.25 -0.00    +0.000 C 
DOCKED: ATOM     31  H   UNL     1      25.821 -13.142   2.480 -0.02 +0.00    +0.000 HD
DOCKED: ENDBRANCH  20  21
DOCKED: ENDBRANCH  19  20
DOCKED: ENDBRANCH   1  19
DOCKED: TORSDOF 8
DOCKED: TER
DOCKED: ENDMDL
________________________________________________________________________________


	BEGINNING GENETIC ALGORITHM DOCKING 16 of 100
Run: 16 Seed: 1001471061 1954387396 [ Run 16 of 100 GA/GALS ]
Beginning LAMARCKIAN GENETIC ALGORITHM (LGA), with a maximum of 2500000 energy evaluations.

Final-Value: -14.737


	FINAL GENETIC ALGORITHM DOCKED STATE
	_______________________________________________


Detailed state:  trans 28.416 -15.741 -1.098 quatxyzw -0.026053 0.897731 0.158492 -0.410221 center 0.693 0.091 0.076 ntor 8 8.0455 179.4049 17.3209 175.4796 -120.9265 -121.4181 -180.0000 -53.1791
State:	 28.416 -15.741  -1.098  -0.029  0.984  0.174 -131.563      8.05  179.40   17.32  175.48 -120.93 -121.42 -180.00  -53.18

DOCKED: MODEL       16
DOCKED: USER    Run = 16
DOCKED: USER    DPF = ligand_dock.biased.dpf
DOCKED: USER  
DOCKED: USER    Estimated Free Energy of Binding    =  -10.59 kcal/mol  [=(1)+(2)+(3)-(4)]
DOCKED: USER    Estimated Inhibition Constant, Ki   =   17.22 nM (nanomolar)  [Temperature = 298.15 K]
DOCKED: USER    
DOCKED: USER    (1) Final Intermolecular Energy     =  -12.98 kcal/mol
DOCKED: USER        vdW + Hbond + desolv Energy     =  -12.98 kcal/mol
DOCKED: USER        Electrostatic Energy            =   +0.00 kcal/mol
DOCKED: USER    (2) Final Total Internal Energy     =   -1.76 kcal/mol
DOCKED: USER    (3) Torsional Free Energy           =   +2.39 kcal/mol
DOCKED: USER    (4) Unbound System's Energy  [=(2)] =   -1.76 kcal/mol
DOCKED: USER    
DOCKED: USER    
DOCKED: USER    NEWDPF move ligand.pdbqt
DOCKED: USER    NEWDPF about 0.693000 0.091000 0.076000
DOCKED: USER    NEWDPF tran0 28.415552 -15.740879 -1.098203
DOCKED: USER    NEWDPF quaternion0 -0.026053 0.897731 0.158492 -0.410221
DOCKED: USER    NEWDPF axisangle0 -0.028567 0.984369 0.173787 -131.562593
DOCKED: USER    NEWDPF quat0 -0.028567 0.984369 0.173787 -131.562593
DOCKED: USER    NEWDPF dihe0 8.05 179.40 17.32 175.48 -120.93 -121.42 -180.00 -53.18 
DOCKED: USER  keepresnum = 1 
DOCKED: USER  
DOCKED: REMARK  Name = 
DOCKED: REMARK  9 active torsions:
DOCKED: REMARK  status: ('A' for Active; 'I' for Inactive)
DOCKED: REMARK    1  A    between atoms: C_2  and  C_3
DOCKED: REMARK    2  A    between atoms: C_4  and  C_5
DOCKED: REMARK    3  A    between atoms: C_8  and  C_9
DOCKED: REMARK    4  A    between atoms: C_9  and  N_10
DOCKED: REMARK    5  A    between atoms: N_10  and  C_11
DOCKED: REMARK    6  A    between atoms: C_11  and  C_12
DOCKED: REMARK    7  A    between atoms: C_12  and  C_13
DOCKED: REMARK    8  A    between atoms: C_14  and  C_22
DOCKED: REMARK    9  A    between atoms: N_25  and  O_26
DOCKED: REMARK                            x       y       z     vdW  Elec       q    Type
DOCKED: REMARK                         _______ _______ _______ _____ _____    ______ ____
DOCKED: USER                              x       y       z     vdW  Elec       q    Type
DOCKED: USER                           _______ _______ _______ _____ _____    ______ ____
DOCKED: ROOT
DOCKED: ATOM      1  N   UNL     1      28.877 -15.212  -0.107 -0.18 -0.00    +0.000 N 
DOCKED: ATOM      2  H   UNL     1      28.047 -15.023   0.456 -0.06 -0.00    +0.000 HD
DOCKED: ATOM      3  H   UNL     1      29.026 -14.485  -0.806 +0.00 -0.00    +0.000 HD
DOCKED: ENDROOT
DOCKED: BRANCH   1   4
DOCKED: ATOM      4  C   UNL     1      28.687 -16.484  -0.816 -0.29 -0.00    +0.000 C 
DOCKED: BRANCH   4   8
DOCKED: ATOM      5  C   UNL     1      24.490 -17.504  -1.020 -0.65 -0.00    +0.000 A 
DOCKED: ATOM      6  C   UNL     1      25.290 -17.972   0.042 -0.55 -0.00    +0.000 A 
DOCKED: ATOM      7  C   UNL     1      26.645 -17.636   0.108 -0.45 -0.00    +0.000 A 
DOCKED: ATOM      8  C   UNL     1      27.221 -16.812  -0.869 -0.41 -0.00    +0.000 A 
DOCKED: ATOM      9  C   UNL     1      26.429 -16.344  -1.927 -0.42 -0.00    +0.000 A 
DOCKED: ATOM     10  C   UNL     1      25.073 -16.678  -1.995 -0.54 -0.00    +0.000 A 
DOCKED: BRANCH   5  12
DOCKED: ATOM     11  C   UNL     1      22.413 -18.674  -0.309 -0.82 -0.00    +0.000 C 
DOCKED: ATOM     12  C   UNL     1      23.044 -17.821  -1.127 -0.75 -0.00    +0.000 C 
DOCKED: BRANCH  11  14
DOCKED: ATOM     13  O   UNL     1      20.234 -18.216  -1.081 -2.08 -0.00    +0.000 OA
DOCKED: ATOM     14  C   UNL     1      20.977 -19.001  -0.432 -0.86 -0.00    +0.000 C 
DOCKED: ATOM     15  N   UNL     1      20.415 -20.193   0.130 -0.70 -0.00    +0.000 N 
DOCKED: ATOM     16  H   UNL     1      21.003 -20.865   0.543 -0.50 -0.00    +0.000 HD
DOCKED: BRANCH  15  17
DOCKED: ATOM     17  O   UNL     1      19.076 -20.398   0.096 -0.83 -0.00    +0.000 OA
DOCKED: ATOM     18  H   UNL     1      18.658 -19.713  -0.450 -0.19 -0.00    +0.000 HD
DOCKED: ENDBRANCH  15  17
DOCKED: ENDBRANCH  11  14
DOCKED: ENDBRANCH   5  12
DOCKED: ENDBRANCH   4   8
DOCKED: ENDBRANCH   1   4
DOCKED: BRANCH   1  19
DOCKED: ATOM     19  C   UNL     1      30.053 -15.234   0.776 -0.11 -0.00    +0.000 C 
DOCKED: BRANCH  19  20
DOCKED: ATOM     20  C   UNL     1      30.462 -13.827   1.246 -0.10 -0.00    +0.000 C 
DOCKED: BRANCH  20  21
DOCKED: ATOM     21  C   UNL     1      29.372 -13.217   2.079 -0.13 -0.00    +0.000 A 
DOCKED: ATOM     22  C   UNL     1      28.326 -12.400   1.644 -0.14 -0.00    +0.000 A 
DOCKED: ATOM     23  N   UNL     1      27.578 -11.982   2.693 -0.25 +0.00    +0.000 N 
DOCKED: ATOM     24  C   UNL     1      28.152 -12.510   3.787 -0.27 -0.00    +0.000 A 
DOCKED: ATOM     25  C   UNL     1      29.251 -13.263   3.455 -0.20 -0.00    +0.000 A 
DOCKED: ATOM     26  C   UNL     1      30.030 -13.894   4.425 -0.28 -0.00    +0.000 A 
DOCKED: ATOM     27  C   UNL     1      29.649 -13.744   5.772 -0.32 -0.00    +0.000 A 
DOCKED: ATOM     28  C   UNL     1      28.516 -12.974   6.114 -0.39 -0.00    +0.000 A 
DOCKED: ATOM     29  C   UNL     1      27.753 -12.344   5.113 -0.36 +0.00    +0.000 A 
DOCKED: ATOM     30  C   UNL     1      28.043 -12.026   0.224 -0.12 -0.00    +0.000 C 
DOCKED: ATOM     31  H   UNL     1      26.779 -11.408   2.660 -0.02 +0.00    +0.000 HD
DOCKED: ENDBRANCH  20  21
DOCKED: ENDBRANCH  19  20
DOCKED: ENDBRANCH   1  19
DOCKED: TORSDOF 8
DOCKED: TER
DOCKED: ENDMDL
________________________________________________________________________________


	BEGINNING GENETIC ALGORITHM DOCKING 17 of 100
Run: 17 Seed: 100077703 1320117365 [ Run 17 of 100 GA/GALS ]
Beginning LAMARCKIAN GENETIC ALGORITHM (LGA), with a maximum of 2500000 energy evaluations.

Final-Value: -17.027


	FINAL GENETIC ALGORITHM DOCKED STATE
	_______________________________________________


Detailed state:  trans 28.746 -16.225 0.455 quatxyzw -0.261119 0.756870 0.466570 0.375869 center 0.693 0.091 0.076 ntor 8 11.8102 150.2285 17.7339 -176.5180 175.6840 -131.6311 171.9199 53.6879
State:	 28.746 -16.225   0.455  -0.282  0.817  0.503 135.844     11.81  150.23   17.73 -176.52  175.68 -131.63  171.92   53.69

DOCKED: MODEL       17
DOCKED: USER    Run = 17
DOCKED: USER    DPF = ligand_dock.biased.dpf
DOCKED: USER  
DOCKED: USER    Estimated Free Energy of Binding    =  -12.51 kcal/mol  [=(1)+(2)+(3)-(4)]
DOCKED: USER    Estimated Inhibition Constant, Ki   =  675.39 pM (picomolar)  [Temperature = 298.15 K]
DOCKED: USER    
DOCKED: USER    (1) Final Intermolecular Energy     =  -14.90 kcal/mol
DOCKED: USER        vdW + Hbond + desolv Energy     =  -14.90 kcal/mol
DOCKED: USER        Electrostatic Energy            =   +0.00 kcal/mol
DOCKED: USER    (2) Final Total Internal Energy     =   -2.13 kcal/mol
DOCKED: USER    (3) Torsional Free Energy           =   +2.39 kcal/mol
DOCKED: USER    (4) Unbound System's Energy  [=(2)] =   -2.13 kcal/mol
DOCKED: USER    
DOCKED: USER    
DOCKED: USER    NEWDPF move ligand.pdbqt
DOCKED: USER    NEWDPF about 0.693000 0.091000 0.076000
DOCKED: USER    NEWDPF tran0 28.746169 -16.224712 0.455357
DOCKED: USER    NEWDPF quaternion0 -0.261119 0.756870 0.466570 0.375869
DOCKED: USER    NEWDPF axisangle0 -0.281781 0.816760 0.503490 135.843901
DOCKED: USER    NEWDPF quat0 -0.281781 0.816760 0.503490 135.843901
DOCKED: USER    NEWDPF dihe0 11.81 150.23 17.73 -176.52 175.68 -131.63 171.92 53.69 
DOCKED: USER  keepresnum = 1 
DOCKED: USER  
DOCKED: REMARK  Name = 
DOCKED: REMARK  9 active torsions:
DOCKED: REMARK  status: ('A' for Active; 'I' for Inactive)
DOCKED: REMARK    1  A    between atoms: C_2  and  C_3
DOCKED: REMARK    2  A    between atoms: C_4  and  C_5
DOCKED: REMARK    3  A    between atoms: C_8  and  C_9
DOCKED: REMARK    4  A    between atoms: C_9  and  N_10
DOCKED: REMARK    5  A    between atoms: N_10  and  C_11
DOCKED: REMARK    6  A    between atoms: C_11  and  C_12
DOCKED: REMARK    7  A    between atoms: C_12  and  C_13
DOCKED: REMARK    8  A    between atoms: C_14  and  C_22
DOCKED: REMARK    9  A    between atoms: N_25  and  O_26
DOCKED: REMARK                            x       y       z     vdW  Elec       q    Type
DOCKED: REMARK                         _______ _______ _______ _____ _____    ______ ____
DOCKED: USER                              x       y       z     vdW  Elec       q    Type
DOCKED: USER                           _______ _______ _______ _____ _____    ______ ____
DOCKED: ROOT
DOCKED: ATOM      1  N   UNL     1      29.386 -15.243   0.776 -0.15 -0.00    +0.000 N 
DOCKED: ATOM      2  H   UNL     1      30.005 -15.604   1.503 -0.89 -0.00    +0.000 HD
DOCKED: ATOM      3  H   UNL     1      28.467 -15.011   1.151 -0.41 -0.00    +0.000 HD
DOCKED: ENDROOT
DOCKED: BRANCH   1   4
DOCKED: ATOM      4  C   UNL     1      29.204 -16.281  -0.246 -0.19 -0.00    +0.000 C 
DOCKED: BRANCH   4   8
DOCKED: ATOM      5  C   UNL     1      25.000 -17.006  -0.951 -0.57 -0.00    +0.000 A 
DOCKED: ATOM      6  C   UNL     1      25.749 -17.874  -0.131 -0.57 -0.00    +0.000 A 
DOCKED: ATOM      7  C   UNL     1      27.106 -17.634   0.100 -0.22 -0.00    +0.000 A 
DOCKED: ATOM      8  C   UNL     1      27.735 -16.515  -0.465 -0.34 -0.00    +0.000 A 
DOCKED: ATOM      9  C   UNL     1      26.994 -15.649  -1.281 -0.32 -0.00    +0.000 A 
DOCKED: ATOM     10  C   UNL     1      25.635 -15.887  -1.512 -0.46 -0.00    +0.000 A 
DOCKED: BRANCH   5  12
DOCKED: ATOM     11  C   UNL     1      22.873 -18.289  -0.801 -0.83 -0.00    +0.000 C 
DOCKED: ATOM     12  C   UNL     1      23.553 -17.211  -1.213 -0.66 -0.00    +0.000 C 
DOCKED: BRANCH  11  14
DOCKED: ATOM     13  O   UNL     1      20.637 -17.548  -0.859 -2.13 -0.00    +0.000 OA
DOCKED: ATOM     14  C   UNL     1      21.437 -18.495  -1.082 -0.76 -0.00    +0.000 C 
DOCKED: ATOM     15  N   UNL     1      20.936 -19.722  -1.631 -0.73 -0.00    +0.000 N 
DOCKED: ATOM     16  H   UNL     1      21.563 -20.426  -1.912 -0.44 -0.00    +0.000 HD
DOCKED: BRANCH  15  17
DOCKED: ATOM     17  O   UNL     1      19.602 -19.913  -1.765 -1.59 -0.00    +0.000 OA
DOCKED: ATOM     18  H   UNL     1      19.138 -19.073  -1.624 -0.55 -0.00    +0.000 HD
DOCKED: ENDBRANCH  15  17
DOCKED: ENDBRANCH  11  14
DOCKED: ENDBRANCH   5  12
DOCKED: ENDBRANCH   4   8
DOCKED: ENDBRANCH   1   4
DOCKED: BRANCH   1  19
DOCKED: ATOM     19  C   UNL     1      29.971 -14.012   0.225 -0.09 -0.00    +0.000 C 
DOCKED: BRANCH  19  20
DOCKED: ATOM     20  C   UNL     1      29.628 -12.770   1.065 -0.07 -0.00    +0.000 C 
DOCKED: BRANCH  20  21
DOCKED: ATOM     21  C   UNL     1      28.777 -13.155   2.242 -0.17 -0.00    +0.000 A 
DOCKED: ATOM     22  C   UNL     1      27.392 -13.320   2.271 -0.29 -0.00    +0.000 A 
DOCKED: ATOM     23  N   UNL     1      26.969 -13.601   3.526 -0.43 -0.00    +0.000 N 
DOCKED: ATOM     24  C   UNL     1      28.072 -13.595   4.295 -0.44 -0.00    +0.000 A 
DOCKED: ATOM     25  C   UNL     1      29.193 -13.320   3.550 -0.22 -0.00    +0.000 A 
DOCKED: ATOM     26  C   UNL     1      30.458 -13.234   4.131 -0.17 -0.00    +0.000 A 
DOCKED: ATOM     27  C   UNL     1      30.559 -13.448   5.518 -0.23 -0.00    +0.000 A 
DOCKED: ATOM     28  C   UNL     1      29.408 -13.736   6.284 -0.29 -0.00    +0.000 A 
DOCKED: ATOM     29  C   UNL     1      28.144 -13.809   5.670 -0.32 -0.00    +0.000 A 
DOCKED: ATOM     30  C   UNL     1      26.475 -13.216   1.094 -0.33 -0.00    +0.000 C 
DOCKED: ATOM     31  H   UNL     1      26.045 -13.774   3.817 -0.03 -0.00    +0.000 HD
DOCKED: ENDBRANCH  20  21
DOCKED: ENDBRANCH  19  20
DOCKED: ENDBRANCH   1  19
DOCKED: TORSDOF 8
DOCKED: TER
DOCKED: ENDMDL
________________________________________________________________________________


	BEGINNING GENETIC ALGORITHM DOCKING 18 of 100
Run: 18 Seed: 403907955 830295762 [ Run 18 of 100 GA/GALS ]
Beginning LAMARCKIAN GENETIC ALGORITHM (LGA), with a maximum of 2500000 energy evaluations.

Final-Value: -16.111


	FINAL GENETIC ALGORITHM DOCKED STATE
	_______________________________________________


Detailed state:  trans 29.937 -16.251 -0.656 quatxyzw -0.804165 -0.275043 -0.456629 -0.262982 center 0.693 0.091 0.076 ntor 8 11.7152 150.1065 13.7481 138.9473 36.3009 -174.9047 -21.5108 -137.3771
State:	 29.937 -16.251  -0.656  -0.834 -0.285 -0.473 -149.506     11.72  150.11   13.75  138.95   36.30 -174.90  -21.51 -137.38

DOCKED: MODEL       18
DOCKED: USER    Run = 18
DOCKED: USER    DPF = ligand_dock.biased.dpf
DOCKED: USER  
DOCKED: USER    Estimated Free Energy of Binding    =  -11.68 kcal/mol  [=(1)+(2)+(3)-(4)]
DOCKED: USER    Estimated Inhibition Constant, Ki   =    2.75 nM (nanomolar)  [Temperature = 298.15 K]
DOCKED: USER    
DOCKED: USER    (1) Final Intermolecular Energy     =  -14.07 kcal/mol
DOCKED: USER        vdW + Hbond + desolv Energy     =  -14.07 kcal/mol
DOCKED: USER        Electrostatic Energy            =   +0.00 kcal/mol
DOCKED: USER    (2) Final Total Internal Energy     =   -2.05 kcal/mol
DOCKED: USER    (3) Torsional Free Energy           =   +2.39 kcal/mol
DOCKED: USER    (4) Unbound System's Energy  [=(2)] =   -2.05 kcal/mol
DOCKED: USER    
DOCKED: USER    
DOCKED: USER    NEWDPF move ligand.pdbqt
DOCKED: USER    NEWDPF about 0.693000 0.091000 0.076000
DOCKED: USER    NEWDPF tran0 29.937428 -16.251390 -0.655610
DOCKED: USER    NEWDPF quaternion0 -0.804165 -0.275043 -0.456629 -0.262982
DOCKED: USER    NEWDPF axisangle0 -0.833504 -0.285078 -0.473289 -149.505902
DOCKED: USER    NEWDPF quat0 -0.833504 -0.285078 -0.473289 -149.505902
DOCKED: USER    NEWDPF dihe0 11.72 150.11 13.75 138.95 36.30 -174.90 -21.51 -137.38 
DOCKED: USER  keepresnum = 1 
DOCKED: USER  
DOCKED: REMARK  Name = 
DOCKED: REMARK  9 active torsions:
DOCKED: REMARK  status: ('A' for Active; 'I' for Inactive)
DOCKED: REMARK    1  A    between atoms: C_2  and  C_3
DOCKED: REMARK    2  A    between atoms: C_4  and  C_5
DOCKED: REMARK    3  A    between atoms: C_8  and  C_9
DOCKED: REMARK    4  A    between atoms: C_9  and  N_10
DOCKED: REMARK    5  A    between atoms: N_10  and  C_11
DOCKED: REMARK    6  A    between atoms: C_11  and  C_12
DOCKED: REMARK    7  A    between atoms: C_12  and  C_13
DOCKED: REMARK    8  A    between atoms: C_14  and  C_22
DOCKED: REMARK    9  A    between atoms: N_25  and  O_26
DOCKED: REMARK                            x       y       z     vdW  Elec       q    Type
DOCKED: REMARK                         _______ _______ _______ _____ _____    ______ ____
DOCKED: USER                              x       y       z     vdW  Elec       q    Type
DOCKED: USER                           _______ _______ _______ _____ _____    ______ ____
DOCKED: ROOT
DOCKED: ATOM      1  N   UNL     1      29.906 -17.012  -1.603 -0.21 -0.00    +0.000 N 
DOCKED: ATOM      2  H   UNL     1      29.766 -17.920  -1.159 -0.06 -0.00    +0.000 HD
DOCKED: ATOM      3  H   UNL     1      30.889 -16.742  -1.598 +0.00 -0.00    +0.000 HD
DOCKED: ENDROOT
DOCKED: BRANCH   1   4
DOCKED: ATOM      4  C   UNL     1      29.160 -15.998  -0.846 -0.22 -0.00    +0.000 C 
DOCKED: BRANCH   4   8
DOCKED: ATOM      5  C   UNL     1      24.941 -16.882  -1.185 -0.57 -0.00    +0.000 A 
DOCKED: ATOM      6  C   UNL     1      25.802 -17.756  -0.492 -0.58 -0.00    +0.000 A 
DOCKED: ATOM      7  C   UNL     1      27.164 -17.465  -0.379 -0.44 -0.00    +0.000 A 
DOCKED: ATOM      8  C   UNL     1      27.688 -16.289  -0.937 -0.33 -0.00    +0.000 A 
DOCKED: ATOM      9  C   UNL     1      26.834 -15.417  -1.627 -0.32 -0.00    +0.000 A 
DOCKED: ATOM     10  C   UNL     1      25.471 -15.706  -1.740 -0.44 -0.00    +0.000 A 
DOCKED: BRANCH   5  12
DOCKED: ATOM     11  C   UNL     1      22.906 -18.299  -0.977 -0.82 -0.00    +0.000 C 
DOCKED: ATOM     12  C   UNL     1      23.485 -17.140  -1.319 -0.58 -0.00    +0.000 C 
DOCKED: BRANCH  11  14
DOCKED: ATOM     13  O   UNL     1      20.645 -17.694  -0.706 -2.23 +0.00    +0.000 OA
DOCKED: ATOM     14  C   UNL     1      21.459 -18.557  -1.131 -0.70 -0.00    +0.000 C 
DOCKED: ATOM     15  N   UNL     1      20.959 -19.735  -1.777 -0.70 -0.00    +0.000 N 
DOCKED: ATOM     16  H   UNL     1      21.583 -20.360  -2.209 -0.53 -0.00    +0.000 HD
DOCKED: BRANCH  15  17
DOCKED: ATOM     17  O   UNL     1      19.628 -19.989  -1.794 -1.57 -0.00    +0.000 OA
DOCKED: ATOM     18  H   UNL     1      19.145 -19.203  -1.498 -0.51 -0.00    +0.000 HD
DOCKED: ENDBRANCH  15  17
DOCKED: ENDBRANCH  11  14
DOCKED: ENDBRANCH   5  12
DOCKED: ENDBRANCH   4   8
DOCKED: ENDBRANCH   1   4
DOCKED: BRANCH   1  19
DOCKED: ATOM     19  C   UNL     1      29.469 -17.097  -3.005 -0.21 -0.00    +0.000 C 
DOCKED: BRANCH  19  20
DOCKED: ATOM     20  C   UNL     1      30.550 -16.615  -3.987 -0.19 -0.00    +0.000 C 
DOCKED: BRANCH  20  21
DOCKED: ATOM     21  C   UNL     1      29.930 -15.802  -5.088 -0.23 -0.00    +0.000 A 
DOCKED: ATOM     22  C   UNL     1      30.098 -15.966  -6.464 -0.31 -0.00    +0.000 A 
DOCKED: ATOM     23  N   UNL     1      29.436 -15.001  -7.145 -0.31 -0.00    +0.000 N 
DOCKED: ATOM     24  C   UNL     1      28.868 -14.217  -6.213 -0.30 -0.00    +0.000 A 
DOCKED: ATOM     25  C   UNL     1      29.151 -14.669  -4.947 -0.21 -0.00    +0.000 A 
DOCKED: ATOM     26  C   UNL     1      28.691 -14.004  -3.811 -0.13 -0.00    +0.000 A 
DOCKED: ATOM     27  C   UNL     1      27.911 -12.848  -3.998 -0.14 -0.00    +0.000 A 
DOCKED: ATOM     28  C   UNL     1      27.616 -12.386  -5.299 -0.18 -0.00    +0.000 A 
DOCKED: ATOM     29  C   UNL     1      28.099 -13.074  -6.427 -0.21 -0.00    +0.000 A 
DOCKED: ATOM     30  C   UNL     1      30.888 -17.052  -7.123 -0.33 -0.00    +0.000 C 
DOCKED: ATOM     31  H   UNL     1      29.384 -14.895  -8.123 -0.50 -0.00    +0.000 HD
DOCKED: ENDBRANCH  20  21
DOCKED: ENDBRANCH  19  20
DOCKED: ENDBRANCH   1  19
DOCKED: TORSDOF 8
DOCKED: TER
DOCKED: ENDMDL
________________________________________________________________________________


	BEGINNING GENETIC ALGORITHM DOCKING 19 of 100
Run: 19 Seed: 1433940647 908134852 [ Run 19 of 100 GA/GALS ]
Beginning LAMARCKIAN GENETIC ALGORITHM (LGA), with a maximum of 2500000 energy evaluations.

Final-Value: -16.853


	FINAL GENETIC ALGORITHM DOCKED STATE
	_______________________________________________


Detailed state:  trans 28.764 -16.708 -0.032 quatxyzw 0.394179 -0.423342 -0.507385 -0.638722 center 0.693 0.091 0.076 ntor 8 4.8202 -179.3168 46.7750 9.1173 -63.4108 166.0392 -175.8930 90.4417
State:	 28.764 -16.708  -0.032   0.512 -0.550 -0.659 -100.607      4.82 -179.32   46.78    9.12  -63.41  166.04 -175.89   90.44

DOCKED: MODEL       19
DOCKED: USER    Run = 19
DOCKED: USER    DPF = ligand_dock.biased.dpf
DOCKED: USER  
DOCKED: USER    Estimated Free Energy of Binding    =  -12.71 kcal/mol  [=(1)+(2)+(3)-(4)]
DOCKED: USER    Estimated Inhibition Constant, Ki   =  485.66 pM (picomolar)  [Temperature = 298.15 K]
DOCKED: USER    
DOCKED: USER    (1) Final Intermolecular Energy     =  -15.09 kcal/mol
DOCKED: USER        vdW + Hbond + desolv Energy     =  -15.09 kcal/mol
DOCKED: USER        Electrostatic Energy            =   +0.00 kcal/mol
DOCKED: USER    (2) Final Total Internal Energy     =   -1.76 kcal/mol
DOCKED: USER    (3) Torsional Free Energy           =   +2.39 kcal/mol
DOCKED: USER    (4) Unbound System's Energy  [=(2)] =   -1.76 kcal/mol
DOCKED: USER    
DOCKED: USER    
DOCKED: USER    NEWDPF move ligand.pdbqt
DOCKED: USER    NEWDPF about 0.693000 0.091000 0.076000
DOCKED: USER    NEWDPF tran0 28.764470 -16.708363 -0.031867
DOCKED: USER    NEWDPF quaternion0 0.394179 -0.423342 -0.507385 -0.638722
DOCKED: USER    NEWDPF axisangle0 0.512295 -0.550196 -0.659422 -100.606859
DOCKED: USER    NEWDPF quat0 0.512295 -0.550196 -0.659422 -100.606859
DOCKED: USER    NEWDPF dihe0 4.82 -179.32 46.78 9.12 -63.41 166.04 -175.89 90.44 
DOCKED: USER  keepresnum = 1 
DOCKED: USER  
DOCKED: REMARK  Name = 
DOCKED: REMARK  9 active torsions:
DOCKED: REMARK  status: ('A' for Active; 'I' for Inactive)
DOCKED: REMARK    1  A    between atoms: C_2  and  C_3
DOCKED: REMARK    2  A    between atoms: C_4  and  C_5
DOCKED: REMARK    3  A    between atoms: C_8  and  C_9
DOCKED: REMARK    4  A    between atoms: C_9  and  N_10
DOCKED: REMARK    5  A    between atoms: N_10  and  C_11
DOCKED: REMARK    6  A    between atoms: C_11  and  C_12
DOCKED: REMARK    7  A    between atoms: C_12  and  C_13
DOCKED: REMARK    8  A    between atoms: C_14  and  C_22
DOCKED: REMARK    9  A    between atoms: N_25  and  O_26
DOCKED: REMARK                            x       y       z     vdW  Elec       q    Type
DOCKED: REMARK                         _______ _______ _______ _____ _____    ______ ____
DOCKED: USER                              x       y       z     vdW  Elec       q    Type
DOCKED: USER                           _______ _______ _______ _____ _____    ______ ____
DOCKED: ROOT
DOCKED: ATOM      1  N   UNL     1      28.955 -15.600   0.426 -0.18 -0.00    +0.000 N 
DOCKED: ATOM      2  H   UNL     1      29.962 -15.594   0.594 -0.19 -0.00    +0.000 HD
DOCKED: ATOM      3  H   UNL     1      28.452 -16.047   1.193 -0.72 -0.00    +0.000 HD
DOCKED: ENDROOT
DOCKED: BRANCH   1   4
DOCKED: ATOM      4  C   UNL     1      28.685 -16.368  -0.795 -0.28 -0.00    +0.000 C 
DOCKED: BRANCH   4   8
DOCKED: ATOM      5  C   UNL     1      24.507 -17.461  -1.018 -0.64 -0.00    +0.000 A 
DOCKED: ATOM      6  C   UNL     1      25.430 -18.290  -0.349 -0.61 -0.00    +0.000 A 
DOCKED: ATOM      7  C   UNL     1      26.779 -17.932  -0.274 -0.49 -0.00    +0.000 A 
DOCKED: ATOM      8  C   UNL     1      27.227 -16.732  -0.845 -0.40 -0.00    +0.000 A 
DOCKED: ATOM      9  C   UNL     1      26.313 -15.904  -1.511 -0.40 -0.00    +0.000 A 
DOCKED: ATOM     10  C   UNL     1      24.963 -16.261  -1.587 -0.49 -0.00    +0.000 A 
DOCKED: BRANCH   5  12
DOCKED: ATOM     11  C   UNL     1      22.434 -18.605  -0.253 -0.82 -0.00    +0.000 C 
DOCKED: ATOM     12  C   UNL     1      23.064 -17.791  -1.112 -0.75 -0.00    +0.000 C 
DOCKED: BRANCH  11  14
DOCKED: ATOM     13  O   UNL     1      20.261 -18.212  -1.073 -2.10 -0.00    +0.000 OA
DOCKED: ATOM     14  C   UNL     1      21.001 -18.945  -0.364 -0.84 -0.00    +0.000 C 
DOCKED: ATOM     15  N   UNL     1      20.438 -20.096   0.280 -0.70 -0.00    +0.000 N 
DOCKED: ATOM     16  H   UNL     1      21.025 -20.734   0.744 -0.58 -0.00    +0.000 HD
DOCKED: BRANCH  15  17
DOCKED: ATOM     17  O   UNL     1      19.100 -20.308   0.250 -0.82 -0.00    +0.000 OA
DOCKED: ATOM     18  H   UNL     1      18.679 -19.635  -0.307 -0.14 -0.00    +0.000 HD
DOCKED: ENDBRANCH  15  17
DOCKED: ENDBRANCH  11  14
DOCKED: ENDBRANCH   5  12
DOCKED: ENDBRANCH   4   8
DOCKED: ENDBRANCH   1   4
DOCKED: BRANCH   1  19
DOCKED: ATOM     19  C   UNL     1      28.485 -14.210   0.330 -0.19 -0.00    +0.000 C 
DOCKED: BRANCH  19  20
DOCKED: ATOM     20  C   UNL     1      27.063 -14.030   0.889 -0.29 -0.00    +0.000 C 
DOCKED: BRANCH  20  21
DOCKED: ATOM     21  C   UNL     1      27.065 -13.030   2.009 -0.29 -0.00    +0.000 A 
DOCKED: ATOM     22  C   UNL     1      26.671 -11.691   1.954 -0.31 +0.00    +0.000 A 
DOCKED: ATOM     23  N   UNL     1      26.878 -11.082   3.146 -0.29 +0.00    +0.000 N 
DOCKED: ATOM     24  C   UNL     1      27.418 -12.017   3.947 -0.18 +0.00    +0.000 A 
DOCKED: ATOM     25  C   UNL     1      27.554 -13.214   3.288 -0.34 -0.00    +0.000 A 
DOCKED: ATOM     26  C   UNL     1      28.115 -14.332   3.906 -0.47 -0.00    +0.000 A 
DOCKED: ATOM     27  C   UNL     1      28.535 -14.202   5.243 -0.44 -0.00    +0.000 A 
DOCKED: ATOM     28  C   UNL     1      28.391 -12.972   5.922 -0.40 -0.00    +0.000 A 
DOCKED: ATOM     29  C   UNL     1      27.828 -11.859   5.270 -0.36 +0.00    +0.000 A 
DOCKED: ATOM     30  C   UNL     1      26.090 -11.001   0.762 -0.33 +0.00    +0.000 C 
DOCKED: ATOM     31  H   UNL     1      26.676 -10.147   3.377 -0.03 +0.00    +0.000 HD
DOCKED: ENDBRANCH  20  21
DOCKED: ENDBRANCH  19  20
DOCKED: ENDBRANCH   1  19
DOCKED: TORSDOF 8
DOCKED: TER
DOCKED: ENDMDL
________________________________________________________________________________


	BEGINNING GENETIC ALGORITHM DOCKING 20 of 100
Run: 20 Seed: 2033901215 276706274 [ Run 20 of 100 GA/GALS ]
Beginning LAMARCKIAN GENETIC ALGORITHM (LGA), with a maximum of 2500000 energy evaluations.

Final-Value: -16.167


	FINAL GENETIC ALGORITHM DOCKED STATE
	_______________________________________________


Detailed state:  trans 28.474 -16.612 -0.645 quatxyzw 0.077822 -0.668016 -0.736659 -0.070938 center 0.693 0.091 0.076 ntor 8 1.0657 -159.1739 -179.8808 -176.2638 -176.6285 179.6052 52.2251 3.0712
State:	 28.474 -16.612  -0.645   0.078 -0.670 -0.739 -171.864      1.07 -159.17 -179.88 -176.26 -176.63  179.61   52.23    3.07

DOCKED: MODEL       20
DOCKED: USER    Run = 20
DOCKED: USER    DPF = ligand_dock.biased.dpf
DOCKED: USER  
DOCKED: USER    Estimated Free Energy of Binding    =  -11.75 kcal/mol  [=(1)+(2)+(3)-(4)]
DOCKED: USER    Estimated Inhibition Constant, Ki   =    2.46 nM (nanomolar)  [Temperature = 298.15 K]
DOCKED: USER    
DOCKED: USER    (1) Final Intermolecular Energy     =  -14.13 kcal/mol
DOCKED: USER        vdW + Hbond + desolv Energy     =  -14.13 kcal/mol
DOCKED: USER        Electrostatic Energy            =   +0.00 kcal/mol
DOCKED: USER    (2) Final Total Internal Energy     =   -2.03 kcal/mol
DOCKED: USER    (3) Torsional Free Energy           =   +2.39 kcal/mol
DOCKED: USER    (4) Unbound System's Energy  [=(2)] =   -2.03 kcal/mol
DOCKED: USER    
DOCKED: USER    
DOCKED: USER    NEWDPF move ligand.pdbqt
DOCKED: USER    NEWDPF about 0.693000 0.091000 0.076000
DOCKED: USER    NEWDPF tran0 28.473596 -16.612081 -0.645046
DOCKED: USER    NEWDPF quaternion0 0.077822 -0.668016 -0.736659 -0.070938
DOCKED: USER    NEWDPF axisangle0 0.078019 -0.669703 -0.738519 -171.864223
DOCKED: USER    NEWDPF quat0 0.078019 -0.669703 -0.738519 -171.864223
DOCKED: USER    NEWDPF dihe0 1.07 -159.17 -179.88 -176.26 -176.63 179.61 52.23 3.07 
DOCKED: USER  keepresnum = 1 
DOCKED: USER  
DOCKED: REMARK  Name = 
DOCKED: REMARK  9 active torsions:
DOCKED: REMARK  status: ('A' for Active; 'I' for Inactive)
DOCKED: REMARK    1  A    between atoms: C_2  and  C_3
DOCKED: REMARK    2  A    between atoms: C_4  and  C_5
DOCKED: REMARK    3  A    between atoms: C_8  and  C_9
DOCKED: REMARK    4  A    between atoms: C_9  and  N_10
DOCKED: REMARK    5  A    between atoms: N_10  and  C_11
DOCKED: REMARK    6  A    between atoms: C_11  and  C_12
DOCKED: REMARK    7  A    between atoms: C_12  and  C_13
DOCKED: REMARK    8  A    between atoms: C_14  and  C_22
DOCKED: REMARK    9  A    between atoms: N_25  and  O_26
DOCKED: REMARK                            x       y       z     vdW  Elec       q    Type
DOCKED: REMARK                         _______ _______ _______ _____ _____    ______ ____
DOCKED: USER                              x       y       z     vdW  Elec       q    Type
DOCKED: USER                           _______ _______ _______ _____ _____    ______ ____
DOCKED: ROOT
DOCKED: ATOM      1  N   UNL     1      29.475 -16.577   0.042 -0.16 -0.00    +0.000 N 
DOCKED: ATOM      2  H   UNL     1      29.519 -17.522   0.426 -0.53 -0.00    +0.000 HD
DOCKED: ATOM      3  H   UNL     1      28.844 -15.985   0.582 -0.47 -0.00    +0.000 HD
DOCKED: ENDROOT
DOCKED: BRANCH   1   4
DOCKED: ATOM      4  C   UNL     1      28.958 -16.649  -1.330 -0.29 -0.00    +0.000 C 
DOCKED: BRANCH   4   8
DOCKED: ATOM      5  C   UNL     1      24.677 -17.238  -1.165 -0.61 -0.00    +0.000 A 
DOCKED: ATOM      6  C   UNL     1      25.245 -16.369  -2.120 -0.52 -0.00    +0.000 A 
DOCKED: ATOM      7  C   UNL     1      26.629 -16.186  -2.174 -0.38 -0.00    +0.000 A 
DOCKED: ATOM      8  C   UNL     1      27.472 -16.878  -1.294 -0.38 -0.00    +0.000 A 
DOCKED: ATOM      9  C   UNL     1      26.912 -17.743  -0.343 -0.48 -0.00    +0.000 A 
DOCKED: ATOM     10  C   UNL     1      25.527 -17.929  -0.287 -0.61 -0.00    +0.000 A 
DOCKED: BRANCH   5  12
DOCKED: ATOM     11  C   UNL     1      22.678 -18.582  -0.543 -0.84 -0.00    +0.000 C 
DOCKED: ATOM     12  C   UNL     1      23.215 -17.477  -1.077 -0.73 -0.00    +0.000 C 
DOCKED: BRANCH  11  14
DOCKED: ATOM     13  O   UNL     1      20.446 -17.969  -0.982 -2.20 -0.00    +0.000 OA
DOCKED: ATOM     14  C   UNL     1      21.222 -18.823  -0.475 -0.84 -0.00    +0.000 C 
DOCKED: ATOM     15  N   UNL     1      20.672 -20.008   0.115 -0.70 -0.00    +0.000 N 
DOCKED: ATOM     16  H   UNL     1      21.269 -20.730   0.414 -0.56 -0.00    +0.000 HD
DOCKED: BRANCH  15  17
DOCKED: ATOM     17  O   UNL     1      19.331 -20.137   0.262 -0.82 -0.00    +0.000 OA
DOCKED: ATOM     18  H   UNL     1      18.889 -19.351  -0.097 -0.08 -0.00    +0.000 HD
DOCKED: ENDBRANCH  15  17
DOCKED: ENDBRANCH  11  14
DOCKED: ENDBRANCH   5  12
DOCKED: ENDBRANCH   4   8
DOCKED: ENDBRANCH   1   4
DOCKED: BRANCH   1  19
DOCKED: ATOM     19  C   UNL     1      30.816 -15.978   0.104 -0.14 -0.00    +0.000 C 
DOCKED: BRANCH  19  20
DOCKED: ATOM     20  C   UNL     1      30.798 -14.552   0.682 -0.10 -0.00    +0.000 C 
DOCKED: BRANCH  20  21
DOCKED: ATOM     21  C   UNL     1      29.431 -14.219   1.208 -0.14 -0.00    +0.000 A 
DOCKED: ATOM     22  C   UNL     1      28.336 -13.740   0.486 -0.16 -0.00    +0.000 A 
DOCKED: ATOM     23  N   UNL     1      27.292 -13.488   1.311 -0.27 -0.00    +0.000 N 
DOCKED: ATOM     24  C   UNL     1      27.723 -13.785   2.549 -0.30 -0.00    +0.000 A 
DOCKED: ATOM     25  C   UNL     1      29.023 -14.228   2.528 -0.18 -0.00    +0.000 A 
DOCKED: ATOM     26  C   UNL     1      29.699 -14.574   3.697 -0.25 -0.00    +0.000 A 
DOCKED: ATOM     27  C   UNL     1      29.002 -14.466   4.915 -0.40 -0.00    +0.000 A 
DOCKED: ATOM     28  C   UNL     1      27.664 -14.016   4.937 -0.50 -0.00    +0.000 A 
DOCKED: ATOM     29  C   UNL     1      27.010 -13.667   3.741 -0.35 -0.00    +0.000 A 
DOCKED: ATOM     30  C   UNL     1      28.291 -13.529  -0.994 -0.13 -0.00    +0.000 C 
DOCKED: ATOM     31  H   UNL     1      26.402 -13.155   1.056 -0.02 -0.00    +0.000 HD
DOCKED: ENDBRANCH  20  21
DOCKED: ENDBRANCH  19  20
DOCKED: ENDBRANCH   1  19
DOCKED: TORSDOF 8
DOCKED: TER
DOCKED: ENDMDL
________________________________________________________________________________


	BEGINNING GENETIC ALGORITHM DOCKING 21 of 100
Run: 21 Seed: 827270670 621531815 [ Run 21 of 100 GA/GALS ]
Beginning LAMARCKIAN GENETIC ALGORITHM (LGA), with a maximum of 2500000 energy evaluations.

Final-Value: -15.701


	FINAL GENETIC ALGORITHM DOCKED STATE
	_______________________________________________


Detailed state:  trans 28.270 -15.576 -0.381 quatxyzw 0.146166 -0.978692 0.125980 0.070191 center 0.693 0.091 0.076 ntor 8 15.7694 78.0140 97.4288 165.4593 154.0993 175.3563 84.6788 8.6455
State:	 28.270 -15.576  -0.381   0.147 -0.981  0.126 171.950     15.77   78.01   97.43  165.46  154.10  175.36   84.68    8.65

DOCKED: MODEL       21
DOCKED: USER    Run = 21
DOCKED: USER    DPF = ligand_dock.biased.dpf
DOCKED: USER  
DOCKED: USER    Estimated Free Energy of Binding    =  -10.67 kcal/mol  [=(1)+(2)+(3)-(4)]
DOCKED: USER    Estimated Inhibition Constant, Ki   =   15.10 nM (nanomolar)  [Temperature = 298.15 K]
DOCKED: USER    
DOCKED: USER    (1) Final Intermolecular Energy     =  -13.06 kcal/mol
DOCKED: USER        vdW + Hbond + desolv Energy     =  -13.06 kcal/mol
DOCKED: USER        Electrostatic Energy            =   +0.00 kcal/mol
DOCKED: USER    (2) Final Total Internal Energy     =   -2.65 kcal/mol
DOCKED: USER    (3) Torsional Free Energy           =   +2.39 kcal/mol
DOCKED: USER    (4) Unbound System's Energy  [=(2)] =   -2.65 kcal/mol
DOCKED: USER    
DOCKED: USER    
DOCKED: USER    NEWDPF move ligand.pdbqt
DOCKED: USER    NEWDPF about 0.693000 0.091000 0.076000
DOCKED: USER    NEWDPF tran0 28.270377 -15.575902 -0.381453
DOCKED: USER    NEWDPF quaternion0 0.146166 -0.978692 0.125980 0.070191
DOCKED: USER    NEWDPF axisangle0 0.146527 -0.981112 0.126291 171.950110
DOCKED: USER    NEWDPF quat0 0.146527 -0.981112 0.126291 171.950110
DOCKED: USER    NEWDPF dihe0 15.77 78.01 97.43 165.46 154.10 175.36 84.68 8.65 
DOCKED: USER  keepresnum = 1 
DOCKED: USER  
DOCKED: REMARK  Name = 
DOCKED: REMARK  9 active torsions:
DOCKED: REMARK  status: ('A' for Active; 'I' for Inactive)
DOCKED: REMARK    1  A    between atoms: C_2  and  C_3
DOCKED: REMARK    2  A    between atoms: C_4  and  C_5
DOCKED: REMARK    3  A    between atoms: C_8  and  C_9
DOCKED: REMARK    4  A    between atoms: C_9  and  N_10
DOCKED: REMARK    5  A    between atoms: N_10  and  C_11
DOCKED: REMARK    6  A    between atoms: C_11  and  C_12
DOCKED: REMARK    7  A    between atoms: C_12  and  C_13
DOCKED: REMARK    8  A    between atoms: C_14  and  C_22
DOCKED: REMARK    9  A    between atoms: N_25  and  O_26
DOCKED: REMARK                            x       y       z     vdW  Elec       q    Type
DOCKED: REMARK                         _______ _______ _______ _____ _____    ______ ____
DOCKED: USER                              x       y       z     vdW  Elec       q    Type
DOCKED: USER                           _______ _______ _______ _____ _____    ______ ____
DOCKED: ROOT
DOCKED: ATOM      1  N   UNL     1      29.016 -14.617  -0.357 -0.13 -0.00    +0.000 N 
DOCKED: ATOM      2  H   UNL     1      28.595 -14.021   0.356 -0.01 -0.00    +0.000 HD
DOCKED: ATOM      3  H   UNL     1      28.562 -14.492  -1.262 +0.01 -0.00    +0.000 HD
DOCKED: ENDROOT
DOCKED: BRANCH   1   4
DOCKED: ATOM      4  C   UNL     1      28.845 -16.020   0.040 -0.17 -0.00    +0.000 C 
DOCKED: BRANCH   4   8
DOCKED: ATOM      5  C   UNL     1      24.909 -17.368  -1.138 -0.61 -0.00    +0.000 A 
DOCKED: ATOM      6  C   UNL     1      25.856 -18.280  -0.630 -0.56 -0.00    +0.000 A 
DOCKED: ATOM      7  C   UNL     1      27.126 -17.841  -0.245 -0.37 -0.00    +0.000 A 
DOCKED: ATOM      8  C   UNL     1      27.466 -16.483  -0.340 -0.35 -0.00    +0.000 A 
DOCKED: ATOM      9  C   UNL     1      26.527 -15.573  -0.844 -0.35 -0.00    +0.000 A 
DOCKED: ATOM     10  C   UNL     1      25.256 -16.010  -1.228 -0.45 -0.00    +0.000 A 
DOCKED: BRANCH   5  12
DOCKED: ATOM     11  C   UNL     1      22.579 -18.107  -0.676 -0.83 -0.00    +0.000 C 
DOCKED: ATOM     12  C   UNL     1      23.544 -17.784  -1.546 -0.64 -0.00    +0.000 C 
DOCKED: BRANCH  11  14
DOCKED: ATOM     13  O   UNL     1      20.236 -17.860  -0.707 -2.19 +0.00    +0.000 OA
DOCKED: ATOM     14  C   UNL     1      21.227 -18.538  -1.089 -0.76 -0.00    +0.000 C 
DOCKED: ATOM     15  N   UNL     1      21.015 -19.676  -1.934 -0.58 -0.00    +0.000 N 
DOCKED: ATOM     16  H   UNL     1      21.785 -20.146  -2.326 -0.58 -0.00    +0.000 HD
DOCKED: BRANCH  15  17
DOCKED: ATOM     17  O   UNL     1      19.757 -20.107  -2.194 -1.65 -0.00    +0.000 OA
DOCKED: ATOM     18  H   UNL     1      19.122 -19.415  -1.953 -0.51 -0.00    +0.000 HD
DOCKED: ENDBRANCH  15  17
DOCKED: ENDBRANCH  11  14
DOCKED: ENDBRANCH   5  12
DOCKED: ENDBRANCH   4   8
DOCKED: ENDBRANCH   1   4
DOCKED: BRANCH   1  19
DOCKED: ATOM     19  C   UNL     1      30.431 -14.246  -0.509 -0.06 -0.00    +0.000 C 
DOCKED: BRANCH  19  20
DOCKED: ATOM     20  C   UNL     1      30.868 -14.183  -1.983 -0.03 -0.00    +0.000 C 
DOCKED: BRANCH  20  21
DOCKED: ATOM     21  C   UNL     1      29.937 -14.995  -2.838 -0.08 -0.00    +0.000 A 
DOCKED: ATOM     22  C   UNL     1      30.161 -16.268  -3.365 -0.15 -0.00    +0.000 A 
DOCKED: ATOM     23  N   UNL     1      29.124 -16.651  -4.147 -0.25 -0.00    +0.000 N 
DOCKED: ATOM     24  C   UNL     1      28.256 -15.625  -4.135 -0.29 -0.00    +0.000 A 
DOCKED: ATOM     25  C   UNL     1      28.720 -14.594  -3.354 -0.14 -0.00    +0.000 A 
DOCKED: ATOM     26  C   UNL     1      28.004 -13.406  -3.206 -0.13 -0.00    +0.000 A 
DOCKED: ATOM     27  C   UNL     1      26.773 -13.294  -3.878 -0.27 -0.00    +0.000 A 
DOCKED: ATOM     28  C   UNL     1      26.293 -14.355  -4.678 -0.38 -0.00    +0.000 A 
DOCKED: ATOM     29  C   UNL     1      27.041 -15.539  -4.813 -0.36 -0.00    +0.000 A 
DOCKED: ATOM     30  C   UNL     1      31.366 -17.118  -3.114 -0.12 -0.00    +0.000 C 
DOCKED: ATOM     31  H   UNL     1      29.026 -17.506  -4.625 -0.03 -0.00    +0.000 HD
DOCKED: ENDBRANCH  20  21
DOCKED: ENDBRANCH  19  20
DOCKED: ENDBRANCH   1  19
DOCKED: TORSDOF 8
DOCKED: TER
DOCKED: ENDMDL
________________________________________________________________________________


	BEGINNING GENETIC ALGORITHM DOCKING 22 of 100
Run: 22 Seed: 1752399813 849726311 [ Run 22 of 100 GA/GALS ]
Beginning LAMARCKIAN GENETIC ALGORITHM (LGA), with a maximum of 2500000 energy evaluations.

Final-Value: -15.166


	FINAL GENETIC ALGORITHM DOCKED STATE
	_______________________________________________


Detailed state:  trans 29.051 -15.856 -2.022 quatxyzw -0.070386 0.403769 0.876957 0.250923 center 0.693 0.091 0.076 ntor 8 180.0000 180.0000 -16.9019 -35.0926 -145.1405 148.3519 -133.0621 17.9351
State:	 29.051 -15.856  -2.022  -0.073  0.417  0.906 150.936    180.00  180.00  -16.90  -35.09 -145.14  148.35 -133.06   17.94

DOCKED: MODEL       22
DOCKED: USER    Run = 22
DOCKED: USER    DPF = ligand_dock.biased.dpf
DOCKED: USER  
DOCKED: USER    Estimated Free Energy of Binding    =  -10.57 kcal/mol  [=(1)+(2)+(3)-(4)]
DOCKED: USER    Estimated Inhibition Constant, Ki   =   17.94 nM (nanomolar)  [Temperature = 298.15 K]
DOCKED: USER    
DOCKED: USER    (1) Final Intermolecular Energy     =  -12.95 kcal/mol
DOCKED: USER        vdW + Hbond + desolv Energy     =  -12.95 kcal/mol
DOCKED: USER        Electrostatic Energy            =   +0.00 kcal/mol
DOCKED: USER    (2) Final Total Internal Energy     =   -2.21 kcal/mol
DOCKED: USER    (3) Torsional Free Energy           =   +2.39 kcal/mol
DOCKED: USER    (4) Unbound System's Energy  [=(2)] =   -2.21 kcal/mol
DOCKED: USER    
DOCKED: USER    
DOCKED: USER    NEWDPF move ligand.pdbqt
DOCKED: USER    NEWDPF about 0.693000 0.091000 0.076000
DOCKED: USER    NEWDPF tran0 29.051329 -15.855762 -2.021582
DOCKED: USER    NEWDPF quaternion0 -0.070386 0.403769 0.876957 0.250923
DOCKED: USER    NEWDPF axisangle0 -0.072712 0.417114 0.905941 150.935704
DOCKED: USER    NEWDPF quat0 -0.072712 0.417114 0.905941 150.935704
DOCKED: USER    NEWDPF dihe0 180.00 180.00 -16.90 -35.09 -145.14 148.35 -133.06 17.94 
DOCKED: USER  keepresnum = 1 
DOCKED: USER  
DOCKED: REMARK  Name = 
DOCKED: REMARK  9 active torsions:
DOCKED: REMARK  status: ('A' for Active; 'I' for Inactive)
DOCKED: REMARK    1  A    between atoms: C_2  and  C_3
DOCKED: REMARK    2  A    between atoms: C_4  and  C_5
DOCKED: REMARK    3  A    between atoms: C_8  and  C_9
DOCKED: REMARK    4  A    between atoms: C_9  and  N_10
DOCKED: REMARK    5  A    between atoms: N_10  and  C_11
DOCKED: REMARK    6  A    between atoms: C_11  and  C_12
DOCKED: REMARK    7  A    between atoms: C_12  and  C_13
DOCKED: REMARK    8  A    between atoms: C_14  and  C_22
DOCKED: REMARK    9  A    between atoms: N_25  and  O_26
DOCKED: REMARK                            x       y       z     vdW  Elec       q    Type
DOCKED: REMARK                         _______ _______ _______ _____ _____    ______ ____
DOCKED: USER                              x       y       z     vdW  Elec       q    Type
DOCKED: USER                           _______ _______ _______ _____ _____    ______ ____
DOCKED: ROOT
DOCKED: ATOM      1  N   UNL     1      30.212 -15.806  -1.667 -0.10 -0.00    +0.000 N 
DOCKED: ATOM      2  H   UNL     1      30.559 -16.739  -1.896 -0.00 -0.00    +0.000 HD
DOCKED: ATOM      3  H   UNL     1      29.731 -15.797  -0.768 -0.00 -0.00    +0.000 HD
DOCKED: ENDROOT
DOCKED: BRANCH   1   4
DOCKED: ATOM      4  C   UNL     1      29.248 -15.396  -2.696 -0.17 -0.00    +0.000 C 
DOCKED: BRANCH   4   8
DOCKED: ATOM      5  C   UNL     1      25.253 -16.620  -1.583 -0.54 -0.00    +0.000 A 
DOCKED: ATOM      6  C   UNL     1      26.339 -17.509  -1.447 -0.41 -0.00    +0.000 A 
DOCKED: ATOM      7  C   UNL     1      27.630 -17.109  -1.803 -0.26 -0.00    +0.000 A 
DOCKED: ATOM      8  C   UNL     1      27.865 -15.811  -2.279 -0.25 -0.00    +0.000 A 
DOCKED: ATOM      9  C   UNL     1      26.788 -14.923  -2.415 -0.30 -0.00    +0.000 A 
DOCKED: ATOM     10  C   UNL     1      25.496 -15.322  -2.059 -0.40 -0.00    +0.000 A 
DOCKED: BRANCH   5  12
DOCKED: ATOM     11  C   UNL     1      23.329 -18.193  -1.464 -0.75 -0.00    +0.000 C 
DOCKED: ATOM     12  C   UNL     1      23.868 -16.994  -1.205 -0.65 -0.00    +0.000 C 
DOCKED: BRANCH  11  14
DOCKED: ATOM     13  O   UNL     1      21.347 -17.860  -0.234 -1.59 -0.00    +0.000 OA
DOCKED: ATOM     14  C   UNL     1      21.942 -18.552  -1.103 -0.78 -0.00    +0.000 C 
DOCKED: ATOM     15  N   UNL     1      21.246 -19.636  -1.732 -0.59 -0.00    +0.000 N 
DOCKED: ATOM     16  H   UNL     1      21.660 -20.112  -2.487 -0.60 -0.00    +0.000 HD
DOCKED: BRANCH  15  17
DOCKED: ATOM     17  O   UNL     1      20.020 -20.006  -1.292 -1.51 -0.00    +0.000 OA
DOCKED: ATOM     18  H   UNL     1      19.695 -20.749  -1.824 -0.61 -0.00    +0.000 HD
DOCKED: ENDBRANCH  15  17
DOCKED: ENDBRANCH  11  14
DOCKED: ENDBRANCH   5  12
DOCKED: ENDBRANCH   4   8
DOCKED: ENDBRANCH   1   4
DOCKED: BRANCH   1  19
DOCKED: ATOM     19  C   UNL     1      31.356 -14.886  -1.574 -0.03 -0.00    +0.000 C 
DOCKED: BRANCH  19  20
DOCKED: ATOM     20  C   UNL     1      30.996 -13.571  -0.862 -0.02 -0.00    +0.000 C 
DOCKED: BRANCH  20  21
DOCKED: ATOM     21  C   UNL     1      30.079 -13.838   0.297 -0.07 -0.00    +0.000 A 
DOCKED: ATOM     22  C   UNL     1      30.310 -14.678   1.388 -0.11 -0.00    +0.000 A 
DOCKED: ATOM     23  N   UNL     1      29.226 -14.720   2.198 -0.02 -0.00    +0.000 N 
DOCKED: ATOM     24  C   UNL     1      28.305 -13.931   1.619 -0.22 -0.00    +0.000 A 
DOCKED: ATOM     25  C   UNL     1      28.785 -13.381   0.455 -0.11 -0.00    +0.000 A 
DOCKED: ATOM     26  C   UNL     1      28.001 -12.544  -0.339 -0.11 -0.00    +0.000 A 
DOCKED: ATOM     27  C   UNL     1      26.691 -12.266   0.094 -0.18 -0.00    +0.000 A 
DOCKED: ATOM     28  C   UNL     1      26.198 -12.828   1.293 -0.31 -0.00    +0.000 A 
DOCKED: ATOM     29  C   UNL     1      27.011 -13.674   2.070 -0.24 -0.00    +0.000 A 
DOCKED: ATOM     30  C   UNL     1      31.573 -15.434   1.655 -0.15 -0.00    +0.000 C 
DOCKED: ATOM     31  H   UNL     1      29.132 -15.226   3.037 -1.87 -0.00    +0.000 HD
DOCKED: ENDBRANCH  20  21
DOCKED: ENDBRANCH  19  20
DOCKED: ENDBRANCH   1  19
DOCKED: TORSDOF 8
DOCKED: TER
DOCKED: ENDMDL
________________________________________________________________________________


	BEGINNING GENETIC ALGORITHM DOCKING 23 of 100
Run: 23 Seed: 426586313 1529088711 [ Run 23 of 100 GA/GALS ]
Beginning LAMARCKIAN GENETIC ALGORITHM (LGA), with a maximum of 2500000 energy evaluations.

Final-Value: -15.394


	FINAL GENETIC ALGORITHM DOCKED STATE
	_______________________________________________


Detailed state:  trans 28.724 -16.092 -0.123 quatxyzw -0.705956 -0.425567 -0.550169 -0.133540 center 0.693 0.091 0.076 ntor 8 15.3819 179.8131 62.8306 3.5514 14.5283 179.4791 -28.2234 -121.1536
State:	 28.724 -16.092  -0.123  -0.712 -0.429 -0.555 -164.652     15.38  179.81   62.83    3.55   14.53  179.48  -28.22 -121.15

DOCKED: MODEL       23
DOCKED: USER    Run = 23
DOCKED: USER    DPF = ligand_dock.biased.dpf
DOCKED: USER  
DOCKED: USER    Estimated Free Energy of Binding    =  -11.36 kcal/mol  [=(1)+(2)+(3)-(4)]
DOCKED: USER    Estimated Inhibition Constant, Ki   =    4.70 nM (nanomolar)  [Temperature = 298.15 K]
DOCKED: USER    
DOCKED: USER    (1) Final Intermolecular Energy     =  -13.75 kcal/mol
DOCKED: USER        vdW + Hbond + desolv Energy     =  -13.75 kcal/mol
DOCKED: USER        Electrostatic Energy            =   +0.00 kcal/mol
DOCKED: USER    (2) Final Total Internal Energy     =   -1.65 kcal/mol
DOCKED: USER    (3) Torsional Free Energy           =   +2.39 kcal/mol
DOCKED: USER    (4) Unbound System's Energy  [=(2)] =   -1.65 kcal/mol
DOCKED: USER    
DOCKED: USER    
DOCKED: USER    NEWDPF move ligand.pdbqt
DOCKED: USER    NEWDPF about 0.693000 0.091000 0.076000
DOCKED: USER    NEWDPF tran0 28.724024 -16.092302 -0.122564
DOCKED: USER    NEWDPF quaternion0 -0.705956 -0.425567 -0.550169 -0.133540
DOCKED: USER    NEWDPF axisangle0 -0.712336 -0.429413 -0.555141 -164.651591
DOCKED: USER    NEWDPF quat0 -0.712336 -0.429413 -0.555141 -164.651591
DOCKED: USER    NEWDPF dihe0 15.38 179.81 62.83 3.55 14.53 179.48 -28.22 -121.15 
DOCKED: USER  keepresnum = 1 
DOCKED: USER  
DOCKED: REMARK  Name = 
DOCKED: REMARK  9 active torsions:
DOCKED: REMARK  status: ('A' for Active; 'I' for Inactive)
DOCKED: REMARK    1  A    between atoms: C_2  and  C_3
DOCKED: REMARK    2  A    between atoms: C_4  and  C_5
DOCKED: REMARK    3  A    between atoms: C_8  and  C_9
DOCKED: REMARK    4  A    between atoms: C_9  and  N_10
DOCKED: REMARK    5  A    between atoms: N_10  and  C_11
DOCKED: REMARK    6  A    between atoms: C_11  and  C_12
DOCKED: REMARK    7  A    between atoms: C_12  and  C_13
DOCKED: REMARK    8  A    between atoms: C_14  and  C_22
DOCKED: REMARK    9  A    between atoms: N_25  and  O_26
DOCKED: REMARK                            x       y       z     vdW  Elec       q    Type
DOCKED: REMARK                         _______ _______ _______ _____ _____    ______ ____
DOCKED: USER                              x       y       z     vdW  Elec       q    Type
DOCKED: USER                           _______ _______ _______ _____ _____    ______ ____
DOCKED: ROOT
DOCKED: ATOM      1  N   UNL     1      29.128 -17.029  -0.783 -0.27 -0.00    +0.000 N 
DOCKED: ATOM      2  H   UNL     1      28.896 -17.834  -0.200 -0.52 -0.00    +0.000 HD
DOCKED: ATOM      3  H   UNL     1      30.006 -16.599  -0.492 -0.02 -0.00    +0.000 HD
DOCKED: ENDROOT
DOCKED: BRANCH   1   4
DOCKED: ATOM      4  C   UNL     1      28.068 -16.023  -0.642 -0.32 -0.00    +0.000 C 
DOCKED: BRANCH   4   8
DOCKED: ATOM      5  C   UNL     1      24.249 -17.986  -1.155 -0.68 -0.00    +0.000 A 
DOCKED: ATOM      6  C   UNL     1      25.125 -18.381  -0.123 -0.54 -0.00    +0.000 A 
DOCKED: ATOM      7  C   UNL     1      26.356 -17.741   0.043 -0.52 -0.00    +0.000 A 
DOCKED: ATOM      8  C   UNL     1      26.727 -16.683  -0.800 -0.44 -0.00    +0.000 A 
DOCKED: ATOM      9  C   UNL     1      25.859 -16.287  -1.827 -0.48 -0.00    +0.000 A 
DOCKED: ATOM     10  C   UNL     1      24.626 -16.925  -1.995 -0.48 -0.00    +0.000 A 
DOCKED: BRANCH   5  12
DOCKED: ATOM     11  C   UNL     1      22.121 -19.001  -0.361 -0.81 -0.00    +0.000 C 
DOCKED: ATOM     12  C   UNL     1      22.926 -18.624  -1.363 -0.77 -0.00    +0.000 C 
DOCKED: BRANCH  11  14
DOCKED: ATOM     13  O   UNL     1      20.268 -19.554  -1.706 -1.70 -0.00    +0.000 OA
DOCKED: ATOM     14  C   UNL     1      20.813 -19.654  -0.574 -0.84 -0.00    +0.000 C 
DOCKED: ATOM     15  N   UNL     1      20.167 -20.421   0.450 -0.70 -0.00    +0.000 N 
DOCKED: ATOM     16  H   UNL     1      20.633 -20.597   1.298 -0.51 -0.00    +0.000 HD
DOCKED: BRANCH  15  17
DOCKED: ATOM     17  O   UNL     1      18.917 -20.905   0.253 -0.74 -0.00    +0.000 OA
DOCKED: ATOM     18  H   UNL     1      18.698 -20.861  -0.691 -0.40 -0.00    +0.000 HD
DOCKED: ENDBRANCH  15  17
DOCKED: ENDBRANCH  11  14
DOCKED: ENDBRANCH   5  12
DOCKED: ENDBRANCH   4   8
DOCKED: ENDBRANCH   1   4
DOCKED: BRANCH   1  19
DOCKED: ATOM     19  C   UNL     1      29.289 -17.481  -2.173 -0.07 -0.00    +0.000 C 
DOCKED: BRANCH  19  20
DOCKED: ATOM     20  C   UNL     1      30.563 -16.923  -2.830 -0.17 -0.00    +0.000 C 
DOCKED: BRANCH  20  21
DOCKED: ATOM     21  C   UNL     1      30.461 -17.012  -4.326 -0.21 -0.00    +0.000 A 
DOCKED: ATOM     22  C   UNL     1      30.051 -16.013  -5.210 -0.24 -0.00    +0.000 A 
DOCKED: ATOM     23  N   UNL     1      30.021 -16.481  -6.480 -0.35 -0.00    +0.000 N 
DOCKED: ATOM     24  C   UNL     1      30.387 -17.772  -6.404 -0.33 -0.00    +0.000 A 
DOCKED: ATOM     25  C   UNL     1      30.658 -18.134  -5.107 -0.27 -0.00    +0.000 A 
DOCKED: ATOM     26  C   UNL     1      31.035 -19.435  -4.772 -0.23 -0.00    +0.000 A 
DOCKED: ATOM     27  C   UNL     1      31.142 -20.376  -5.812 -0.29 -0.00    +0.000 A 
DOCKED: ATOM     28  C   UNL     1      30.869 -20.003  -7.147 -0.36 -0.00    +0.000 A 
DOCKED: ATOM     29  C   UNL     1      30.484 -18.685  -7.454 -0.27 -0.00    +0.000 A 
DOCKED: ATOM     30  C   UNL     1      29.696 -14.609  -4.837 -0.17 -0.00    +0.000 C 
DOCKED: ATOM     31  H   UNL     1      29.778 -15.980  -7.292 -0.06 -0.00    +0.000 HD
DOCKED: ENDBRANCH  20  21
DOCKED: ENDBRANCH  19  20
DOCKED: ENDBRANCH   1  19
DOCKED: TORSDOF 8
DOCKED: TER
DOCKED: ENDMDL
________________________________________________________________________________


	BEGINNING GENETIC ALGORITHM DOCKING 24 of 100
Run: 24 Seed: 278177500 2124910620 [ Run 24 of 100 GA/GALS ]
Beginning LAMARCKIAN GENETIC ALGORITHM (LGA), with a maximum of 2500000 energy evaluations.

Final-Value: -16.342


	FINAL GENETIC ALGORITHM DOCKED STATE
	_______________________________________________


Detailed state:  trans 28.480 -16.356 -0.118 quatxyzw -0.221891 0.671946 0.651275 0.274035 center 0.693 0.091 0.076 ntor 8 18.6714 -148.7398 17.7931 158.2184 -138.9329 -180.0000 -171.7722 31.0185
State:	 28.480 -16.356  -0.118  -0.231  0.699  0.677 148.191     18.67 -148.74   17.79  158.22 -138.93 -180.00 -171.77   31.02

DOCKED: MODEL       24
DOCKED: USER    Run = 24
DOCKED: USER    DPF = ligand_dock.biased.dpf
DOCKED: USER  
DOCKED: USER    Estimated Free Energy of Binding    =  -11.88 kcal/mol  [=(1)+(2)+(3)-(4)]
DOCKED: USER    Estimated Inhibition Constant, Ki   =    1.95 nM (nanomolar)  [Temperature = 298.15 K]
DOCKED: USER    
DOCKED: USER    (1) Final Intermolecular Energy     =  -14.27 kcal/mol
DOCKED: USER        vdW + Hbond + desolv Energy     =  -14.27 kcal/mol
DOCKED: USER        Electrostatic Energy            =   +0.00 kcal/mol
DOCKED: USER    (2) Final Total Internal Energy     =   -2.07 kcal/mol
DOCKED: USER    (3) Torsional Free Energy           =   +2.39 kcal/mol
DOCKED: USER    (4) Unbound System's Energy  [=(2)] =   -2.07 kcal/mol
DOCKED: USER    
DOCKED: USER    
DOCKED: USER    NEWDPF move ligand.pdbqt
DOCKED: USER    NEWDPF about 0.693000 0.091000 0.076000
DOCKED: USER    NEWDPF tran0 28.480110 -16.356283 -0.117996
DOCKED: USER    NEWDPF quaternion0 -0.221891 0.671946 0.651275 0.274035
DOCKED: USER    NEWDPF axisangle0 -0.230723 0.698692 0.677198 148.190983
DOCKED: USER    NEWDPF quat0 -0.230723 0.698692 0.677198 148.190983
DOCKED: USER    NEWDPF dihe0 18.67 -148.74 17.79 158.22 -138.93 -180.00 -171.77 31.02 
DOCKED: USER  keepresnum = 1 
DOCKED: USER  
DOCKED: REMARK  Name = 
DOCKED: REMARK  9 active torsions:
DOCKED: REMARK  status: ('A' for Active; 'I' for Inactive)
DOCKED: REMARK    1  A    between atoms: C_2  and  C_3
DOCKED: REMARK    2  A    between atoms: C_4  and  C_5
DOCKED: REMARK    3  A    between atoms: C_8  and  C_9
DOCKED: REMARK    4  A    between atoms: C_9  and  N_10
DOCKED: REMARK    5  A    between atoms: N_10  and  C_11
DOCKED: REMARK    6  A    between atoms: C_11  and  C_12
DOCKED: REMARK    7  A    between atoms: C_12  and  C_13
DOCKED: REMARK    8  A    between atoms: C_14  and  C_22
DOCKED: REMARK    9  A    between atoms: N_25  and  O_26
DOCKED: REMARK                            x       y       z     vdW  Elec       q    Type
DOCKED: REMARK                         _______ _______ _______ _____ _____    ______ ____
DOCKED: USER                              x       y       z     vdW  Elec       q    Type
DOCKED: USER                           _______ _______ _______ _____ _____    ______ ____
DOCKED: ROOT
DOCKED: ATOM      1  N   UNL     1      29.344 -15.748   0.482 -0.06 -0.00    +0.000 N 
DOCKED: ATOM      2  H   UNL     1      29.848 -16.490   0.967 -0.61 -0.00    +0.000 HD
DOCKED: ATOM      3  H   UNL     1      28.509 -15.466   0.996 -0.56 -0.00    +0.000 HD
DOCKED: ENDROOT
DOCKED: BRANCH   1   4
DOCKED: ATOM      4  C   UNL     1      28.913 -16.249  -0.829 -0.26 -0.00    +0.000 C 
DOCKED: BRANCH   4   8
DOCKED: ATOM      5  C   UNL     1      24.686 -17.161  -0.802 -0.59 -0.00    +0.000 A 
DOCKED: ATOM      6  C   UNL     1      25.625 -18.101  -0.331 -0.61 -0.00    +0.000 A 
DOCKED: ATOM      7  C   UNL     1      26.990 -17.801  -0.336 -0.47 -0.00    +0.000 A 
DOCKED: ATOM      8  C   UNL     1      27.442 -16.554  -0.790 -0.37 -0.00    +0.000 A 
DOCKED: ATOM      9  C   UNL     1      26.511 -15.616  -1.259 -0.36 -0.00    +0.000 A 
DOCKED: ATOM     10  C   UNL     1      25.145 -15.913  -1.254 -0.42 -0.00    +0.000 A 
DOCKED: BRANCH   5  12
DOCKED: ATOM     11  C   UNL     1      22.690 -18.610  -0.477 -0.84 -0.00    +0.000 C 
DOCKED: ATOM     12  C   UNL     1      23.226 -17.426  -0.804 -0.75 -0.00    +0.000 C 
DOCKED: BRANCH  11  14
DOCKED: ATOM     13  O   UNL     1      20.482 -18.040  -1.067 -2.16 -0.00    +0.000 OA
DOCKED: ATOM     14  C   UNL     1      21.237 -18.874  -0.499 -0.85 -0.00    +0.000 C 
DOCKED: ATOM     15  N   UNL     1      20.668 -20.060   0.072 -0.70 -0.00    +0.000 N 
DOCKED: ATOM     16  H   UNL     1      21.256 -20.767   0.419 -0.56 -0.00    +0.000 HD
DOCKED: BRANCH  15  17
DOCKED: ATOM     17  O   UNL     1      19.323 -20.209   0.135 -0.84 -0.00    +0.000 OA
DOCKED: ATOM     18  H   UNL     1      18.901 -19.598  -0.490 -0.15 -0.00    +0.000 HD
DOCKED: ENDBRANCH  15  17
DOCKED: ENDBRANCH  11  14
DOCKED: ENDBRANCH   5  12
DOCKED: ENDBRANCH   4   8
DOCKED: ENDBRANCH   1   4
DOCKED: BRANCH   1  19
DOCKED: ATOM     19  C   UNL     1      30.222 -14.573   0.371 -0.12 -0.00    +0.000 C 
DOCKED: BRANCH  19  20
DOCKED: ATOM     20  C   UNL     1      29.518 -13.271   0.790 -0.09 -0.00    +0.000 C 
DOCKED: BRANCH  20  21
DOCKED: ATOM     21  C   UNL     1      28.760 -13.475   2.071 -0.18 -0.00    +0.000 A 
DOCKED: ATOM     22  C   UNL     1      27.375 -13.519   2.240 -0.29 -0.00    +0.000 A 
DOCKED: ATOM     23  N   UNL     1      27.058 -13.650   3.550 -0.45 -0.00    +0.000 N 
DOCKED: ATOM     24  C   UNL     1      28.227 -13.668   4.211 -0.42 -0.00    +0.000 A 
DOCKED: ATOM     25  C   UNL     1      29.287 -13.557   3.345 -0.22 -0.00    +0.000 A 
DOCKED: ATOM     26  C   UNL     1      30.606 -13.528   3.799 -0.17 -0.00    +0.000 A 
DOCKED: ATOM     27  C   UNL     1      30.826 -13.625   5.185 -0.21 -0.00    +0.000 A 
DOCKED: ATOM     28  C   UNL     1      29.736 -13.743   6.076 -0.29 -0.00    +0.000 A 
DOCKED: ATOM     29  C   UNL     1      28.416 -13.764   5.589 -0.41 -0.00    +0.000 A 
DOCKED: ATOM     30  C   UNL     1      26.359 -13.443   1.146 -0.23 -0.00    +0.000 C 
DOCKED: ATOM     31  H   UNL     1      26.155 -13.716   3.938 -0.03 -0.00    +0.000 HD
DOCKED: ENDBRANCH  20  21
DOCKED: ENDBRANCH  19  20
DOCKED: ENDBRANCH   1  19
DOCKED: TORSDOF 8
DOCKED: TER
DOCKED: ENDMDL
________________________________________________________________________________


	BEGINNING GENETIC ALGORITHM DOCKING 25 of 100
Run: 25 Seed: 520190838 1378804848 [ Run 25 of 100 GA/GALS ]
Beginning LAMARCKIAN GENETIC ALGORITHM (LGA), with a maximum of 2500000 energy evaluations.

Final-Value: -17.440


	FINAL GENETIC ALGORITHM DOCKED STATE
	_______________________________________________


Detailed state:  trans 29.113 -16.197 0.790 quatxyzw 0.438663 -0.522534 -0.423540 -0.595941 center 0.693 0.091 0.076 ntor 8 43.0984 96.6702 -114.2676 22.9317 -82.1117 -178.6030 -2.0023 91.7182
State:	 29.113 -16.197   0.790   0.546 -0.651 -0.527 -106.840     43.10   96.67 -114.27   22.93  -82.11 -178.60   -2.00   91.72

DOCKED: MODEL       25
DOCKED: USER    Run = 25
DOCKED: USER    DPF = ligand_dock.biased.dpf
DOCKED: USER  
DOCKED: USER    Estimated Free Energy of Binding    =  -13.45 kcal/mol  [=(1)+(2)+(3)-(4)]
DOCKED: USER    Estimated Inhibition Constant, Ki   =  137.83 pM (picomolar)  [Temperature = 298.15 K]
DOCKED: USER    
DOCKED: USER    (1) Final Intermolecular Energy     =  -15.84 kcal/mol
DOCKED: USER        vdW + Hbond + desolv Energy     =  -15.84 kcal/mol
DOCKED: USER        Electrostatic Energy            =   +0.00 kcal/mol
DOCKED: USER    (2) Final Total Internal Energy     =   -1.60 kcal/mol
DOCKED: USER    (3) Torsional Free Energy           =   +2.39 kcal/mol
DOCKED: USER    (4) Unbound System's Energy  [=(2)] =   -1.60 kcal/mol
DOCKED: USER    
DOCKED: USER    
DOCKED: USER    NEWDPF move ligand.pdbqt
DOCKED: USER    NEWDPF about 0.693000 0.091000 0.076000
DOCKED: USER    NEWDPF tran0 29.112800 -16.196862 0.790165
DOCKED: USER    NEWDPF quaternion0 0.438663 -0.522534 -0.423540 -0.595941
DOCKED: USER    NEWDPF axisangle0 0.546261 -0.650705 -0.527429 -106.840443
DOCKED: USER    NEWDPF quat0 0.546261 -0.650705 -0.527429 -106.840443
DOCKED: USER    NEWDPF dihe0 43.10 96.67 -114.27 22.93 -82.11 -178.60 -2.00 91.72 
DOCKED: USER  keepresnum = 1 
DOCKED: USER  
DOCKED: REMARK  Name = 
DOCKED: REMARK  9 active torsions:
DOCKED: REMARK  status: ('A' for Active; 'I' for Inactive)
DOCKED: REMARK    1  A    between atoms: C_2  and  C_3
DOCKED: REMARK    2  A    between atoms: C_4  and  C_5
DOCKED: REMARK    3  A    between atoms: C_8  and  C_9
DOCKED: REMARK    4  A    between atoms: C_9  and  N_10
DOCKED: REMARK    5  A    between atoms: N_10  and  C_11
DOCKED: REMARK    6  A    between atoms: C_11  and  C_12
DOCKED: REMARK    7  A    between atoms: C_12  and  C_13
DOCKED: REMARK    8  A    between atoms: C_14  and  C_22
DOCKED: REMARK    9  A    between atoms: N_25  and  O_26
DOCKED: REMARK                            x       y       z     vdW  Elec       q    Type
DOCKED: REMARK                         _______ _______ _______ _____ _____    ______ ____
DOCKED: USER                              x       y       z     vdW  Elec       q    Type
DOCKED: USER                           _______ _______ _______ _____ _____    ______ ____
DOCKED: ROOT
DOCKED: ATOM      1  N   UNL     1      29.159 -15.050   1.189 -0.06 -0.00    +0.000 N 
DOCKED: ATOM      2  H   UNL     1      30.081 -14.998   1.622 -0.56 -0.00    +0.000 HD
DOCKED: ATOM      3  H   UNL     1      28.471 -15.454   1.825 -1.23 -0.00    +0.000 HD
DOCKED: ENDROOT
DOCKED: BRANCH   1   4
DOCKED: ATOM      4  C   UNL     1      29.240 -15.919   0.008 -0.17 -0.00    +0.000 C 
DOCKED: BRANCH   4   8
DOCKED: ATOM      5  C   UNL     1      25.218 -16.999  -1.155 -0.57 -0.00    +0.000 A 
DOCKED: ATOM      6  C   UNL     1      25.800 -15.801  -1.617 -0.44 -0.00    +0.000 A 
DOCKED: ATOM      7  C   UNL     1      27.102 -15.457  -1.243 -0.30 -0.00    +0.000 A 
DOCKED: ATOM      8  C   UNL     1      27.854 -16.310  -0.422 -0.31 -0.00    +0.000 A 
DOCKED: ATOM      9  C   UNL     1      27.279 -17.503   0.038 -0.25 -0.00    +0.000 A 
DOCKED: ATOM     10  C   UNL     1      25.977 -17.849  -0.335 -0.59 -0.00    +0.000 A 
DOCKED: BRANCH   5  12
DOCKED: ATOM     11  C   UNL     1      22.971 -17.954  -0.674 -0.82 -0.00    +0.000 C 
DOCKED: ATOM     12  C   UNL     1      23.845 -17.414  -1.535 -0.64 -0.00    +0.000 C 
DOCKED: BRANCH  11  14
DOCKED: ATOM     13  O   UNL     1      20.639 -17.636  -0.774 -2.18 -0.00    +0.000 OA
DOCKED: ATOM     14  C   UNL     1      21.612 -18.383  -1.063 -0.75 -0.00    +0.000 C 
DOCKED: ATOM     15  N   UNL     1      21.373 -19.598  -1.784 -0.53 -0.00    +0.000 N 
DOCKED: ATOM     16  H   UNL     1      22.132 -20.133  -2.110 -0.53 -0.00    +0.000 HD
DOCKED: BRANCH  15  17
DOCKED: ATOM     17  O   UNL     1      20.105 -20.013  -2.019 -1.81 -0.00    +0.000 OA
DOCKED: ATOM     18  H   UNL     1      19.562 -19.257  -2.291 -0.31 -0.00    +0.000 HD
DOCKED: ENDBRANCH  15  17
DOCKED: ENDBRANCH  11  14
DOCKED: ENDBRANCH   5  12
DOCKED: ENDBRANCH   4   8
DOCKED: ENDBRANCH   1   4
DOCKED: BRANCH   1  19
DOCKED: ATOM     19  C   UNL     1      28.716 -13.689   0.853 -0.17 -0.00    +0.000 C 
DOCKED: BRANCH  19  20
DOCKED: ATOM     20  C   UNL     1      27.286 -13.399   1.339 -0.30 -0.00    +0.000 C 
DOCKED: BRANCH  20  21
DOCKED: ATOM     21  C   UNL     1      27.318 -12.564   2.588 -0.28 -0.00    +0.000 A 
DOCKED: ATOM     22  C   UNL     1      26.844 -11.260   2.750 -0.24 +0.00    +0.000 A 
DOCKED: ATOM     23  N   UNL     1      27.109 -10.808   3.999 -0.29 +0.00    +0.000 N 
DOCKED: ATOM     24  C   UNL     1      27.763 -11.804   4.619 -0.32 +0.00    +0.000 A 
DOCKED: ATOM     25  C   UNL     1      27.916 -12.888   3.790 -0.33 -0.00    +0.000 A 
DOCKED: ATOM     26  C   UNL     1      28.586 -14.039   4.203 -0.42 -0.00    +0.000 A 
DOCKED: ATOM     27  C   UNL     1      29.102 -14.065   5.512 -0.33 -0.00    +0.000 A 
DOCKED: ATOM     28  C   UNL     1      28.942 -12.952   6.367 -0.37 -0.00    +0.000 A 
DOCKED: ATOM     29  C   UNL     1      28.265 -11.802   5.920 -0.35 +0.00    +0.000 A 
DOCKED: ATOM     30  C   UNL     1      26.132 -10.454   1.711 -0.37 +0.00    +0.000 C 
DOCKED: ATOM     31  H   UNL     1      26.872  -9.929   4.373 -0.03 +0.00    +0.000 HD
DOCKED: ENDBRANCH  20  21
DOCKED: ENDBRANCH  19  20
DOCKED: ENDBRANCH   1  19
DOCKED: TORSDOF 8
DOCKED: TER
DOCKED: ENDMDL
________________________________________________________________________________


	BEGINNING GENETIC ALGORITHM DOCKING 26 of 100
Run: 26 Seed: 917744118 47713541 [ Run 26 of 100 GA/GALS ]
Beginning LAMARCKIAN GENETIC ALGORITHM (LGA), with a maximum of 2500000 energy evaluations.

Final-Value: -15.933


	FINAL GENETIC ALGORITHM DOCKED STATE
	_______________________________________________


Detailed state:  trans 27.668 -15.927 -0.290 quatxyzw 0.050986 -0.605581 -0.770585 -0.192019 center 0.693 0.091 0.076 ntor 8 3.7587 52.5221 -136.3271 -178.1800 -164.3543 175.2714 -130.0550 -12.3963
State:	 27.668 -15.927  -0.290   0.052 -0.617 -0.785 -157.859      3.76   52.52 -136.33 -178.18 -164.35  175.27 -130.06  -12.40

DOCKED: MODEL       26
DOCKED: USER    Run = 26
DOCKED: USER    DPF = ligand_dock.biased.dpf
DOCKED: USER  
DOCKED: USER    Estimated Free Energy of Binding    =  -11.73 kcal/mol  [=(1)+(2)+(3)-(4)]
DOCKED: USER    Estimated Inhibition Constant, Ki   =    2.51 nM (nanomolar)  [Temperature = 298.15 K]
DOCKED: USER    
DOCKED: USER    (1) Final Intermolecular Energy     =  -14.12 kcal/mol
DOCKED: USER        vdW + Hbond + desolv Energy     =  -14.12 kcal/mol
DOCKED: USER        Electrostatic Energy            =   +0.00 kcal/mol
DOCKED: USER    (2) Final Total Internal Energy     =   -1.81 kcal/mol
DOCKED: USER    (3) Torsional Free Energy           =   +2.39 kcal/mol
DOCKED: USER    (4) Unbound System's Energy  [=(2)] =   -1.81 kcal/mol
DOCKED: USER    
DOCKED: USER    
DOCKED: USER    NEWDPF move ligand.pdbqt
DOCKED: USER    NEWDPF about 0.693000 0.091000 0.076000
DOCKED: USER    NEWDPF tran0 27.667579 -15.926564 -0.289530
DOCKED: USER    NEWDPF quaternion0 0.050986 -0.605581 -0.770585 -0.192019
DOCKED: USER    NEWDPF axisangle0 0.051953 -0.617064 -0.785196 -157.858677
DOCKED: USER    NEWDPF quat0 0.051953 -0.617064 -0.785196 -157.858677
DOCKED: USER    NEWDPF dihe0 3.76 52.52 -136.33 -178.18 -164.35 175.27 -130.06 -12.40 
DOCKED: USER  keepresnum = 1 
DOCKED: USER  
DOCKED: REMARK  Name = 
DOCKED: REMARK  9 active torsions:
DOCKED: REMARK  status: ('A' for Active; 'I' for Inactive)
DOCKED: REMARK    1  A    between atoms: C_2  and  C_3
DOCKED: REMARK    2  A    between atoms: C_4  and  C_5
DOCKED: REMARK    3  A    between atoms: C_8  and  C_9
DOCKED: REMARK    4  A    between atoms: C_9  and  N_10
DOCKED: REMARK    5  A    between atoms: N_10  and  C_11
DOCKED: REMARK    6  A    between atoms: C_11  and  C_12
DOCKED: REMARK    7  A    between atoms: C_12  and  C_13
DOCKED: REMARK    8  A    between atoms: C_14  and  C_22
DOCKED: REMARK    9  A    between atoms: N_25  and  O_26
DOCKED: REMARK                            x       y       z     vdW  Elec       q    Type
DOCKED: REMARK                         _______ _______ _______ _____ _____    ______ ____
DOCKED: USER                              x       y       z     vdW  Elec       q    Type
DOCKED: USER                           _______ _______ _______ _____ _____    ______ ____
DOCKED: ROOT
DOCKED: ATOM      1  N   UNL     1      28.782 -15.801   0.177 -0.20 -0.00    +0.000 N 
DOCKED: ATOM      2  H   UNL     1      29.036 -16.759   0.418 -0.53 -0.00    +0.000 HD
DOCKED: ATOM      3  H   UNL     1      28.213 -15.371   0.906 -0.32 -0.00    +0.000 HD
DOCKED: ENDROOT
DOCKED: BRANCH   1   4
DOCKED: ATOM      4  C   UNL     1      27.988 -15.820  -1.058 -0.30 -0.00    +0.000 C 
DOCKED: BRANCH   4   8
DOCKED: ATOM      5  C   UNL     1      24.409 -18.180  -0.501 -0.68 -0.00    +0.000 A 
DOCKED: ATOM      6  C   UNL     1      25.644 -18.620   0.015 -0.43 -0.00    +0.000 A 
DOCKED: ATOM      7  C   UNL     1      26.798 -17.853  -0.162 -0.47 -0.00    +0.000 A 
DOCKED: ATOM      8  C   UNL     1      26.738 -16.625  -0.837 -0.43 -0.00    +0.000 A 
DOCKED: ATOM      9  C   UNL     1      25.511 -16.183  -1.352 -0.49 -0.00    +0.000 A 
DOCKED: ATOM     10  C   UNL     1      24.355 -16.949  -1.175 -0.59 -0.00    +0.000 A 
DOCKED: BRANCH   5  12
DOCKED: ATOM     11  C   UNL     1      22.069 -18.784  -1.095 -0.82 -0.00    +0.000 C 
DOCKED: ATOM     12  C   UNL     1      23.153 -18.953  -0.327 -0.73 -0.00    +0.000 C 
DOCKED: BRANCH  11  14
DOCKED: ATOM     13  O   UNL     1      20.134 -19.843  -1.920 -1.84 -0.00    +0.000 OA
DOCKED: ATOM     14  C   UNL     1      20.816 -19.542  -0.905 -0.85 -0.00    +0.000 C 
DOCKED: ATOM     15  N   UNL     1      20.374 -19.973   0.389 -0.71 -0.00    +0.000 N 
DOCKED: ATOM     16  H   UNL     1      20.952 -19.840   1.174 -0.47 -0.00    +0.000 HD
DOCKED: BRANCH  15  17
DOCKED: ATOM     17  O   UNL     1      19.163 -20.564   0.535 -0.79 -0.00    +0.000 OA
DOCKED: ATOM     18  H   UNL     1      18.750 -20.673  -0.336 -0.25 -0.00    +0.000 HD
DOCKED: ENDBRANCH  15  17
DOCKED: ENDBRANCH  11  14
DOCKED: ENDBRANCH   5  12
DOCKED: ENDBRANCH   4   8
DOCKED: ENDBRANCH   1   4
DOCKED: BRANCH   1  19
DOCKED: ATOM     19  C   UNL     1      30.012 -15.006   0.040 -0.14 -0.00    +0.000 C 
DOCKED: BRANCH  19  20
DOCKED: ATOM     20  C   UNL     1      29.893 -13.621   0.698 -0.09 -0.00    +0.000 C 
DOCKED: BRANCH  20  21
DOCKED: ATOM     21  C   UNL     1      28.779 -13.615   1.705 -0.17 -0.00    +0.000 A 
DOCKED: ATOM     22  C   UNL     1      27.424 -13.374   1.472 -0.25 -0.00    +0.000 A 
DOCKED: ATOM     23  N   UNL     1      26.730 -13.383   2.635 -0.35 -0.00    +0.000 N 
DOCKED: ATOM     24  C   UNL     1      27.636 -13.606   3.602 -0.40 -0.00    +0.000 A 
DOCKED: ATOM     25  C   UNL     1      28.897 -13.746   3.076 -0.25 -0.00    +0.000 A 
DOCKED: ATOM     26  C   UNL     1      30.011 -13.961   3.887 -0.26 -0.00    +0.000 A 
DOCKED: ATOM     27  C   UNL     1      29.805 -14.041   5.277 -0.31 -0.00    +0.000 A 
DOCKED: ATOM     28  C   UNL     1      28.508 -13.902   5.818 -0.31 -0.00    +0.000 A 
DOCKED: ATOM     29  C   UNL     1      27.404 -13.680   4.975 -0.43 -0.00    +0.000 A 
DOCKED: ATOM     30  C   UNL     1      26.796 -13.143   0.135 -0.28 -0.00    +0.000 C 
DOCKED: ATOM     31  H   UNL     1      25.761 -13.251   2.748 +0.01 +0.00    +0.000 HD
DOCKED: ENDBRANCH  20  21
DOCKED: ENDBRANCH  19  20
DOCKED: ENDBRANCH   1  19
DOCKED: TORSDOF 8
DOCKED: TER
DOCKED: ENDMDL
________________________________________________________________________________


	BEGINNING GENETIC ALGORITHM DOCKING 27 of 100
Run: 27 Seed: 2074842939 1227798165 [ Run 27 of 100 GA/GALS ]
Beginning LAMARCKIAN GENETIC ALGORITHM (LGA), with a maximum of 2500000 energy evaluations.

Final-Value: -15.089


	FINAL GENETIC ALGORITHM DOCKED STATE
	_______________________________________________


Detailed state:  trans 27.824 -16.915 -1.915 quatxyzw -0.009518 -0.302192 0.936971 0.175142 center 0.693 0.091 0.076 ntor 8 14.2214 38.2252 37.2207 15.7667 140.0769 -49.5367 157.6478 20.3111
State:	 27.824 -16.915  -1.915  -0.010 -0.307  0.952 159.826     14.22   38.23   37.22   15.77  140.08  -49.54  157.65   20.31

DOCKED: MODEL       27
DOCKED: USER    Run = 27
DOCKED: USER    DPF = ligand_dock.biased.dpf
DOCKED: USER  
DOCKED: USER    Estimated Free Energy of Binding    =  -10.88 kcal/mol  [=(1)+(2)+(3)-(4)]
DOCKED: USER    Estimated Inhibition Constant, Ki   =   10.62 nM (nanomolar)  [Temperature = 298.15 K]
DOCKED: USER    
DOCKED: USER    (1) Final Intermolecular Energy     =  -13.26 kcal/mol
DOCKED: USER        vdW + Hbond + desolv Energy     =  -13.26 kcal/mol
DOCKED: USER        Electrostatic Energy            =   +0.00 kcal/mol
DOCKED: USER    (2) Final Total Internal Energy     =   -1.82 kcal/mol
DOCKED: USER    (3) Torsional Free Energy           =   +2.39 kcal/mol
DOCKED: USER    (4) Unbound System's Energy  [=(2)] =   -1.82 kcal/mol
DOCKED: USER    
DOCKED: USER    
DOCKED: USER    NEWDPF move ligand.pdbqt
DOCKED: USER    NEWDPF about 0.693000 0.091000 0.076000
DOCKED: USER    NEWDPF tran0 27.824017 -16.915207 -1.914648
DOCKED: USER    NEWDPF quaternion0 -0.009518 -0.302192 0.936971 0.175142
DOCKED: USER    NEWDPF axisangle0 -0.009667 -0.306936 0.951681 159.826141
DOCKED: USER    NEWDPF quat0 -0.009667 -0.306936 0.951681 159.826141
DOCKED: USER    NEWDPF dihe0 14.22 38.23 37.22 15.77 140.08 -49.54 157.65 20.31 
DOCKED: USER  keepresnum = 1 
DOCKED: USER  
DOCKED: REMARK  Name = 
DOCKED: REMARK  9 active torsions:
DOCKED: REMARK  status: ('A' for Active; 'I' for Inactive)
DOCKED: REMARK    1  A    between atoms: C_2  and  C_3
DOCKED: REMARK    2  A    between atoms: C_4  and  C_5
DOCKED: REMARK    3  A    between atoms: C_8  and  C_9
DOCKED: REMARK    4  A    between atoms: C_9  and  N_10
DOCKED: REMARK    5  A    between atoms: N_10  and  C_11
DOCKED: REMARK    6  A    between atoms: C_11  and  C_12
DOCKED: REMARK    7  A    between atoms: C_12  and  C_13
DOCKED: REMARK    8  A    between atoms: C_14  and  C_22
DOCKED: REMARK    9  A    between atoms: N_25  and  O_26
DOCKED: REMARK                            x       y       z     vdW  Elec       q    Type
DOCKED: REMARK                         _______ _______ _______ _____ _____    ______ ____
DOCKED: USER                              x       y       z     vdW  Elec       q    Type
DOCKED: USER                           _______ _______ _______ _____ _____    ______ ____
DOCKED: ROOT
DOCKED: ATOM      1  N   UNL     1      28.980 -17.045  -2.264 -0.26 -0.00    +0.000 N 
DOCKED: ATOM      2  H   UNL     1      28.923 -16.942  -3.278 -0.02 -0.00    +0.000 HD
DOCKED: ATOM      3  H   UNL     1      28.754 -17.996  -1.973 -0.01 -0.00    +0.000 HD
DOCKED: ENDROOT
DOCKED: BRANCH   1   4
DOCKED: ATOM      4  C   UNL     1      28.004 -16.141  -1.643 -0.32 -0.00    +0.000 C 
DOCKED: BRANCH   4   8
DOCKED: ATOM      5  C   UNL     1      24.284 -18.212  -0.888 -0.70 -0.00    +0.000 A 
DOCKED: ATOM      6  C   UNL     1      24.339 -17.153  -1.817 -0.54 -0.00    +0.000 A 
DOCKED: ATOM      7  C   UNL     1      25.543 -16.489  -2.063 -0.51 -0.00    +0.000 A 
DOCKED: ATOM      8  C   UNL     1      26.718 -16.882  -1.404 -0.43 -0.00    +0.000 A 
DOCKED: ATOM      9  C   UNL     1      26.668 -17.935  -0.480 -0.51 -0.00    +0.000 A 
DOCKED: ATOM     10  C   UNL     1      25.463 -18.601  -0.233 -0.51 -0.00    +0.000 A 
DOCKED: BRANCH   5  12
DOCKED: ATOM     11  C   UNL     1      21.932 -18.871  -1.364 -0.68 -0.00    +0.000 C 
DOCKED: ATOM     12  C   UNL     1      23.032 -18.957  -0.603 -0.80 -0.00    +0.000 C 
DOCKED: BRANCH  11  14
DOCKED: ATOM     13  O   UNL     1      19.848 -19.771  -1.993 -1.85 -0.00    +0.000 OA
DOCKED: ATOM     14  C   UNL     1      20.683 -19.600  -1.065 -0.86 -0.00    +0.000 C 
DOCKED: ATOM     15  N   UNL     1      20.410 -20.146   0.233 -0.70 -0.00    +0.000 N 
DOCKED: ATOM     16  H   UNL     1      21.100 -20.115   0.933 -0.54 -0.00    +0.000 HD
DOCKED: BRANCH  15  17
DOCKED: ATOM     17  O   UNL     1      19.204 -20.705   0.498 -0.79 -0.00    +0.000 OA
DOCKED: ATOM     18  H   UNL     1      18.731 -20.861  -0.334 -0.31 -0.00    +0.000 HD
DOCKED: ENDBRANCH  15  17
DOCKED: ENDBRANCH  11  14
DOCKED: ENDBRANCH   5  12
DOCKED: ENDBRANCH   4   8
DOCKED: ENDBRANCH   1   4
DOCKED: BRANCH   1  19
DOCKED: ATOM     19  C   UNL     1      30.358 -16.760  -1.837 -0.17 -0.00    +0.000 C 
DOCKED: BRANCH  19  20
DOCKED: ATOM     20  C   UNL     1      31.288 -16.447  -3.021 -0.09 -0.00    +0.000 C 
DOCKED: BRANCH  20  21
DOCKED: ATOM     21  C   UNL     1      30.913 -17.278  -4.215 -0.17 -0.00    +0.000 A 
DOCKED: ATOM     22  C   UNL     1      30.293 -16.847  -5.389 -0.27 -0.00    +0.000 A 
DOCKED: ATOM     23  N   UNL     1      30.048 -17.894  -6.213 -0.36 -0.00    +0.000 N 
DOCKED: ATOM     24  C   UNL     1      30.489 -18.984  -5.562 -0.33 -0.00    +0.000 A 
DOCKED: ATOM     25  C   UNL     1      31.016 -18.651  -4.338 -0.20 -0.00    +0.000 A 
DOCKED: ATOM     26  C   UNL     1      31.517 -19.617  -3.466 -0.15 -0.00    +0.000 A 
DOCKED: ATOM     27  C   UNL     1      31.475 -20.961  -3.882 -0.17 -0.00    +0.000 A 
DOCKED: ATOM     28  C   UNL     1      30.937 -21.304  -5.142 -0.30 -0.00    +0.000 A 
DOCKED: ATOM     29  C   UNL     1      30.434 -20.307  -5.998 -0.42 -0.00    +0.000 A 
DOCKED: ATOM     30  C   UNL     1      29.942 -15.432  -5.722 -0.28 -0.00    +0.000 C 
DOCKED: ATOM     31  H   UNL     1      29.632 -17.863  -7.104 -0.03 -0.00    +0.000 HD
DOCKED: ENDBRANCH  20  21
DOCKED: ENDBRANCH  19  20
DOCKED: ENDBRANCH   1  19
DOCKED: TORSDOF 8
DOCKED: TER
DOCKED: ENDMDL
________________________________________________________________________________


	BEGINNING GENETIC ALGORITHM DOCKING 28 of 100
Run: 28 Seed: 1509284434 31065120 [ Run 28 of 100 GA/GALS ]
Beginning LAMARCKIAN GENETIC ALGORITHM (LGA), with a maximum of 2500000 energy evaluations.

Final-Value: -16.108


	FINAL GENETIC ALGORITHM DOCKED STATE
	_______________________________________________


Detailed state:  trans 29.003 -17.484 -0.255 quatxyzw -0.283229 -0.006301 -0.958373 -0.035534 center 0.693 0.091 0.076 ntor 8 17.9524 179.9377 178.5212 43.1699 97.1298 34.3897 125.4520 -39.6897
State:	 29.003 -17.484  -0.255  -0.283 -0.006 -0.959 -175.927     17.95  179.94  178.52   43.17   97.13   34.39  125.45  -39.69

DOCKED: MODEL       28
DOCKED: USER    Run = 28
DOCKED: USER    DPF = ligand_dock.biased.dpf
DOCKED: USER  
DOCKED: USER    Estimated Free Energy of Binding    =  -11.79 kcal/mol  [=(1)+(2)+(3)-(4)]
DOCKED: USER    Estimated Inhibition Constant, Ki   =    2.27 nM (nanomolar)  [Temperature = 298.15 K]
DOCKED: USER    
DOCKED: USER    (1) Final Intermolecular Energy     =  -14.18 kcal/mol
DOCKED: USER        vdW + Hbond + desolv Energy     =  -14.18 kcal/mol
DOCKED: USER        Electrostatic Energy            =   +0.00 kcal/mol
DOCKED: USER    (2) Final Total Internal Energy     =   -1.93 kcal/mol
DOCKED: USER    (3) Torsional Free Energy           =   +2.39 kcal/mol
DOCKED: USER    (4) Unbound System's Energy  [=(2)] =   -1.93 kcal/mol
DOCKED: USER    
DOCKED: USER    
DOCKED: USER    NEWDPF move ligand.pdbqt
DOCKED: USER    NEWDPF about 0.693000 0.091000 0.076000
DOCKED: USER    NEWDPF tran0 29.003291 -17.483899 -0.254983
DOCKED: USER    NEWDPF quaternion0 -0.283229 -0.006301 -0.958373 -0.035534
DOCKED: USER    NEWDPF axisangle0 -0.283408 -0.006305 -0.958979 -175.927260
DOCKED: USER    NEWDPF quat0 -0.283408 -0.006305 -0.958979 -175.927260
DOCKED: USER    NEWDPF dihe0 17.95 179.94 178.52 43.17 97.13 34.39 125.45 -39.69 
DOCKED: USER  keepresnum = 1 
DOCKED: USER  
DOCKED: REMARK  Name = 
DOCKED: REMARK  9 active torsions:
DOCKED: REMARK  status: ('A' for Active; 'I' for Inactive)
DOCKED: REMARK    1  A    between atoms: C_2  and  C_3
DOCKED: REMARK    2  A    between atoms: C_4  and  C_5
DOCKED: REMARK    3  A    between atoms: C_8  and  C_9
DOCKED: REMARK    4  A    between atoms: C_9  and  N_10
DOCKED: REMARK    5  A    between atoms: N_10  and  C_11
DOCKED: REMARK    6  A    between atoms: C_11  and  C_12
DOCKED: REMARK    7  A    between atoms: C_12  and  C_13
DOCKED: REMARK    8  A    between atoms: C_14  and  C_22
DOCKED: REMARK    9  A    between atoms: N_25  and  O_26
DOCKED: REMARK                            x       y       z     vdW  Elec       q    Type
DOCKED: REMARK                         _______ _______ _______ _____ _____    ______ ____
DOCKED: USER                              x       y       z     vdW  Elec       q    Type
DOCKED: USER                           _______ _______ _______ _____ _____    ______ ____
DOCKED: ROOT
DOCKED: ATOM      1  N   UNL     1      29.829 -18.102  -0.896 -0.23 -0.00    +0.000 N 
DOCKED: ATOM      2  H   UNL     1      29.257 -18.613  -1.569 -0.03 -0.00    +0.000 HD
DOCKED: ATOM      3  H   UNL     1      29.872 -18.587   0.000 -0.56 -0.00    +0.000 HD
DOCKED: ENDROOT
DOCKED: BRANCH   1   4
DOCKED: ATOM      4  C   UNL     1      29.223 -16.785  -0.666 -0.26 -0.00    +0.000 C 
DOCKED: BRANCH   4   8
DOCKED: ATOM      5  C   UNL     1      24.913 -17.078  -0.864 -0.58 -0.00    +0.000 A 
DOCKED: ATOM      6  C   UNL     1      25.572 -15.908  -1.292 -0.45 -0.00    +0.000 A 
DOCKED: ATOM      7  C   UNL     1      26.966 -15.818  -1.232 -0.34 -0.00    +0.000 A 
DOCKED: ATOM      8  C   UNL     1      27.727 -16.899  -0.764 -0.37 -0.00    +0.000 A 
DOCKED: ATOM      9  C   UNL     1      27.076 -18.065  -0.337 -0.40 -0.00    +0.000 A 
DOCKED: ATOM     10  C   UNL     1      25.682 -18.157  -0.398 -0.61 -0.00    +0.000 A 
DOCKED: BRANCH   5  12
DOCKED: ATOM     11  C   UNL     1      22.817 -18.410  -1.006 -0.82 -0.00    +0.000 C 
DOCKED: ATOM     12  C   UNL     1      23.438 -17.226  -0.922 -0.71 -0.00    +0.000 C 
DOCKED: BRANCH  11  14
DOCKED: ATOM     13  O   UNL     1      20.631 -17.581  -0.719 -2.15 +0.00    +0.000 OA
DOCKED: ATOM     14  C   UNL     1      21.349 -18.551  -1.082 -0.77 -0.00    +0.000 C 
DOCKED: ATOM     15  N   UNL     1      20.721 -19.737  -1.587 -0.79 -0.00    +0.000 N 
DOCKED: ATOM     16  H   UNL     1      21.269 -20.455  -1.975 -0.43 -0.00    +0.000 HD
DOCKED: BRANCH  15  17
DOCKED: ATOM     17  O   UNL     1      19.373 -19.871  -1.532 -1.33 -0.00    +0.000 OA
DOCKED: ATOM     18  H   UNL     1      18.967 -19.001  -1.398 -0.56 -0.00    +0.000 HD
DOCKED: ENDBRANCH  15  17
DOCKED: ENDBRANCH  11  14
DOCKED: ENDBRANCH   5  12
DOCKED: ENDBRANCH   4   8
DOCKED: ENDBRANCH   1   4
DOCKED: BRANCH   1  19
DOCKED: ATOM     19  C   UNL     1      31.200 -18.003  -1.419 -0.17 -0.00    +0.000 C 
DOCKED: BRANCH  19  20
DOCKED: ATOM     20  C   UNL     1      31.364 -16.853  -2.427 -0.10 -0.00    +0.000 C 
DOCKED: BRANCH  20  21
DOCKED: ATOM     21  C   UNL     1      30.815 -17.252  -3.768 -0.16 -0.00    +0.000 A 
DOCKED: ATOM     22  C   UNL     1      30.004 -16.493  -4.613 -0.24 -0.00    +0.000 A 
DOCKED: ATOM     23  N   UNL     1      29.650 -17.209  -5.706 -0.34 -0.00    +0.000 N 
DOCKED: ATOM     24  C   UNL     1      30.212 -18.420  -5.549 -0.29 -0.00    +0.000 A 
DOCKED: ATOM     25  C   UNL     1      30.925 -18.487  -4.377 -0.21 -0.00    +0.000 A 
DOCKED: ATOM     26  C   UNL     1      31.579 -19.653  -3.982 -0.16 -0.00    +0.000 A 
DOCKED: ATOM     27  C   UNL     1      31.497 -20.772  -4.831 -0.21 -0.00    +0.000 A 
DOCKED: ATOM     28  C   UNL     1      30.768 -20.703  -6.039 -0.36 -0.00    +0.000 A 
DOCKED: ATOM     29  C   UNL     1      30.113 -19.514  -6.408 -0.34 -0.00    +0.000 A 
DOCKED: ATOM     30  C   UNL     1      29.576 -15.080  -4.375 -0.19 -0.00    +0.000 C 
DOCKED: ATOM     31  H   UNL     1      29.093 -16.906  -6.459 -0.03 -0.00    +0.000 HD
DOCKED: ENDBRANCH  20  21
DOCKED: ENDBRANCH  19  20
DOCKED: ENDBRANCH   1  19
DOCKED: TORSDOF 8
DOCKED: TER
DOCKED: ENDMDL
________________________________________________________________________________


	BEGINNING GENETIC ALGORITHM DOCKING 29 of 100
Run: 29 Seed: 681169238 793398067 [ Run 29 of 100 GA/GALS ]
Beginning LAMARCKIAN GENETIC ALGORITHM (LGA), with a maximum of 2500000 energy evaluations.

Final-Value: -15.675


	FINAL GENETIC ALGORITHM DOCKED STATE
	_______________________________________________


Detailed state:  trans 29.050 -15.392 -0.515 quatxyzw 0.128712 0.844881 0.395907 -0.335955 center 0.693 0.091 0.076 ntor 8 25.4924 -167.0887 -12.4264 178.0720 175.9637 -118.2772 175.7016 -54.2197
State:	 29.050 -15.392  -0.515   0.137  0.897  0.420 -140.739     25.49 -167.09  -12.43  178.07  175.96 -118.28  175.70  -54.22

DOCKED: MODEL       29
DOCKED: USER    Run = 29
DOCKED: USER    DPF = ligand_dock.biased.dpf
DOCKED: USER  
DOCKED: USER    Estimated Free Energy of Binding    =  -11.44 kcal/mol  [=(1)+(2)+(3)-(4)]
DOCKED: USER    Estimated Inhibition Constant, Ki   =    4.14 nM (nanomolar)  [Temperature = 298.15 K]
DOCKED: USER    
DOCKED: USER    (1) Final Intermolecular Energy     =  -13.82 kcal/mol
DOCKED: USER        vdW + Hbond + desolv Energy     =  -13.82 kcal/mol
DOCKED: USER        Electrostatic Energy            =   +0.00 kcal/mol
DOCKED: USER    (2) Final Total Internal Energy     =   -1.85 kcal/mol
DOCKED: USER    (3) Torsional Free Energy           =   +2.39 kcal/mol
DOCKED: USER    (4) Unbound System's Energy  [=(2)] =   -1.85 kcal/mol
DOCKED: USER    
DOCKED: USER    
DOCKED: USER    NEWDPF move ligand.pdbqt
DOCKED: USER    NEWDPF about 0.693000 0.091000 0.076000
DOCKED: USER    NEWDPF tran0 29.049734 -15.392090 -0.515281
DOCKED: USER    NEWDPF quaternion0 0.128712 0.844881 0.395907 -0.335955
DOCKED: USER    NEWDPF axisangle0 0.136655 0.897018 0.420338 -140.738699
DOCKED: USER    NEWDPF quat0 0.136655 0.897018 0.420338 -140.738699
DOCKED: USER    NEWDPF dihe0 25.49 -167.09 -12.43 178.07 175.96 -118.28 175.70 -54.22 
DOCKED: USER  keepresnum = 1 
DOCKED: USER  
DOCKED: REMARK  Name = 
DOCKED: REMARK  9 active torsions:
DOCKED: REMARK  status: ('A' for Active; 'I' for Inactive)
DOCKED: REMARK    1  A    between atoms: C_2  and  C_3
DOCKED: REMARK    2  A    between atoms: C_4  and  C_5
DOCKED: REMARK    3  A    between atoms: C_8  and  C_9
DOCKED: REMARK    4  A    between atoms: C_9  and  N_10
DOCKED: REMARK    5  A    between atoms: N_10  and  C_11
DOCKED: REMARK    6  A    between atoms: C_11  and  C_12
DOCKED: REMARK    7  A    between atoms: C_12  and  C_13
DOCKED: REMARK    8  A    between atoms: C_14  and  C_22
DOCKED: REMARK    9  A    between atoms: N_25  and  O_26
DOCKED: REMARK                            x       y       z     vdW  Elec       q    Type
DOCKED: REMARK                         _______ _______ _______ _____ _____    ______ ____
DOCKED: USER                              x       y       z     vdW  Elec       q    Type
DOCKED: USER                           _______ _______ _______ _____ _____    ______ ____
DOCKED: ROOT
DOCKED: ATOM      1  N   UNL     1      29.684 -15.495   0.516 -0.14 -0.00    +0.000 N 
DOCKED: ATOM      2  H   UNL     1      28.956 -15.634   1.217 -0.94 -0.00    +0.000 HD
DOCKED: ATOM      3  H   UNL     1      29.812 -14.506   0.302 -0.02 -0.00    +0.000 HD
DOCKED: ENDROOT
DOCKED: BRANCH   1   4
DOCKED: ATOM      4  C   UNL     1      29.282 -16.172  -0.723 -0.23 -0.00    +0.000 C 
DOCKED: BRANCH   4   8
DOCKED: ATOM      5  C   UNL     1      25.024 -16.926  -0.736 -0.54 -0.00    +0.000 A 
DOCKED: ATOM      6  C   UNL     1      25.928 -17.930  -0.333 -0.59 -0.00    +0.000 A 
DOCKED: ATOM      7  C   UNL     1      27.303 -17.681  -0.325 -0.38 -0.00    +0.000 A 
DOCKED: ATOM      8  C   UNL     1      27.800 -16.424  -0.697 -0.33 -0.00    +0.000 A 
DOCKED: ATOM      9  C   UNL     1      26.904 -15.423  -1.099 -0.31 -0.00    +0.000 A 
DOCKED: ATOM     10  C   UNL     1      25.528 -15.669  -1.107 -0.41 -0.00    +0.000 A 
DOCKED: BRANCH   5  12
DOCKED: ATOM     11  C   UNL     1      22.978 -18.300  -1.081 -0.82 -0.00    +0.000 C 
DOCKED: ATOM     12  C   UNL     1      23.555 -17.137  -0.749 -0.70 -0.00    +0.000 C 
DOCKED: BRANCH  11  14
DOCKED: ATOM     13  O   UNL     1      20.772 -17.563  -0.706 -2.12 +0.00    +0.000 OA
DOCKED: ATOM     14  C   UNL     1      21.515 -18.498  -1.110 -0.72 -0.00    +0.000 C 
DOCKED: ATOM     15  N   UNL     1      20.917 -19.700  -1.613 -0.74 -0.00    +0.000 N 
DOCKED: ATOM     16  H   UNL     1      21.480 -20.390  -2.031 -0.47 -0.00    +0.000 HD
DOCKED: BRANCH  15  17
DOCKED: ATOM     17  O   UNL     1      19.579 -19.890  -1.514 -1.52 -0.00    +0.000 OA
DOCKED: ATOM     18  H   UNL     1      19.133 -19.029  -1.471 -0.55 -0.00    +0.000 HD
DOCKED: ENDBRANCH  15  17
DOCKED: ENDBRANCH  11  14
DOCKED: ENDBRANCH   5  12
DOCKED: ENDBRANCH   4   8
DOCKED: ENDBRANCH   1   4
DOCKED: BRANCH   1  19
DOCKED: ATOM     19  C   UNL     1      30.956 -16.008   1.047 -0.01 -0.00    +0.000 C 
DOCKED: BRANCH  19  20
DOCKED: ATOM     20  C   UNL     1      31.518 -15.130   2.178 -0.17 -0.00    +0.000 C 
DOCKED: BRANCH  20  21
DOCKED: ATOM     21  C   UNL     1      30.598 -13.974   2.448 -0.13 -0.00    +0.000 A 
DOCKED: ATOM     22  C   UNL     1      30.622 -12.712   1.851 -0.04 -0.00    +0.000 A 
DOCKED: ATOM     23  N   UNL     1      29.682 -11.906   2.399 -0.07 -0.00    +0.000 N 
DOCKED: ATOM     24  C   UNL     1      29.078 -12.639   3.350 -0.16 -0.00    +0.000 A 
DOCKED: ATOM     25  C   UNL     1      29.613 -13.903   3.414 -0.24 -0.00    +0.000 A 
DOCKED: ATOM     26  C   UNL     1      29.166 -14.842   4.343 -0.35 -0.00    +0.000 A 
DOCKED: ATOM     27  C   UNL     1      28.132 -14.460   5.218 -0.42 -0.00    +0.000 A 
DOCKED: ATOM     28  C   UNL     1      27.579 -13.162   5.149 -0.38 -0.00    +0.000 A 
DOCKED: ATOM     29  C   UNL     1      28.055 -12.234   4.205 -0.30 -0.00    +0.000 A 
DOCKED: ATOM     30  C   UNL     1      31.542 -12.284   0.752 -0.01 -0.00    +0.000 C 
DOCKED: ATOM     31  H   UNL     1      29.483 -10.974   2.152 +0.00 -0.00    +0.000 HD
DOCKED: ENDBRANCH  20  21
DOCKED: ENDBRANCH  19  20
DOCKED: ENDBRANCH   1  19
DOCKED: TORSDOF 8
DOCKED: TER
DOCKED: ENDMDL
________________________________________________________________________________


	BEGINNING GENETIC ALGORITHM DOCKING 30 of 100
Run: 30 Seed: 1921724279 1859943365 [ Run 30 of 100 GA/GALS ]
Beginning LAMARCKIAN GENETIC ALGORITHM (LGA), with a maximum of 2500000 energy evaluations.

Final-Value: -16.135


	FINAL GENETIC ALGORITHM DOCKED STATE
	_______________________________________________


Detailed state:  trans 26.371 -17.382 -1.381 quatxyzw -0.528789 0.341015 -0.511347 -0.585333 center 0.693 0.091 0.076 ntor 8 20.4704 -168.3533 -66.1602 -2.0204 97.5469 163.3335 -170.4568 -87.4842
State:	 26.371 -17.382  -1.381  -0.652  0.421 -0.631 -108.347     20.47 -168.35  -66.16   -2.02   97.55  163.33 -170.46  -87.48

DOCKED: MODEL       30
DOCKED: USER    Run = 30
DOCKED: USER    DPF = ligand_dock.biased.dpf
DOCKED: USER  
DOCKED: USER    Estimated Free Energy of Binding    =  -11.98 kcal/mol  [=(1)+(2)+(3)-(4)]
DOCKED: USER    Estimated Inhibition Constant, Ki   =    1.66 nM (nanomolar)  [Temperature = 298.15 K]
DOCKED: USER    
DOCKED: USER    (1) Final Intermolecular Energy     =  -14.36 kcal/mol
DOCKED: USER        vdW + Hbond + desolv Energy     =  -14.36 kcal/mol
DOCKED: USER        Electrostatic Energy            =   +0.00 kcal/mol
DOCKED: USER    (2) Final Total Internal Energy     =   -1.77 kcal/mol
DOCKED: USER    (3) Torsional Free Energy           =   +2.39 kcal/mol
DOCKED: USER    (4) Unbound System's Energy  [=(2)] =   -1.77 kcal/mol
DOCKED: USER    
DOCKED: USER    
DOCKED: USER    NEWDPF move ligand.pdbqt
DOCKED: USER    NEWDPF about 0.693000 0.091000 0.076000
DOCKED: USER    NEWDPF tran0 26.370635 -17.381904 -1.380697
DOCKED: USER    NEWDPF quaternion0 -0.528789 0.341015 -0.511347 -0.585333
DOCKED: USER    NEWDPF axisangle0 -0.652188 0.420594 -0.630675 -108.346920
DOCKED: USER    NEWDPF quat0 -0.652188 0.420594 -0.630675 -108.346920
DOCKED: USER    NEWDPF dihe0 20.47 -168.35 -66.16 -2.02 97.55 163.33 -170.46 -87.48 
DOCKED: USER  keepresnum = 1 
DOCKED: USER  
DOCKED: REMARK  Name = 
DOCKED: REMARK  9 active torsions:
DOCKED: REMARK  status: ('A' for Active; 'I' for Inactive)
DOCKED: REMARK    1  A    between atoms: C_2  and  C_3
DOCKED: REMARK    2  A    between atoms: C_4  and  C_5
DOCKED: REMARK    3  A    between atoms: C_8  and  C_9
DOCKED: REMARK    4  A    between atoms: C_9  and  N_10
DOCKED: REMARK    5  A    between atoms: N_10  and  C_11
DOCKED: REMARK    6  A    between atoms: C_11  and  C_12
DOCKED: REMARK    7  A    between atoms: C_12  and  C_13
DOCKED: REMARK    8  A    between atoms: C_14  and  C_22
DOCKED: REMARK    9  A    between atoms: N_25  and  O_26
DOCKED: REMARK                            x       y       z     vdW  Elec       q    Type
DOCKED: REMARK                         _______ _______ _______ _____ _____    ______ ____
DOCKED: USER                              x       y       z     vdW  Elec       q    Type
DOCKED: USER                           _______ _______ _______ _____ _____    ______ ____
DOCKED: ROOT
DOCKED: ATOM      1  N   UNL     1      26.185 -16.508  -2.204 -0.45 -0.00    +0.000 N 
DOCKED: ATOM      2  H   UNL     1      25.495 -16.928  -2.828 -0.04 -0.00    +0.000 HD
DOCKED: ATOM      3  H   UNL     1      27.131 -16.806  -2.441 -0.02 -0.00    +0.000 HD
DOCKED: ENDROOT
DOCKED: BRANCH   1   4
DOCKED: ATOM      4  C   UNL     1      25.908 -16.947  -0.831 -0.58 -0.00    +0.000 C 
DOCKED: BRANCH   4   8
DOCKED: ATOM      5  C   UNL     1      21.964 -18.698  -0.554 -0.76 -0.00    +0.000 A 
DOCKED: ATOM      6  C   UNL     1      22.132 -17.299  -0.502 -0.64 -0.00    +0.000 A 
DOCKED: ATOM      7  C   UNL     1      23.407 -16.736  -0.597 -0.36 -0.00    +0.000 A 
DOCKED: ATOM      8  C   UNL     1      24.534 -17.554  -0.767 -0.65 -0.00    +0.000 A 
DOCKED: ATOM      9  C   UNL     1      24.371 -18.946  -0.820 -0.49 -0.00    +0.000 A 
DOCKED: ATOM     10  C   UNL     1      23.096 -19.511  -0.726 -0.49 -0.00    +0.000 A 
DOCKED: BRANCH   5  12
DOCKED: ATOM     11  C   UNL     1      20.061 -19.719   0.681 -0.77 -0.00    +0.000 C 
DOCKED: ATOM     12  C   UNL     1      20.629 -19.342  -0.472 -0.89 -0.00    +0.000 C 
DOCKED: BRANCH  11  14
DOCKED: ATOM     13  O   UNL     1      18.058 -20.479  -0.300 -0.82 -0.00    +0.000 OA
DOCKED: ATOM     14  C   UNL     1      18.740 -20.378   0.755 -0.79 -0.00    +0.000 C 
DOCKED: ATOM     15  N   UNL     1      18.231 -20.931   1.975 -0.68 -0.00    +0.000 N 
DOCKED: ATOM     16  H   UNL     1      18.799 -20.956   2.778 -0.11 -0.00    +0.000 HD
DOCKED: BRANCH  15  17
DOCKED: ATOM     17  O   UNL     1      16.969 -21.422   2.027 -0.72 -0.00    +0.000 OA
DOCKED: ATOM     18  H   UNL     1      16.664 -21.625   1.129 -0.38 -0.00    +0.000 HD
DOCKED: ENDBRANCH  15  17
DOCKED: ENDBRANCH  11  14
DOCKED: ENDBRANCH   5  12
DOCKED: ENDBRANCH   4   8
DOCKED: ENDBRANCH   1   4
DOCKED: BRANCH   1  19
DOCKED: ATOM     19  C   UNL     1      26.124 -15.046  -2.348 -0.43 -0.00    +0.000 C 
DOCKED: BRANCH  19  20
DOCKED: ATOM     20  C   UNL     1      27.487 -14.374  -2.110 -0.23 -0.00    +0.000 C 
DOCKED: BRANCH  20  21
DOCKED: ATOM     21  C   UNL     1      27.778 -14.289  -0.639 -0.18 -0.00    +0.000 A 
DOCKED: ATOM     22  C   UNL     1      28.442 -15.230   0.151 -0.21 -0.00    +0.000 A 
DOCKED: ATOM     23  N   UNL     1      28.456 -14.840   1.448 -0.20 -0.00    +0.000 N 
DOCKED: ATOM     24  C   UNL     1      27.789 -13.674   1.488 -0.24 -0.00    +0.000 A 
DOCKED: ATOM     25  C   UNL     1      27.355 -13.309   0.237 -0.21 -0.00    +0.000 A 
DOCKED: ATOM     26  C   UNL     1      26.617 -12.144   0.028 -0.15 -0.00    +0.000 A 
DOCKED: ATOM     27  C   UNL     1      26.331 -11.338   1.145 -0.32 +0.00    +0.000 A 
DOCKED: ATOM     28  C   UNL     1      26.781 -11.710   2.431 -0.27 +0.00    +0.000 A 
DOCKED: ATOM     29  C   UNL     1      27.519 -12.895   2.612 -0.28 -0.00    +0.000 A 
DOCKED: ATOM     30  C   UNL     1      29.069 -16.496  -0.339 -0.23 -0.00    +0.000 C 
DOCKED: ATOM     31  H   UNL     1      28.868 -15.315   2.206 -1.79 -0.00    +0.000 HD
DOCKED: ENDBRANCH  20  21
DOCKED: ENDBRANCH  19  20
DOCKED: ENDBRANCH   1  19
DOCKED: TORSDOF 8
DOCKED: TER
DOCKED: ENDMDL
________________________________________________________________________________


	BEGINNING GENETIC ALGORITHM DOCKING 31 of 100
Run: 31 Seed: 247406274 1032350 [ Run 31 of 100 GA/GALS ]
Beginning LAMARCKIAN GENETIC ALGORITHM (LGA), with a maximum of 2500000 energy evaluations.

Final-Value: -15.931


	FINAL GENETIC ALGORITHM DOCKED STATE
	_______________________________________________


Detailed state:  trans 28.039 -16.331 0.604 quatxyzw 0.474127 -0.479479 -0.461061 -0.576825 center 0.693 0.091 0.076 ntor 8 16.9324 -168.2641 81.0269 165.6809 -166.2038 -87.2991 180.0000 77.0360
State:	 28.039 -16.331   0.604   0.580 -0.587 -0.564 -109.545     16.93 -168.26   81.03  165.68 -166.20  -87.30  180.00   77.04

DOCKED: MODEL       31
DOCKED: USER    Run = 31
DOCKED: USER    DPF = ligand_dock.biased.dpf
DOCKED: USER  
DOCKED: USER    Estimated Free Energy of Binding    =  -11.80 kcal/mol  [=(1)+(2)+(3)-(4)]
DOCKED: USER    Estimated Inhibition Constant, Ki   =    2.25 nM (nanomolar)  [Temperature = 298.15 K]
DOCKED: USER    
DOCKED: USER    (1) Final Intermolecular Energy     =  -14.19 kcal/mol
DOCKED: USER        vdW + Hbond + desolv Energy     =  -14.19 kcal/mol
DOCKED: USER        Electrostatic Energy            =   +0.00 kcal/mol
DOCKED: USER    (2) Final Total Internal Energy     =   -1.75 kcal/mol
DOCKED: USER    (3) Torsional Free Energy           =   +2.39 kcal/mol
DOCKED: USER    (4) Unbound System's Energy  [=(2)] =   -1.75 kcal/mol
DOCKED: USER    
DOCKED: USER    
DOCKED: USER    NEWDPF move ligand.pdbqt
DOCKED: USER    NEWDPF about 0.693000 0.091000 0.076000
DOCKED: USER    NEWDPF tran0 28.039007 -16.330872 0.604066
DOCKED: USER    NEWDPF quaternion0 0.474127 -0.479479 -0.461061 -0.576825
DOCKED: USER    NEWDPF axisangle0 0.580421 -0.586972 -0.564425 -109.544954
DOCKED: USER    NEWDPF quat0 0.580421 -0.586972 -0.564425 -109.544954
DOCKED: USER    NEWDPF dihe0 16.93 -168.26 81.03 165.68 -166.20 -87.30 180.00 77.04 
DOCKED: USER  keepresnum = 1 
DOCKED: USER  
DOCKED: REMARK  Name = 
DOCKED: REMARK  9 active torsions:
DOCKED: REMARK  status: ('A' for Active; 'I' for Inactive)
DOCKED: REMARK    1  A    between atoms: C_2  and  C_3
DOCKED: REMARK    2  A    between atoms: C_4  and  C_5
DOCKED: REMARK    3  A    between atoms: C_8  and  C_9
DOCKED: REMARK    4  A    between atoms: C_9  and  N_10
DOCKED: REMARK    5  A    between atoms: N_10  and  C_11
DOCKED: REMARK    6  A    between atoms: C_11  and  C_12
DOCKED: REMARK    7  A    between atoms: C_12  and  C_13
DOCKED: REMARK    8  A    between atoms: C_14  and  C_22
DOCKED: REMARK    9  A    between atoms: N_25  and  O_26
DOCKED: REMARK                            x       y       z     vdW  Elec       q    Type
DOCKED: REMARK                         _______ _______ _______ _____ _____    ______ ____
DOCKED: USER                              x       y       z     vdW  Elec       q    Type
DOCKED: USER                           _______ _______ _______ _____ _____    ______ ____
DOCKED: ROOT
DOCKED: ATOM      1  N   UNL     1      28.085 -15.247   1.152 -0.18 -0.00    +0.000 N 
DOCKED: ATOM      2  H   UNL     1      29.022 -15.239   1.557 -1.23 -0.00    +0.000 HD
DOCKED: ATOM      3  H   UNL     1      27.425 -15.744   1.750 -0.41 -0.00    +0.000 HD
DOCKED: ENDROOT
DOCKED: BRANCH   1   4
DOCKED: ATOM      4  C   UNL     1      28.136 -15.949  -0.137 -0.29 -0.00    +0.000 C 
DOCKED: BRANCH   4   8
DOCKED: ATOM      5  C   UNL     1      24.360 -17.884  -0.970 -0.68 -0.00    +0.000 A 
DOCKED: ATOM      6  C   UNL     1      25.392 -18.581  -0.311 -0.54 -0.00    +0.000 A 
DOCKED: ATOM      7  C   UNL     1      26.609 -17.952  -0.038 -0.51 -0.00    +0.000 A 
DOCKED: ATOM      8  C   UNL     1      26.812 -16.611  -0.398 -0.42 -0.00    +0.000 A 
DOCKED: ATOM      9  C   UNL     1      25.788 -15.914  -1.054 -0.43 -0.00    +0.000 A 
DOCKED: ATOM     10  C   UNL     1      24.569 -16.542  -1.327 -0.51 -0.00    +0.000 A 
DOCKED: BRANCH   5  12
DOCKED: ATOM     11  C   UNL     1      22.249 -19.036  -0.332 -0.79 -0.00    +0.000 C 
DOCKED: ATOM     12  C   UNL     1      23.045 -18.505  -1.269 -0.78 -0.00    +0.000 C 
DOCKED: BRANCH  11  14
DOCKED: ATOM     13  O   UNL     1      20.509 -19.601  -1.816 -1.64 -0.00    +0.000 OA
DOCKED: ATOM     14  C   UNL     1      20.950 -19.669  -0.638 -0.81 -0.00    +0.000 C 
DOCKED: ATOM     15  N   UNL     1      20.198 -20.384   0.351 -0.70 -0.00    +0.000 N 
DOCKED: ATOM     16  H   UNL     1      20.582 -20.538   1.243 -0.46 -0.00    +0.000 HD
DOCKED: BRANCH  15  17
DOCKED: ATOM     17  O   UNL     1      18.958 -20.850   0.061 -0.73 -0.00    +0.000 OA
DOCKED: ATOM     18  H   UNL     1      18.834 -20.860  -0.901 -0.46 -0.00    +0.000 HD
DOCKED: ENDBRANCH  15  17
DOCKED: ENDBRANCH  11  14
DOCKED: ENDBRANCH   5  12
DOCKED: ENDBRANCH   4   8
DOCKED: ENDBRANCH   1   4
DOCKED: BRANCH   1  19
DOCKED: ATOM     19  C   UNL     1      27.615 -13.861   1.017 -0.27 -0.00    +0.000 C 
DOCKED: BRANCH  19  20
DOCKED: ATOM     20  C   UNL     1      28.010 -12.986   2.220 -0.26 -0.00    +0.000 C 
DOCKED: BRANCH  20  21
DOCKED: ATOM     21  C   UNL     1      29.125 -13.632   2.991 -0.21 -0.00    +0.000 A 
DOCKED: ATOM     22  C   UNL     1      29.030 -14.338   4.192 -0.39 -0.00    +0.000 A 
DOCKED: ATOM     23  N   UNL     1      30.257 -14.714   4.624 -0.33 -0.00    +0.000 N 
DOCKED: ATOM     24  C   UNL     1      31.128 -14.234   3.720 -0.21 -0.00    +0.000 A 
DOCKED: ATOM     25  C   UNL     1      30.477 -13.563   2.714 -0.12 -0.00    +0.000 A 
DOCKED: ATOM     26  C   UNL     1      31.171 -12.953   1.669 -0.04 -0.00    +0.000 A 
DOCKED: ATOM     27  C   UNL     1      32.575 -13.052   1.669 -0.02 -0.00    +0.000 A 
DOCKED: ATOM     28  C   UNL     1      33.245 -13.746   2.700 -0.06 -0.00    +0.000 A 
DOCKED: ATOM     29  C   UNL     1      32.517 -14.346   3.745 -0.12 -0.00    +0.000 A 
DOCKED: ATOM     30  C   UNL     1      27.762 -14.658   4.918 -0.57 -0.00    +0.000 C 
DOCKED: ATOM     31  H   UNL     1      30.467 -15.231   5.435 -0.01 -0.00    +0.000 HD
DOCKED: ENDBRANCH  20  21
DOCKED: ENDBRANCH  19  20
DOCKED: ENDBRANCH   1  19
DOCKED: TORSDOF 8
DOCKED: TER
DOCKED: ENDMDL
________________________________________________________________________________


	BEGINNING GENETIC ALGORITHM DOCKING 32 of 100
Run: 32 Seed: 572899190 487298289 [ Run 32 of 100 GA/GALS ]
Beginning LAMARCKIAN GENETIC ALGORITHM (LGA), with a maximum of 2500000 energy evaluations.

Final-Value: -15.011


	FINAL GENETIC ALGORITHM DOCKED STATE
	_______________________________________________


Detailed state:  trans 26.989 -15.284 -0.069 quatxyzw -0.263935 0.853318 0.041040 0.447775 center 0.693 0.091 0.076 ntor 8 7.9613 143.1586 161.6611 -26.9737 39.6666 151.6117 115.2424 57.5876
State:	 26.989 -15.284  -0.069  -0.295  0.954  0.046 126.798      7.96  143.16  161.66  -26.97   39.67  151.61  115.24   57.59

DOCKED: MODEL       32
DOCKED: USER    Run = 32
DOCKED: USER    DPF = ligand_dock.biased.dpf
DOCKED: USER  
DOCKED: USER    Estimated Free Energy of Binding    =  -10.87 kcal/mol  [=(1)+(2)+(3)-(4)]
DOCKED: USER    Estimated Inhibition Constant, Ki   =   10.69 nM (nanomolar)  [Temperature = 298.15 K]
DOCKED: USER    
DOCKED: USER    (1) Final Intermolecular Energy     =  -13.26 kcal/mol
DOCKED: USER        vdW + Hbond + desolv Energy     =  -13.26 kcal/mol
DOCKED: USER        Electrostatic Energy            =   +0.00 kcal/mol
DOCKED: USER    (2) Final Total Internal Energy     =   -1.75 kcal/mol
DOCKED: USER    (3) Torsional Free Energy           =   +2.39 kcal/mol
DOCKED: USER    (4) Unbound System's Energy  [=(2)] =   -1.75 kcal/mol
DOCKED: USER    
DOCKED: USER    
DOCKED: USER    NEWDPF move ligand.pdbqt
DOCKED: USER    NEWDPF about 0.693000 0.091000 0.076000
DOCKED: USER    NEWDPF tran0 26.989455 -15.283542 -0.068856
DOCKED: USER    NEWDPF quaternion0 -0.263935 0.853318 0.041040 0.447775
DOCKED: USER    NEWDPF axisangle0 -0.295181 0.954338 0.045899 126.797973
DOCKED: USER    NEWDPF quat0 -0.295181 0.954338 0.045899 126.797973
DOCKED: USER    NEWDPF dihe0 7.96 143.16 161.66 -26.97 39.67 151.61 115.24 57.59 
DOCKED: USER  keepresnum = 1 
DOCKED: USER  
DOCKED: REMARK  Name = 
DOCKED: REMARK  9 active torsions:
DOCKED: REMARK  status: ('A' for Active; 'I' for Inactive)
DOCKED: REMARK    1  A    between atoms: C_2  and  C_3
DOCKED: REMARK    2  A    between atoms: C_4  and  C_5
DOCKED: REMARK    3  A    between atoms: C_8  and  C_9
DOCKED: REMARK    4  A    between atoms: C_9  and  N_10
DOCKED: REMARK    5  A    between atoms: N_10  and  C_11
DOCKED: REMARK    6  A    between atoms: C_11  and  C_12
DOCKED: REMARK    7  A    between atoms: C_12  and  C_13
DOCKED: REMARK    8  A    between atoms: C_14  and  C_22
DOCKED: REMARK    9  A    between atoms: N_25  and  O_26
DOCKED: REMARK                            x       y       z     vdW  Elec       q    Type
DOCKED: REMARK                         _______ _______ _______ _____ _____    ______ ____
DOCKED: USER                              x       y       z     vdW  Elec       q    Type
DOCKED: USER                           _______ _______ _______ _____ _____    ______ ____
DOCKED: ROOT
DOCKED: ATOM      1  N   UNL     1      27.254 -14.194  -0.537 -0.23 -0.00    +0.000 N 
DOCKED: ATOM      2  H   UNL     1      27.692 -13.711   0.248 +0.00 -0.00    +0.000 HD
DOCKED: ATOM      3  H   UNL     1      26.236 -14.145  -0.484 -0.01 -0.00    +0.000 HD
DOCKED: ENDROOT
DOCKED: BRANCH   1   4
DOCKED: ATOM      4  C   UNL     1      27.637 -15.611  -0.491 -0.32 -0.00    +0.000 C 
DOCKED: BRANCH   4   8
DOCKED: ATOM      5  C   UNL     1      24.133 -18.101  -0.958 -0.70 -0.00    +0.000 A 
DOCKED: ATOM      6  C   UNL     1      25.292 -18.605  -0.335 -0.54 -0.00    +0.000 A 
DOCKED: ATOM      7  C   UNL     1      26.421 -17.796  -0.180 -0.54 -0.00    +0.000 A 
DOCKED: ATOM      8  C   UNL     1      26.408 -16.466  -0.625 -0.43 -0.00    +0.000 A 
DOCKED: ATOM      9  C   UNL     1      25.257 -15.961  -1.245 -0.44 -0.00    +0.000 A 
DOCKED: ATOM     10  C   UNL     1      24.126 -16.768  -1.400 -0.53 -0.00    +0.000 A 
DOCKED: BRANCH   5  12
DOCKED: ATOM     11  C   UNL     1      21.669 -18.443  -0.923 -0.81 -0.00    +0.000 C 
DOCKED: ATOM     12  C   UNL     1      22.905 -18.916  -1.132 -0.81 -0.00    +0.000 C 
DOCKED: BRANCH  11  14
DOCKED: ATOM     13  O   UNL     1      20.256 -19.848  -2.179 -1.86 -0.00    +0.000 OA
DOCKED: ATOM     14  C   UNL     1      20.451 -19.265  -1.079 -0.90 -0.00    +0.000 C 
DOCKED: ATOM     15  N   UNL     1      19.510 -19.445  -0.013 -0.77 -0.00    +0.000 N 
DOCKED: ATOM     16  H   UNL     1      19.707 -19.085   0.881 -0.17 -0.00    +0.000 HD
DOCKED: BRANCH  15  17
DOCKED: ATOM     17  O   UNL     1      18.349 -20.109  -0.233 -0.85 -0.00    +0.000 OA
DOCKED: ATOM     18  H   UNL     1      18.366 -20.503  -1.119 -0.40 -0.00    +0.000 HD
DOCKED: ENDBRANCH  15  17
DOCKED: ENDBRANCH  11  14
DOCKED: ENDBRANCH   5  12
DOCKED: ENDBRANCH   4   8
DOCKED: ENDBRANCH   1   4
DOCKED: BRANCH   1  19
DOCKED: ATOM     19  C   UNL     1      27.671 -13.541  -1.787 -0.17 -0.00    +0.000 C 
DOCKED: BRANCH  19  20
DOCKED: ATOM     20  C   UNL     1      26.733 -13.866  -2.962 -0.30 -0.00    +0.000 C 
DOCKED: BRANCH  20  21
DOCKED: ATOM     21  C   UNL     1      27.530 -14.183  -4.195 -0.27 -0.00    +0.000 A 
DOCKED: ATOM     22  C   UNL     1      28.386 -15.267  -4.398 -0.29 -0.00    +0.000 A 
DOCKED: ATOM     23  N   UNL     1      28.984 -15.183  -5.610 -0.33 -0.00    +0.000 N 
DOCKED: ATOM     24  C   UNL     1      28.530 -14.047  -6.166 -0.31 -0.00    +0.000 A 
DOCKED: ATOM     25  C   UNL     1      27.647 -13.406  -5.332 -0.24 -0.00    +0.000 A 
DOCKED: ATOM     26  C   UNL     1      27.059 -12.190  -5.680 -0.18 -0.00    +0.000 A 
DOCKED: ATOM     27  C   UNL     1      27.391 -11.634  -6.929 -0.16 -0.00    +0.000 A 
DOCKED: ATOM     28  C   UNL     1      28.296 -12.294  -7.789 -0.21 -0.00    +0.000 A 
DOCKED: ATOM     29  C   UNL     1      28.878 -13.517  -7.408 -0.28 -0.00    +0.000 A 
DOCKED: ATOM     30  C   UNL     1      28.624 -16.384  -3.433 -0.22 -0.00    +0.000 C 
DOCKED: ATOM     31  H   UNL     1      29.622 -15.822  -6.002 -0.02 -0.00    +0.000 HD
DOCKED: ENDBRANCH  20  21
DOCKED: ENDBRANCH  19  20
DOCKED: ENDBRANCH   1  19
DOCKED: TORSDOF 8
DOCKED: TER
DOCKED: ENDMDL
________________________________________________________________________________


	BEGINNING GENETIC ALGORITHM DOCKING 33 of 100
Run: 33 Seed: 1296351704 1613599859 [ Run 33 of 100 GA/GALS ]
Beginning LAMARCKIAN GENETIC ALGORITHM (LGA), with a maximum of 2500000 energy evaluations.

Final-Value: -17.384


	FINAL GENETIC ALGORITHM DOCKED STATE
	_______________________________________________


Detailed state:  trans 28.621 -15.892 0.881 quatxyzw 0.481989 -0.486550 -0.483335 -0.545290 center 0.693 0.091 0.076 ntor 8 17.4902 2.3343 179.5839 177.4639 -101.1730 -160.2645 171.0669 69.1725
State:	 28.621 -15.892   0.881   0.575 -0.580 -0.577 -113.911     17.49    2.33  179.58  177.46 -101.17 -160.26  171.07   69.17

DOCKED: MODEL       33
DOCKED: USER    Run = 33
DOCKED: USER    DPF = ligand_dock.biased.dpf
DOCKED: USER  
DOCKED: USER    Estimated Free Energy of Binding    =  -13.25 kcal/mol  [=(1)+(2)+(3)-(4)]
DOCKED: USER    Estimated Inhibition Constant, Ki   =  194.77 pM (picomolar)  [Temperature = 298.15 K]
DOCKED: USER    
DOCKED: USER    (1) Final Intermolecular Energy     =  -15.63 kcal/mol
DOCKED: USER        vdW + Hbond + desolv Energy     =  -15.63 kcal/mol
DOCKED: USER        Electrostatic Energy            =   +0.00 kcal/mol
DOCKED: USER    (2) Final Total Internal Energy     =   -1.75 kcal/mol
DOCKED: USER    (3) Torsional Free Energy           =   +2.39 kcal/mol
DOCKED: USER    (4) Unbound System's Energy  [=(2)] =   -1.75 kcal/mol
DOCKED: USER    
DOCKED: USER    
DOCKED: USER    NEWDPF move ligand.pdbqt
DOCKED: USER    NEWDPF about 0.693000 0.091000 0.076000
DOCKED: USER    NEWDPF tran0 28.621004 -15.891605 0.880832
DOCKED: USER    NEWDPF quaternion0 0.481989 -0.486550 -0.483335 -0.545290
DOCKED: USER    NEWDPF axisangle0 0.574997 -0.580438 -0.576603 -113.910967
DOCKED: USER    NEWDPF quat0 0.574997 -0.580438 -0.576603 -113.910967
DOCKED: USER    NEWDPF dihe0 17.49 2.33 179.58 177.46 -101.17 -160.26 171.07 69.17 
DOCKED: USER  keepresnum = 1 
DOCKED: USER  
DOCKED: REMARK  Name = 
DOCKED: REMARK  9 active torsions:
DOCKED: REMARK  status: ('A' for Active; 'I' for Inactive)
DOCKED: REMARK    1  A    between atoms: C_2  and  C_3
DOCKED: REMARK    2  A    between atoms: C_4  and  C_5
DOCKED: REMARK    3  A    between atoms: C_8  and  C_9
DOCKED: REMARK    4  A    between atoms: C_9  and  N_10
DOCKED: REMARK    5  A    between atoms: N_10  and  C_11
DOCKED: REMARK    6  A    between atoms: C_11  and  C_12
DOCKED: REMARK    7  A    between atoms: C_12  and  C_13
DOCKED: REMARK    8  A    between atoms: C_14  and  C_22
DOCKED: REMARK    9  A    between atoms: N_25  and  O_26
DOCKED: REMARK                            x       y       z     vdW  Elec       q    Type
DOCKED: REMARK                         _______ _______ _______ _____ _____    ______ ____
DOCKED: USER                              x       y       z     vdW  Elec       q    Type
DOCKED: USER                           _______ _______ _______ _____ _____    ______ ____
DOCKED: ROOT
DOCKED: ATOM      1  N   UNL     1      28.711 -14.843   1.488 -0.16 -0.00    +0.000 N 
DOCKED: ATOM      2  H   UNL     1      29.636 -14.907   1.914 -1.10 -0.00    +0.000 HD
DOCKED: ATOM      3  H   UNL     1      28.010 -15.334   2.043 -0.94 -0.00    +0.000 HD
DOCKED: ENDROOT
DOCKED: BRANCH   1   4
DOCKED: ATOM      4  C   UNL     1      28.757 -15.476   0.164 -0.20 -0.00    +0.000 C 
DOCKED: BRANCH   4   8
DOCKED: ATOM      5  C   UNL     1      25.083 -17.613  -0.633 -0.61 -0.00    +0.000 A 
DOCKED: ATOM      6  C   UNL     1      26.241 -18.306  -0.224 -0.57 -0.00    +0.000 A 
DOCKED: ATOM      7  C   UNL     1      27.425 -17.612   0.038 -0.00 -0.00    +0.000 A 
DOCKED: ATOM      8  C   UNL     1      27.471 -16.216  -0.082 -0.32 -0.00    +0.000 A 
DOCKED: ATOM      9  C   UNL     1      26.322 -15.523  -0.489 -0.32 -0.00    +0.000 A 
DOCKED: ATOM     10  C   UNL     1      25.136 -16.215  -0.750 -0.40 -0.00    +0.000 A 
DOCKED: BRANCH   5  12
DOCKED: ATOM     11  C   UNL     1      22.605 -17.701  -0.834 -0.76 -0.00    +0.000 C 
DOCKED: ATOM     12  C   UNL     1      23.799 -18.304  -0.909 -0.81 -0.00    +0.000 C 
DOCKED: BRANCH  11  14
DOCKED: ATOM     13  O   UNL     1      20.258 -17.857  -0.706 -2.20 +0.00    +0.000 OA
DOCKED: ATOM     14  C   UNL     1      21.329 -18.398  -1.091 -0.70 -0.00    +0.000 C 
DOCKED: ATOM     15  N   UNL     1      21.270 -19.647  -1.793 -0.55 -0.00    +0.000 N 
DOCKED: ATOM     16  H   UNL     1      22.085 -20.023  -2.194 -0.55 -0.00    +0.000 HD
DOCKED: BRANCH  15  17
DOCKED: ATOM     17  O   UNL     1      20.093 -20.310  -1.906 -1.34 -0.00    +0.000 OA
DOCKED: ATOM     18  H   UNL     1      19.361 -19.704  -1.716 -0.29 -0.00    +0.000 HD
DOCKED: ENDBRANCH  15  17
DOCKED: ENDBRANCH  11  14
DOCKED: ENDBRANCH   5  12
DOCKED: ENDBRANCH   4   8
DOCKED: ENDBRANCH   1   4
DOCKED: BRANCH   1  19
DOCKED: ATOM     19  C   UNL     1      28.319 -13.427   1.418 -0.21 -0.00    +0.000 C 
DOCKED: BRANCH  19  20
DOCKED: ATOM     20  C   UNL     1      27.135 -13.099   2.343 -0.35 -0.00    +0.000 C 
DOCKED: BRANCH  20  21
DOCKED: ATOM     21  C   UNL     1      27.619 -12.846   3.742 -0.32 -0.00    +0.000 A 
DOCKED: ATOM     22  C   UNL     1      27.773 -13.778   4.769 -0.51 -0.00    +0.000 A 
DOCKED: ATOM     23  N   UNL     1      28.166 -13.169   5.913 -0.45 -0.00    +0.000 N 
DOCKED: ATOM     24  C   UNL     1      28.242 -11.859   5.624 -0.36 +0.00    +0.000 A 
DOCKED: ATOM     25  C   UNL     1      27.910 -11.621   4.313 -0.30 +0.00    +0.000 A 
DOCKED: ATOM     26  C   UNL     1      27.892 -10.332   3.782 -0.22 +0.00    +0.000 A 
DOCKED: ATOM     27  C   UNL     1      28.237  -9.266   4.635 -0.17 +0.00    +0.000 A 
DOCKED: ATOM     28  C   UNL     1      28.583  -9.510   5.982 -0.24 +0.00    +0.000 A 
DOCKED: ATOM     29  C   UNL     1      28.586 -10.822   6.491 -0.31 +0.00    +0.000 A 
DOCKED: ATOM     30  C   UNL     1      27.549 -15.252   4.651 -0.29 -0.00    +0.000 C 
DOCKED: ATOM     31  H   UNL     1      28.355 -13.598   6.779 -0.07 -0.00    +0.000 HD
DOCKED: ENDBRANCH  20  21
DOCKED: ENDBRANCH  19  20
DOCKED: ENDBRANCH   1  19
DOCKED: TORSDOF 8
DOCKED: TER
DOCKED: ENDMDL
________________________________________________________________________________


	BEGINNING GENETIC ALGORITHM DOCKING 34 of 100
Run: 34 Seed: 305509182 801062940 [ Run 34 of 100 GA/GALS ]
Beginning LAMARCKIAN GENETIC ALGORITHM (LGA), with a maximum of 2500000 energy evaluations.

Final-Value: -15.358


	FINAL GENETIC ALGORITHM DOCKED STATE
	_______________________________________________


Detailed state:  trans 28.178 -15.447 0.780 quatxyzw -0.390041 0.553729 0.679946 0.280937 center 0.693 0.091 0.076 ntor 8 9.7423 9.6701 176.9997 167.1400 106.5681 6.5376 -172.1051 24.3447
State:	 28.178 -15.447   0.780  -0.406  0.577  0.708 147.368      9.74    9.67  177.00  167.14  106.57    6.54 -172.11   24.34

DOCKED: MODEL       34
DOCKED: USER    Run = 34
DOCKED: USER    DPF = ligand_dock.biased.dpf
DOCKED: USER  
DOCKED: USER    Estimated Free Energy of Binding    =  -11.12 kcal/mol  [=(1)+(2)+(3)-(4)]
DOCKED: USER    Estimated Inhibition Constant, Ki   =    7.01 nM (nanomolar)  [Temperature = 298.15 K]
DOCKED: USER    
DOCKED: USER    (1) Final Intermolecular Energy     =  -13.51 kcal/mol
DOCKED: USER        vdW + Hbond + desolv Energy     =  -13.51 kcal/mol
DOCKED: USER        Electrostatic Energy            =   +0.00 kcal/mol
DOCKED: USER    (2) Final Total Internal Energy     =   -1.85 kcal/mol
DOCKED: USER    (3) Torsional Free Energy           =   +2.39 kcal/mol
DOCKED: USER    (4) Unbound System's Energy  [=(2)] =   -1.85 kcal/mol
DOCKED: USER    
DOCKED: USER    
DOCKED: USER    NEWDPF move ligand.pdbqt
DOCKED: USER    NEWDPF about 0.693000 0.091000 0.076000
DOCKED: USER    NEWDPF tran0 28.177870 -15.447089 0.779655
DOCKED: USER    NEWDPF quaternion0 -0.390041 0.553729 0.679946 0.280937
DOCKED: USER    NEWDPF axisangle0 -0.406408 0.576966 0.708479 147.367700
DOCKED: USER    NEWDPF quat0 -0.406408 0.576966 0.708479 147.367700
DOCKED: USER    NEWDPF dihe0 9.74 9.67 177.00 167.14 106.57 6.54 -172.11 24.34 
DOCKED: USER  keepresnum = 1 
DOCKED: USER  
DOCKED: REMARK  Name = 
DOCKED: REMARK  9 active torsions:
DOCKED: REMARK  status: ('A' for Active; 'I' for Inactive)
DOCKED: REMARK    1  A    between atoms: C_2  and  C_3
DOCKED: REMARK    2  A    between atoms: C_4  and  C_5
DOCKED: REMARK    3  A    between atoms: C_8  and  C_9
DOCKED: REMARK    4  A    between atoms: C_9  and  N_10
DOCKED: REMARK    5  A    between atoms: N_10  and  C_11
DOCKED: REMARK    6  A    between atoms: C_11  and  C_12
DOCKED: REMARK    7  A    between atoms: C_12  and  C_13
DOCKED: REMARK    8  A    between atoms: C_14  and  C_22
DOCKED: REMARK    9  A    between atoms: N_25  and  O_26
DOCKED: REMARK                            x       y       z     vdW  Elec       q    Type
DOCKED: REMARK                         _______ _______ _______ _____ _____    ______ ____
DOCKED: USER                              x       y       z     vdW  Elec       q    Type
DOCKED: USER                           _______ _______ _______ _____ _____    ______ ____
DOCKED: ROOT
DOCKED: ATOM      1  N   UNL     1      28.774 -14.848   1.652 -0.11 -0.00    +0.000 N 
DOCKED: ATOM      2  H   UNL     1      29.423 -15.551   2.007 -1.57 -0.00    +0.000 HD
DOCKED: ATOM      3  H   UNL     1      27.851 -14.945   2.074 -0.57 -0.00    +0.000 HD
DOCKED: ENDROOT
DOCKED: BRANCH   1   4
DOCKED: ATOM      4  C   UNL     1      28.626 -15.032   0.203 -0.22 -0.00    +0.000 C 
DOCKED: BRANCH   4   8
DOCKED: ATOM      5  C   UNL     1      25.077 -17.338  -0.686 -0.59 -0.00    +0.000 A 
DOCKED: ATOM      6  C   UNL     1      26.286 -17.982  -0.354 -0.56 -0.00    +0.000 A 
DOCKED: ATOM      7  C   UNL     1      27.429 -17.235  -0.062 -0.29 -0.00    +0.000 A 
DOCKED: ATOM      8  C   UNL     1      27.384 -15.833  -0.075 -0.31 -0.00    +0.000 A 
DOCKED: ATOM      9  C   UNL     1      26.184 -15.187  -0.403 -0.28 -0.00    +0.000 A 
DOCKED: ATOM     10  C   UNL     1      25.038 -15.934  -0.695 -0.25 -0.00    +0.000 A 
DOCKED: BRANCH   5  12
DOCKED: ATOM     11  C   UNL     1      22.604 -17.588  -0.797 -0.76 -0.00    +0.000 C 
DOCKED: ATOM     12  C   UNL     1      23.832 -18.087  -0.989 -0.79 -0.00    +0.000 C 
DOCKED: BRANCH  11  14
DOCKED: ATOM     13  O   UNL     1      20.265 -17.862  -0.715 -2.21 -0.00    +0.000 OA
DOCKED: ATOM     14  C   UNL     1      21.369 -18.346  -1.083 -0.71 -0.00    +0.000 C 
DOCKED: ATOM     15  N   UNL     1      21.385 -19.592  -1.793 -0.52 -0.00    +0.000 N 
DOCKED: ATOM     16  H   UNL     1      22.226 -19.924  -2.180 -0.52 -0.00    +0.000 HD
DOCKED: BRANCH  15  17
DOCKED: ATOM     17  O   UNL     1      20.246 -20.312  -1.933 -1.49 -0.00    +0.000 OA
DOCKED: ATOM     18  H   UNL     1      19.490 -19.782  -1.636 -0.21 -0.00    +0.000 HD
DOCKED: ENDBRANCH  15  17
DOCKED: ENDBRANCH  11  14
DOCKED: ENDBRANCH   5  12
DOCKED: ENDBRANCH   4   8
DOCKED: ENDBRANCH   1   4
DOCKED: BRANCH   1  19
DOCKED: ATOM     19  C   UNL     1      29.288 -13.514   1.997 -0.17 -0.00    +0.000 C 
DOCKED: BRANCH  19  20
DOCKED: ATOM     20  C   UNL     1      30.732 -13.297   1.512 -0.07 -0.00    +0.000 C 
DOCKED: BRANCH  20  21
DOCKED: ATOM     21  C   UNL     1      31.681 -14.159   2.294 -0.10 -0.00    +0.000 A 
DOCKED: ATOM     22  C   UNL     1      32.499 -13.774   3.358 -0.10 -0.00    +0.000 A 
DOCKED: ATOM     23  N   UNL     1      33.270 -14.809   3.767 -0.13 -0.00    +0.000 N 
DOCKED: ATOM     24  C   UNL     1      32.963 -15.838   2.960 -0.16 -0.00    +0.000 A 
DOCKED: ATOM     25  C   UNL     1      32.003 -15.479   2.045 -0.14 -0.00    +0.000 A 
DOCKED: ATOM     26  C   UNL     1      31.537 -16.373   1.081 -0.12 -0.00    +0.000 A 
DOCKED: ATOM     27  C   UNL     1      32.077 -17.673   1.076 -0.13 -0.00    +0.000 A 
DOCKED: ATOM     28  C   UNL     1      33.060 -18.044   2.020 -0.15 -0.00    +0.000 A 
DOCKED: ATOM     29  C   UNL     1      33.515 -17.118   2.976 -0.18 -0.00    +0.000 A 
DOCKED: ATOM     30  C   UNL     1      32.534 -12.416   3.985 -0.07 -0.00    +0.000 C 
DOCKED: ATOM     31  H   UNL     1      33.923 -14.807   4.504 -0.02 -0.00    +0.000 HD
DOCKED: ENDBRANCH  20  21
DOCKED: ENDBRANCH  19  20
DOCKED: ENDBRANCH   1  19
DOCKED: TORSDOF 8
DOCKED: TER
DOCKED: ENDMDL
________________________________________________________________________________


	BEGINNING GENETIC ALGORITHM DOCKING 35 of 100
Run: 35 Seed: 1584654324 506142443 [ Run 35 of 100 GA/GALS ]
Beginning LAMARCKIAN GENETIC ALGORITHM (LGA), with a maximum of 2500000 energy evaluations.

Final-Value: -15.501


	FINAL GENETIC ALGORITHM DOCKED STATE
	_______________________________________________


Detailed state:  trans 29.005 -17.584 -1.253 quatxyzw 0.178901 -0.546972 0.800606 0.166874 center 0.693 0.091 0.076 ntor 8 24.9051 166.2397 -175.9906 156.5728 -175.5591 -64.5600 -162.6698 -28.8192
State:	 29.005 -17.584  -1.253   0.181 -0.555  0.812 160.788     24.91  166.24 -175.99  156.57 -175.56  -64.56 -162.67  -28.82

DOCKED: MODEL       35
DOCKED: USER    Run = 35
DOCKED: USER    DPF = ligand_dock.biased.dpf
DOCKED: USER  
DOCKED: USER    Estimated Free Energy of Binding    =  -10.95 kcal/mol  [=(1)+(2)+(3)-(4)]
DOCKED: USER    Estimated Inhibition Constant, Ki   =    9.47 nM (nanomolar)  [Temperature = 298.15 K]
DOCKED: USER    
DOCKED: USER    (1) Final Intermolecular Energy     =  -13.33 kcal/mol
DOCKED: USER        vdW + Hbond + desolv Energy     =  -13.33 kcal/mol
DOCKED: USER        Electrostatic Energy            =   +0.00 kcal/mol
DOCKED: USER    (2) Final Total Internal Energy     =   -2.17 kcal/mol
DOCKED: USER    (3) Torsional Free Energy           =   +2.39 kcal/mol
DOCKED: USER    (4) Unbound System's Energy  [=(2)] =   -2.17 kcal/mol
DOCKED: USER    
DOCKED: USER    
DOCKED: USER    NEWDPF move ligand.pdbqt
DOCKED: USER    NEWDPF about 0.693000 0.091000 0.076000
DOCKED: USER    NEWDPF tran0 29.005218 -17.583545 -1.253198
DOCKED: USER    NEWDPF quaternion0 0.178901 -0.546972 0.800606 0.166874
DOCKED: USER    NEWDPF axisangle0 0.181445 -0.554750 0.811991 160.787812
DOCKED: USER    NEWDPF quat0 0.181445 -0.554750 0.811991 160.787812
DOCKED: USER    NEWDPF dihe0 24.91 166.24 -175.99 156.57 -175.56 -64.56 -162.67 -28.82 
DOCKED: USER  keepresnum = 1 
DOCKED: USER  
DOCKED: REMARK  Name = 
DOCKED: REMARK  9 active torsions:
DOCKED: REMARK  status: ('A' for Active; 'I' for Inactive)
DOCKED: REMARK    1  A    between atoms: C_2  and  C_3
DOCKED: REMARK    2  A    between atoms: C_4  and  C_5
DOCKED: REMARK    3  A    between atoms: C_8  and  C_9
DOCKED: REMARK    4  A    between atoms: C_9  and  N_10
DOCKED: REMARK    5  A    between atoms: N_10  and  C_11
DOCKED: REMARK    6  A    between atoms: C_11  and  C_12
DOCKED: REMARK    7  A    between atoms: C_12  and  C_13
DOCKED: REMARK    8  A    between atoms: C_14  and  C_22
DOCKED: REMARK    9  A    between atoms: N_25  and  O_26
DOCKED: REMARK                            x       y       z     vdW  Elec       q    Type
DOCKED: REMARK                         _______ _______ _______ _____ _____    ______ ____
DOCKED: USER                              x       y       z     vdW  Elec       q    Type
DOCKED: USER                           _______ _______ _______ _____ _____    ______ ____
DOCKED: ROOT
DOCKED: ATOM      1  N   UNL     1      29.883 -17.266  -2.031 -0.21 -0.00    +0.000 N 
DOCKED: ATOM      2  H   UNL     1      29.370 -16.770  -2.761 -0.01 -0.00    +0.000 HD
DOCKED: ATOM      3  H   UNL     1      29.848 -18.276  -2.173 -0.02 -0.00    +0.000 HD
DOCKED: ENDROOT
DOCKED: BRANCH   1   4
DOCKED: ATOM      4  C   UNL     1      29.259 -16.974  -0.734 -0.27 -0.00    +0.000 C 
DOCKED: BRANCH   4   8
DOCKED: ATOM      5  C   UNL     1      24.951 -17.190  -1.031 -0.60 -0.00    +0.000 A 
DOCKED: ATOM      6  C   UNL     1      25.652 -16.092  -1.568 -0.48 -0.00    +0.000 A 
DOCKED: ATOM      7  C   UNL     1      27.045 -16.027  -1.476 -0.34 -0.00    +0.000 A 
DOCKED: ATOM      8  C   UNL     1      27.764 -17.065  -0.866 -0.37 -0.00    +0.000 A 
DOCKED: ATOM      9  C   UNL     1      27.072 -18.160  -0.331 -0.38 -0.00    +0.000 A 
DOCKED: ATOM     10  C   UNL     1      25.678 -18.226  -0.423 -0.61 -0.00    +0.000 A 
DOCKED: BRANCH   5  12
DOCKED: ATOM     11  C   UNL     1      22.819 -18.472  -0.981 -0.83 -0.00    +0.000 C 
DOCKED: ATOM     12  C   UNL     1      23.474 -17.311  -1.117 -0.70 -0.00    +0.000 C 
DOCKED: BRANCH  11  14
DOCKED: ATOM     13  O   UNL     1      20.640 -17.619  -0.707 -2.18 +0.00    +0.000 OA
DOCKED: ATOM     14  C   UNL     1      21.350 -18.588  -1.086 -0.78 -0.00    +0.000 C 
DOCKED: ATOM     15  N   UNL     1      20.715 -19.750  -1.636 -0.78 -0.00    +0.000 N 
DOCKED: ATOM     16  H   UNL     1      21.260 -20.465  -2.035 -0.44 -0.00    +0.000 HD
DOCKED: BRANCH  15  17
DOCKED: ATOM     17  O   UNL     1      19.365 -19.867  -1.608 -1.31 -0.00    +0.000 OA
DOCKED: ATOM     18  H   UNL     1      18.965 -18.984  -1.566 -0.58 -0.00    +0.000 HD
DOCKED: ENDBRANCH  15  17
DOCKED: ENDBRANCH  11  14
DOCKED: ENDBRANCH   5  12
DOCKED: ENDBRANCH   4   8
DOCKED: ENDBRANCH   1   4
DOCKED: BRANCH   1  19
DOCKED: ATOM     19  C   UNL     1      31.293 -16.854  -2.081 -0.11 -0.00    +0.000 C 
DOCKED: BRANCH  19  20
DOCKED: ATOM     20  C   UNL     1      31.659 -16.168  -3.408 -0.07 -0.00    +0.000 C 
DOCKED: BRANCH  20  21
DOCKED: ATOM     21  C   UNL     1      30.423 -15.907  -4.220 -0.14 -0.00    +0.000 A 
DOCKED: ATOM     22  C   UNL     1      30.048 -16.520  -5.417 -0.28 -0.00    +0.000 A 
DOCKED: ATOM     23  N   UNL     1      28.902 -15.977  -5.894 -0.37 -0.00    +0.000 N 
DOCKED: ATOM     24  C   UNL     1      28.561 -15.014  -5.021 -0.30 -0.00    +0.000 A 
DOCKED: ATOM     25  C   UNL     1      29.466 -14.937  -3.991 -0.14 -0.00    +0.000 A 
DOCKED: ATOM     26  C   UNL     1      29.338 -13.994  -2.970 -0.07 -0.00    +0.000 A 
DOCKED: ATOM     27  C   UNL     1      28.238 -13.119  -3.020 -0.10 -0.00    +0.000 A 
DOCKED: ATOM     28  C   UNL     1      27.304 -13.201  -4.076 -0.22 -0.00    +0.000 A 
DOCKED: ATOM     29  C   UNL     1      27.463 -14.159  -5.095 -0.33 -0.00    +0.000 A 
DOCKED: ATOM     30  C   UNL     1      30.785 -17.629  -6.098 -0.32 -0.00    +0.000 C 
DOCKED: ATOM     31  H   UNL     1      28.420 -16.235  -6.712 -0.01 +0.00    +0.000 HD
DOCKED: ENDBRANCH  20  21
DOCKED: ENDBRANCH  19  20
DOCKED: ENDBRANCH   1  19
DOCKED: TORSDOF 8
DOCKED: TER
DOCKED: ENDMDL
________________________________________________________________________________


	BEGINNING GENETIC ALGORITHM DOCKING 36 of 100
Run: 36 Seed: 458414496 793007114 [ Run 36 of 100 GA/GALS ]
Beginning LAMARCKIAN GENETIC ALGORITHM (LGA), with a maximum of 2500000 energy evaluations.

Final-Value: -15.612


	FINAL GENETIC ALGORITHM DOCKED STATE
	_______________________________________________


Detailed state:  trans 29.228 -17.212 -1.089 quatxyzw 0.303600 -0.474756 0.794787 0.225274 center 0.693 0.091 0.076 ntor 8 18.8221 -180.0000 1.6656 180.0000 178.8968 -42.3734 4.1166 -41.9380
State:	 29.228 -17.212  -1.089   0.312 -0.487  0.816 153.962     18.82 -180.00    1.67  180.00  178.90  -42.37    4.12  -41.94

DOCKED: MODEL       36
DOCKED: USER    Run = 36
DOCKED: USER    DPF = ligand_dock.biased.dpf
DOCKED: USER  
DOCKED: USER    Estimated Free Energy of Binding    =  -10.77 kcal/mol  [=(1)+(2)+(3)-(4)]
DOCKED: USER    Estimated Inhibition Constant, Ki   =   12.79 nM (nanomolar)  [Temperature = 298.15 K]
DOCKED: USER    
DOCKED: USER    (1) Final Intermolecular Energy     =  -13.15 kcal/mol
DOCKED: USER        vdW + Hbond + desolv Energy     =  -13.15 kcal/mol
DOCKED: USER        Electrostatic Energy            =   +0.00 kcal/mol
DOCKED: USER    (2) Final Total Internal Energy     =   -2.46 kcal/mol
DOCKED: USER    (3) Torsional Free Energy           =   +2.39 kcal/mol
DOCKED: USER    (4) Unbound System's Energy  [=(2)] =   -2.46 kcal/mol
DOCKED: USER    
DOCKED: USER    
DOCKED: USER    NEWDPF move ligand.pdbqt
DOCKED: USER    NEWDPF about 0.693000 0.091000 0.076000
DOCKED: USER    NEWDPF tran0 29.227660 -17.211998 -1.088796
DOCKED: USER    NEWDPF quaternion0 0.303600 -0.474756 0.794787 0.225274
DOCKED: USER    NEWDPF axisangle0 0.311610 -0.487281 0.815755 153.962017
DOCKED: USER    NEWDPF quat0 0.311610 -0.487281 0.815755 153.962017
DOCKED: USER    NEWDPF dihe0 18.82 -180.00 1.67 180.00 178.90 -42.37 4.12 -41.94 
DOCKED: USER  keepresnum = 1 
DOCKED: USER  
DOCKED: REMARK  Name = 
DOCKED: REMARK  9 active torsions:
DOCKED: REMARK  status: ('A' for Active; 'I' for Inactive)
DOCKED: REMARK    1  A    between atoms: C_2  and  C_3
DOCKED: REMARK    2  A    between atoms: C_4  and  C_5
DOCKED: REMARK    3  A    between atoms: C_8  and  C_9
DOCKED: REMARK    4  A    between atoms: C_9  and  N_10
DOCKED: REMARK    5  A    between atoms: N_10  and  C_11
DOCKED: REMARK    6  A    between atoms: C_11  and  C_12
DOCKED: REMARK    7  A    between atoms: C_12  and  C_13
DOCKED: REMARK    8  A    between atoms: C_14  and  C_22
DOCKED: REMARK    9  A    between atoms: N_25  and  O_26
DOCKED: REMARK                            x       y       z     vdW  Elec       q    Type
DOCKED: REMARK                         _______ _______ _______ _____ _____    ______ ____
DOCKED: USER                              x       y       z     vdW  Elec       q    Type
DOCKED: USER                           _______ _______ _______ _____ _____    ______ ____
DOCKED: ROOT
DOCKED: ATOM      1  N   UNL     1      29.913 -16.803  -2.005 -0.19 -0.00    +0.000 N 
DOCKED: ATOM      2  H   UNL     1      29.220 -16.558  -2.713 -0.01 -0.00    +0.000 HD
DOCKED: ATOM      3  H   UNL     1      30.131 -17.799  -2.025 -0.02 -0.00    +0.000 HD
DOCKED: ENDROOT
DOCKED: BRANCH   1   4
DOCKED: ATOM      4  C   UNL     1      29.362 -16.491  -0.680 -0.24 -0.00    +0.000 C 
DOCKED: BRANCH   4   8
DOCKED: ATOM      5  C   UNL     1      25.073 -17.021  -0.842 -0.56 -0.00    +0.000 A 
DOCKED: ATOM      6  C   UNL     1      25.912 -18.082  -0.447 -0.59 -0.00    +0.000 A 
DOCKED: ATOM      7  C   UNL     1      27.297 -17.907  -0.390 -0.34 -0.00    +0.000 A 
DOCKED: ATOM      8  C   UNL     1      27.869 -16.665  -0.705 -0.34 -0.00    +0.000 A 
DOCKED: ATOM      9  C   UNL     1      27.038 -15.606  -1.099 -0.31 -0.00    +0.000 A 
DOCKED: ATOM     10  C   UNL     1      25.652 -15.780  -1.155 -0.43 -0.00    +0.000 A 
DOCKED: BRANCH   5  12
DOCKED: ATOM     11  C   UNL     1      22.965 -18.329  -1.023 -0.82 -0.00    +0.000 C 
DOCKED: ATOM     12  C   UNL     1      23.597 -17.154  -0.904 -0.70 -0.00    +0.000 C 
DOCKED: BRANCH  11  14
DOCKED: ATOM     13  O   UNL     1      20.787 -17.488  -0.713 -2.08 +0.00    +0.000 OA
DOCKED: ATOM     14  C   UNL     1      21.495 -18.454  -1.104 -0.71 -0.00    +0.000 C 
DOCKED: ATOM     15  N   UNL     1      20.857 -19.619  -1.642 -0.75 -0.00    +0.000 N 
DOCKED: ATOM     16  H   UNL     1      21.399 -20.331  -2.050 -0.48 -0.00    +0.000 HD
DOCKED: BRANCH  15  17
DOCKED: ATOM     17  O   UNL     1      19.508 -19.743  -1.591 -1.60 -0.00    +0.000 OA
DOCKED: ATOM     18  H   UNL     1      19.109 -18.871  -1.446 -0.56 -0.00    +0.000 HD
DOCKED: ENDBRANCH  15  17
DOCKED: ENDBRANCH  11  14
DOCKED: ENDBRANCH   5  12
DOCKED: ENDBRANCH   4   8
DOCKED: ENDBRANCH   1   4
DOCKED: BRANCH   1  19
DOCKED: ATOM     19  C   UNL     1      31.155 -16.065  -2.282 -0.08 -0.00    +0.000 C 
DOCKED: BRANCH  19  20
DOCKED: ATOM     20  C   UNL     1      31.001 -15.073  -3.448 -0.06 -0.00    +0.000 C 
DOCKED: BRANCH  20  21
DOCKED: ATOM     21  C   UNL     1      29.584 -15.065  -3.944 -0.14 -0.00    +0.000 A 
DOCKED: ATOM     22  C   UNL     1      29.018 -15.896  -4.913 -0.29 -0.00    +0.000 A 
DOCKED: ATOM     23  N   UNL     1      27.731 -15.547  -5.149 -0.42 +0.00    +0.000 N 
DOCKED: ATOM     24  C   UNL     1      27.484 -14.492  -4.354 -0.32 -0.00    +0.000 A 
DOCKED: ATOM     25  C   UNL     1      28.591 -14.164  -3.609 -0.14 -0.00    +0.000 A 
DOCKED: ATOM     26  C   UNL     1      28.587 -13.085  -2.726 -0.08 -0.00    +0.000 A 
DOCKED: ATOM     27  C   UNL     1      27.401 -12.336  -2.609 -0.13 -0.00    +0.000 A 
DOCKED: ATOM     28  C   UNL     1      26.262 -12.676  -3.370 -0.06 -0.00    +0.000 A 
DOCKED: ATOM     29  C   UNL     1      26.297 -13.767  -4.259 -0.37 -0.00    +0.000 A 
DOCKED: ATOM     30  C   UNL     1      29.710 -17.026  -5.606 -0.30 -0.00    +0.000 C 
DOCKED: ATOM     31  H   UNL     1      27.105 -15.978  -5.775 -0.03 +0.00    +0.000 HD
DOCKED: ENDBRANCH  20  21
DOCKED: ENDBRANCH  19  20
DOCKED: ENDBRANCH   1  19
DOCKED: TORSDOF 8
DOCKED: TER
DOCKED: ENDMDL
________________________________________________________________________________


	BEGINNING GENETIC ALGORITHM DOCKING 37 of 100
Run: 37 Seed: 851729082 1775433532 [ Run 37 of 100 GA/GALS ]
Beginning LAMARCKIAN GENETIC ALGORITHM (LGA), with a maximum of 2500000 energy evaluations.

Final-Value: -15.545


	FINAL GENETIC ALGORITHM DOCKED STATE
	_______________________________________________


Detailed state:  trans 29.484 -14.982 -1.394 quatxyzw -0.463573 -0.607679 0.097344 -0.637456 center 0.693 0.091 0.076 ntor 8 17.9805 -170.0100 -161.6894 -173.4072 110.3883 -144.0234 -172.6871 122.0320
State:	 29.484 -14.982  -1.394  -0.602 -0.789  0.126 -100.795     17.98 -170.01 -161.69 -173.41  110.39 -144.02 -172.69  122.03

DOCKED: MODEL       37
DOCKED: USER    Run = 37
DOCKED: USER    DPF = ligand_dock.biased.dpf
DOCKED: USER  
DOCKED: USER    Estimated Free Energy of Binding    =  -10.37 kcal/mol  [=(1)+(2)+(3)-(4)]
DOCKED: USER    Estimated Inhibition Constant, Ki   =   25.09 nM (nanomolar)  [Temperature = 298.15 K]
DOCKED: USER    
DOCKED: USER    (1) Final Intermolecular Energy     =  -12.76 kcal/mol
DOCKED: USER        vdW + Hbond + desolv Energy     =  -12.76 kcal/mol
DOCKED: USER        Electrostatic Energy            =   +0.00 kcal/mol
DOCKED: USER    (2) Final Total Internal Energy     =   -2.79 kcal/mol
DOCKED: USER    (3) Torsional Free Energy           =   +2.39 kcal/mol
DOCKED: USER    (4) Unbound System's Energy  [=(2)] =   -2.79 kcal/mol
DOCKED: USER    
DOCKED: USER    
DOCKED: USER    NEWDPF move ligand.pdbqt
DOCKED: USER    NEWDPF about 0.693000 0.091000 0.076000
DOCKED: USER    NEWDPF tran0 29.483634 -14.981978 -1.393644
DOCKED: USER    NEWDPF quaternion0 -0.463573 -0.607679 0.097344 -0.637456
DOCKED: USER    NEWDPF axisangle0 -0.601663 -0.788695 0.126341 -100.795272
DOCKED: USER    NEWDPF quat0 -0.601663 -0.788695 0.126341 -100.795272
DOCKED: USER    NEWDPF dihe0 17.98 -170.01 -161.69 -173.41 110.39 -144.02 -172.69 122.03 
DOCKED: USER  keepresnum = 1 
DOCKED: USER  
DOCKED: REMARK  Name = 
DOCKED: REMARK  9 active torsions:
DOCKED: REMARK  status: ('A' for Active; 'I' for Inactive)
DOCKED: REMARK    1  A    between atoms: C_2  and  C_3
DOCKED: REMARK    2  A    between atoms: C_4  and  C_5
DOCKED: REMARK    3  A    between atoms: C_8  and  C_9
DOCKED: REMARK    4  A    between atoms: C_9  and  N_10
DOCKED: REMARK    5  A    between atoms: N_10  and  C_11
DOCKED: REMARK    6  A    between atoms: C_11  and  C_12
DOCKED: REMARK    7  A    between atoms: C_12  and  C_13
DOCKED: REMARK    8  A    between atoms: C_14  and  C_22
DOCKED: REMARK    9  A    between atoms: N_25  and  O_26
DOCKED: REMARK                            x       y       z     vdW  Elec       q    Type
DOCKED: REMARK                         _______ _______ _______ _____ _____    ______ ____
DOCKED: USER                              x       y       z     vdW  Elec       q    Type
DOCKED: USER                           _______ _______ _______ _____ _____    ______ ____
DOCKED: ROOT
DOCKED: ATOM      1  N   UNL     1      29.635 -15.346  -2.543 -0.11 -0.00    +0.000 N 
DOCKED: ATOM      2  H   UNL     1      30.651 -15.406  -2.629 +0.00 -0.00    +0.000 HD
DOCKED: ATOM      3  H   UNL     1      29.306 -14.391  -2.680 +0.01 -0.00    +0.000 HD
DOCKED: ENDROOT
DOCKED: BRANCH   1   4
DOCKED: ATOM      4  C   UNL     1      29.252 -15.762  -1.188 -0.19 -0.00    +0.000 C 
DOCKED: BRANCH   4   8
DOCKED: ATOM      5  C   UNL     1      25.008 -16.565  -0.983 -0.51 -0.00    +0.000 A 
DOCKED: ATOM      6  C   UNL     1      25.497 -15.253  -0.827 -0.27 -0.00    +0.000 A 
DOCKED: ATOM      7  C   UNL     1      26.868 -14.995  -0.900 -0.29 -0.00    +0.000 A 
DOCKED: ATOM      8  C   UNL     1      27.774 -16.037  -1.148 -0.30 -0.00    +0.000 A 
DOCKED: ATOM      9  C   UNL     1      27.292 -17.344  -1.304 -0.35 -0.00    +0.000 A 
DOCKED: ATOM     10  C   UNL     1      25.920 -17.603  -1.233 -0.50 -0.00    +0.000 A 
DOCKED: BRANCH   5  12
DOCKED: ATOM     11  C   UNL     1      23.064 -18.105  -1.183 -0.77 -0.00    +0.000 C 
DOCKED: ATOM     12  C   UNL     1      23.560 -16.887  -0.928 -0.59 -0.00    +0.000 C 
DOCKED: BRANCH  11  14
DOCKED: ATOM     13  O   UNL     1      20.827 -17.539  -0.706 -2.11 +0.00    +0.000 OA
DOCKED: ATOM     14  C   UNL     1      21.620 -18.414  -1.146 -0.64 -0.00    +0.000 C 
DOCKED: ATOM     15  N   UNL     1      21.094 -19.659  -1.624 -0.69 -0.00    +0.000 N 
DOCKED: ATOM     16  H   UNL     1      21.688 -20.304  -2.069 -0.51 -0.00    +0.000 HD
DOCKED: BRANCH  15  17
DOCKED: ATOM     17  O   UNL     1      19.779 -19.950  -1.465 -1.58 -0.00    +0.000 OA
DOCKED: ATOM     18  H   UNL     1      19.288 -19.134  -1.282 -0.34 -0.00    +0.000 HD
DOCKED: ENDBRANCH  15  17
DOCKED: ENDBRANCH  11  14
DOCKED: ENDBRANCH   5  12
DOCKED: ENDBRANCH   4   8
DOCKED: ENDBRANCH   1   4
DOCKED: BRANCH   1  19
DOCKED: ATOM     19  C   UNL     1      29.022 -16.187  -3.582 -0.26 -0.00    +0.000 C 
DOCKED: BRANCH  19  20
DOCKED: ATOM     20  C   UNL     1      28.623 -15.382  -4.830 -0.34 -0.00    +0.000 C 
DOCKED: BRANCH  20  21
DOCKED: ATOM     21  C   UNL     1      27.538 -14.399  -4.493 -0.31 -0.00    +0.000 A 
DOCKED: ATOM     22  C   UNL     1      26.169 -14.650  -4.384 -0.48 -0.00    +0.000 A 
DOCKED: ATOM     23  N   UNL     1      25.491 -13.505  -4.134 -0.46 -0.00    +0.000 N 
DOCKED: ATOM     24  C   UNL     1      26.416 -12.530  -4.105 -0.27 -0.00    +0.000 A 
DOCKED: ATOM     25  C   UNL     1      27.674 -13.035  -4.326 -0.19 -0.00    +0.000 A 
DOCKED: ATOM     26  C   UNL     1      28.799 -12.211  -4.366 -0.08 -0.00    +0.000 A 
DOCKED: ATOM     27  C   UNL     1      28.609 -10.831  -4.163 -0.05 -0.00    +0.000 A 
DOCKED: ATOM     28  C   UNL     1      27.316 -10.312  -3.931 -0.09 -0.00    +0.000 A 
DOCKED: ATOM     29  C   UNL     1      26.200 -11.167  -3.902 -0.15 -0.00    +0.000 A 
DOCKED: ATOM     30  C   UNL     1      25.513 -15.988  -4.513 -0.25 -0.00    +0.000 C 
DOCKED: ATOM     31  H   UNL     1      24.520 -13.406  -4.003 -0.11 -0.00    +0.000 HD
DOCKED: ENDBRANCH  20  21
DOCKED: ENDBRANCH  19  20
DOCKED: ENDBRANCH   1  19
DOCKED: TORSDOF 8
DOCKED: TER
DOCKED: ENDMDL
________________________________________________________________________________


	BEGINNING GENETIC ALGORITHM DOCKING 38 of 100
Run: 38 Seed: 1177486049 323655651 [ Run 38 of 100 GA/GALS ]
Beginning LAMARCKIAN GENETIC ALGORITHM (LGA), with a maximum of 2500000 energy evaluations.

Final-Value: -16.012


	FINAL GENETIC ALGORITHM DOCKED STATE
	_______________________________________________


Detailed state:  trans 28.005 -16.566 0.319 quatxyzw -0.510589 0.398147 0.435217 0.625591 center 0.693 0.091 0.076 ntor 8 7.5220 176.5982 -74.8027 163.6120 173.0920 -77.2684 24.3261 87.2580
State:	 28.005 -16.566   0.319  -0.654  0.510  0.558 102.549      7.52  176.60  -74.80  163.61  173.09  -77.27   24.33   87.26

DOCKED: MODEL       38
DOCKED: USER    Run = 38
DOCKED: USER    DPF = ligand_dock.biased.dpf
DOCKED: USER  
DOCKED: USER    Estimated Free Energy of Binding    =  -11.88 kcal/mol  [=(1)+(2)+(3)-(4)]
DOCKED: USER    Estimated Inhibition Constant, Ki   =    1.97 nM (nanomolar)  [Temperature = 298.15 K]
DOCKED: USER    
DOCKED: USER    (1) Final Intermolecular Energy     =  -14.26 kcal/mol
DOCKED: USER        vdW + Hbond + desolv Energy     =  -14.26 kcal/mol
DOCKED: USER        Electrostatic Energy            =   +0.00 kcal/mol
DOCKED: USER    (2) Final Total Internal Energy     =   -1.75 kcal/mol
DOCKED: USER    (3) Torsional Free Energy           =   +2.39 kcal/mol
DOCKED: USER    (4) Unbound System's Energy  [=(2)] =   -1.75 kcal/mol
DOCKED: USER    
DOCKED: USER    
DOCKED: USER    NEWDPF move ligand.pdbqt
DOCKED: USER    NEWDPF about 0.693000 0.091000 0.076000
DOCKED: USER    NEWDPF tran0 28.005198 -16.566042 0.318622
DOCKED: USER    NEWDPF quaternion0 -0.510589 0.398147 0.435217 0.625591
DOCKED: USER    NEWDPF axisangle0 -0.654475 0.510346 0.557862 102.548817
DOCKED: USER    NEWDPF quat0 -0.654475 0.510346 0.557862 102.548817
DOCKED: USER    NEWDPF dihe0 7.52 176.60 -74.80 163.61 173.09 -77.27 24.33 87.26 
DOCKED: USER  keepresnum = 1 
DOCKED: USER  
DOCKED: REMARK  Name = 
DOCKED: REMARK  9 active torsions:
DOCKED: REMARK  status: ('A' for Active; 'I' for Inactive)
DOCKED: REMARK    1  A    between atoms: C_2  and  C_3
DOCKED: REMARK    2  A    between atoms: C_4  and  C_5
DOCKED: REMARK    3  A    between atoms: C_8  and  C_9
DOCKED: REMARK    4  A    between atoms: C_9  and  N_10
DOCKED: REMARK    5  A    between atoms: N_10  and  C_11
DOCKED: REMARK    6  A    between atoms: C_11  and  C_12
DOCKED: REMARK    7  A    between atoms: C_12  and  C_13
DOCKED: REMARK    8  A    between atoms: C_14  and  C_22
DOCKED: REMARK    9  A    between atoms: N_25  and  O_26
DOCKED: REMARK                            x       y       z     vdW  Elec       q    Type
DOCKED: REMARK                         _______ _______ _______ _____ _____    ______ ____
DOCKED: USER                              x       y       z     vdW  Elec       q    Type
DOCKED: USER                           _______ _______ _______ _____ _____    ______ ____
DOCKED: ROOT
DOCKED: ATOM      1  N   UNL     1      27.899 -15.515   0.918 -0.17 -0.00    +0.000 N 
DOCKED: ATOM      2  H   UNL     1      28.849 -15.346   1.249 -0.84 -0.00    +0.000 HD
DOCKED: ATOM      3  H   UNL     1      27.395 -16.149   1.539 -0.40 -0.00    +0.000 HD
DOCKED: ENDROOT
DOCKED: BRANCH   1   4
DOCKED: ATOM      4  C   UNL     1      27.966 -16.144  -0.407 -0.33 -0.00    +0.000 C 
DOCKED: BRANCH   4   8
DOCKED: ATOM      5  C   UNL     1      24.169 -18.060  -1.192 -0.68 -0.00    +0.000 A 
DOCKED: ATOM      6  C   UNL     1      24.571 -16.934  -1.938 -0.49 -0.00    +0.000 A 
DOCKED: ATOM      7  C   UNL     1      25.801 -16.320  -1.686 -0.48 -0.00    +0.000 A 
DOCKED: ATOM      8  C   UNL     1      26.660 -16.830  -0.701 -0.46 -0.00    +0.000 A 
DOCKED: ATOM      9  C   UNL     1      26.265 -17.950   0.043 -0.56 -0.00    +0.000 A 
DOCKED: ATOM     10  C   UNL     1      25.035 -18.566  -0.209 -0.50 -0.00    +0.000 A 
DOCKED: BRANCH   5  12
DOCKED: ATOM     11  C   UNL     1      21.782 -18.550  -0.693 -0.86 -0.00    +0.000 C 
DOCKED: ATOM     12  C   UNL     1      22.880 -18.755  -1.432 -0.76 -0.00    +0.000 C 
DOCKED: BRANCH  11  14
DOCKED: ATOM     13  O   UNL     1      20.294 -19.760  -2.061 -1.84 -0.00    +0.000 OA
DOCKED: ATOM     14  C   UNL     1      20.507 -19.259  -0.925 -0.90 -0.00    +0.000 C 
DOCKED: ATOM     15  N   UNL     1      19.526 -19.423   0.108 -0.75 -0.00    +0.000 N 
DOCKED: ATOM     16  H   UNL     1      19.727 -19.134   1.026 -0.18 -0.00    +0.000 HD
DOCKED: BRANCH  15  17
DOCKED: ATOM     17  O   UNL     1      18.322 -19.976  -0.176 -0.79 -0.00    +0.000 OA
DOCKED: ATOM     18  H   UNL     1      18.328 -20.312  -1.086 -0.40 -0.00    +0.000 HD
DOCKED: ENDBRANCH  15  17
DOCKED: ENDBRANCH  11  14
DOCKED: ENDBRANCH   5  12
DOCKED: ENDBRANCH   4   8
DOCKED: ENDBRANCH   1   4
DOCKED: BRANCH   1  19
DOCKED: ATOM     19  C   UNL     1      27.172 -14.237   0.895 -0.27 -0.00    +0.000 C 
DOCKED: BRANCH  19  20
DOCKED: ATOM     20  C   UNL     1      27.677 -13.253   1.963 -0.29 -0.00    +0.000 C 
DOCKED: BRANCH  20  21
DOCKED: ATOM     21  C   UNL     1      28.753 -13.891   2.794 -0.25 -0.00    +0.000 A 
DOCKED: ATOM     22  C   UNL     1      28.641 -14.387   4.094 -0.43 -0.00    +0.000 A 
DOCKED: ATOM     23  N   UNL     1      29.840 -14.826   4.544 -0.39 -0.00    +0.000 N 
DOCKED: ATOM     24  C   UNL     1      30.713 -14.594   3.549 -0.25 -0.00    +0.000 A 
DOCKED: ATOM     25  C   UNL     1      30.090 -14.019   2.469 -0.16 -0.00    +0.000 A 
DOCKED: ATOM     26  C   UNL     1      30.795 -13.661   1.319 -0.07 -0.00    +0.000 A 
DOCKED: ATOM     27  C   UNL     1      32.179 -13.916   1.292 -0.04 -0.00    +0.000 A 
DOCKED: ATOM     28  C   UNL     1      32.819 -14.512   2.401 -0.08 -0.00    +0.000 A 
DOCKED: ATOM     29  C   UNL     1      32.083 -14.856   3.549 -0.14 -0.00    +0.000 A 
DOCKED: ATOM     30  C   UNL     1      27.383 -14.446   4.901 -0.47 -0.00    +0.000 C 
DOCKED: ATOM     31  H   UNL     1      30.033 -15.231   5.421 -0.04 -0.00    +0.000 HD
DOCKED: ENDBRANCH  20  21
DOCKED: ENDBRANCH  19  20
DOCKED: ENDBRANCH   1  19
DOCKED: TORSDOF 8
DOCKED: TER
DOCKED: ENDMDL
________________________________________________________________________________


	BEGINNING GENETIC ALGORITHM DOCKING 39 of 100
Run: 39 Seed: 247514259 82740270 [ Run 39 of 100 GA/GALS ]
Beginning LAMARCKIAN GENETIC ALGORITHM (LGA), with a maximum of 2500000 energy evaluations.

Final-Value: -15.370


	FINAL GENETIC ALGORITHM DOCKED STATE
	_______________________________________________


Detailed state:  trans 29.240 -15.080 -1.122 quatxyzw -0.402824 -0.719868 0.187073 -0.533410 center 0.693 0.091 0.076 ntor 8 19.7060 175.5994 169.6032 -28.5132 -94.6948 172.8090 -132.4531 102.8324
State:	 29.240 -15.080  -1.122  -0.476 -0.851  0.221 -115.528     19.71  175.60  169.60  -28.51  -94.69  172.81 -132.45  102.83

DOCKED: MODEL       39
DOCKED: USER    Run = 39
DOCKED: USER    DPF = ligand_dock.biased.dpf
DOCKED: USER  
DOCKED: USER    Estimated Free Energy of Binding    =  -11.08 kcal/mol  [=(1)+(2)+(3)-(4)]
DOCKED: USER    Estimated Inhibition Constant, Ki   =    7.52 nM (nanomolar)  [Temperature = 298.15 K]
DOCKED: USER    
DOCKED: USER    (1) Final Intermolecular Energy     =  -13.47 kcal/mol
DOCKED: USER        vdW + Hbond + desolv Energy     =  -13.47 kcal/mol
DOCKED: USER        Electrostatic Energy            =   +0.00 kcal/mol
DOCKED: USER    (2) Final Total Internal Energy     =   -1.90 kcal/mol
DOCKED: USER    (3) Torsional Free Energy           =   +2.39 kcal/mol
DOCKED: USER    (4) Unbound System's Energy  [=(2)] =   -1.90 kcal/mol
DOCKED: USER    
DOCKED: USER    
DOCKED: USER    NEWDPF move ligand.pdbqt
DOCKED: USER    NEWDPF about 0.693000 0.091000 0.076000
DOCKED: USER    NEWDPF tran0 29.239658 -15.079766 -1.121539
DOCKED: USER    NEWDPF quaternion0 -0.402824 -0.719868 0.187073 -0.533410
DOCKED: USER    NEWDPF axisangle0 -0.476232 -0.851052 0.221164 -115.527676
DOCKED: USER    NEWDPF quat0 -0.476232 -0.851052 0.221164 -115.527676
DOCKED: USER    NEWDPF dihe0 19.71 175.60 169.60 -28.51 -94.69 172.81 -132.45 102.83 
DOCKED: USER  keepresnum = 1 
DOCKED: USER  
DOCKED: REMARK  Name = 
DOCKED: REMARK  9 active torsions:
DOCKED: REMARK  status: ('A' for Active; 'I' for Inactive)
DOCKED: REMARK    1  A    between atoms: C_2  and  C_3
DOCKED: REMARK    2  A    between atoms: C_4  and  C_5
DOCKED: REMARK    3  A    between atoms: C_8  and  C_9
DOCKED: REMARK    4  A    between atoms: C_9  and  N_10
DOCKED: REMARK    5  A    between atoms: N_10  and  C_11
DOCKED: REMARK    6  A    between atoms: C_11  and  C_12
DOCKED: REMARK    7  A    between atoms: C_12  and  C_13
DOCKED: REMARK    8  A    between atoms: C_14  and  C_22
DOCKED: REMARK    9  A    between atoms: N_25  and  O_26
DOCKED: REMARK                            x       y       z     vdW  Elec       q    Type
DOCKED: REMARK                         _______ _______ _______ _____ _____    ______ ____
DOCKED: USER                              x       y       z     vdW  Elec       q    Type
DOCKED: USER                           _______ _______ _______ _____ _____    ______ ____
DOCKED: ROOT
DOCKED: ATOM      1  N   UNL     1      29.706 -15.465  -2.175 -0.11 -0.00    +0.000 N 
DOCKED: ATOM      2  H   UNL     1      30.690 -15.207  -2.094 +0.00 -0.00    +0.000 HD
DOCKED: ATOM      3  H   UNL     1      29.139 -14.676  -2.486 +0.01 -0.00    +0.000 HD
DOCKED: ENDROOT
DOCKED: BRANCH   1   4
DOCKED: ATOM      4  C   UNL     1      29.216 -15.875  -0.853 -0.21 -0.00    +0.000 C 
DOCKED: BRANCH   4   8
DOCKED: ATOM      5  C   UNL     1      24.965 -16.652  -1.003 -0.53 -0.00    +0.000 A 
DOCKED: ATOM      6  C   UNL     1      25.508 -15.512  -1.630 -0.41 -0.00    +0.000 A 
DOCKED: ATOM      7  C   UNL     1      26.883 -15.267  -1.585 -0.30 -0.00    +0.000 A 
DOCKED: ATOM      8  C   UNL     1      27.743 -16.162  -0.933 -0.32 -0.00    +0.000 A 
DOCKED: ATOM      9  C   UNL     1      27.207 -17.297  -0.308 -0.42 -0.00    +0.000 A 
DOCKED: ATOM     10  C   UNL     1      25.832 -17.545  -0.353 -0.57 -0.00    +0.000 A 
DOCKED: BRANCH   5  12
DOCKED: ATOM     11  C   UNL     1      23.028 -18.211  -1.085 -0.81 -0.00    +0.000 C 
DOCKED: ATOM     12  C   UNL     1      23.515 -16.963  -1.036 -0.62 -0.00    +0.000 C 
DOCKED: BRANCH  11  14
DOCKED: ATOM     13  O   UNL     1      20.771 -17.652  -0.707 -2.17 -0.00    +0.000 OA
DOCKED: ATOM     14  C   UNL     1      21.583 -18.514  -1.136 -0.69 -0.00    +0.000 C 
DOCKED: ATOM     15  N   UNL     1      21.079 -19.737  -1.689 -0.66 -0.00    +0.000 N 
DOCKED: ATOM     16  H   UNL     1      21.694 -20.368  -2.126 -0.52 -0.00    +0.000 HD
DOCKED: BRANCH  15  17
DOCKED: ATOM     17  O   UNL     1      19.758 -20.027  -1.612 -1.59 -0.00    +0.000 OA
DOCKED: ATOM     18  H   UNL     1      19.257 -19.212  -1.451 -0.42 -0.00    +0.000 HD
DOCKED: ENDBRANCH  15  17
DOCKED: ENDBRANCH  11  14
DOCKED: ENDBRANCH   5  12
DOCKED: ENDBRANCH   4   8
DOCKED: ENDBRANCH   1   4
DOCKED: BRANCH   1  19
DOCKED: ATOM     19  C   UNL     1      29.578 -16.534  -3.177 -0.23 -0.00    +0.000 C 
DOCKED: BRANCH  19  20
DOCKED: ATOM     20  C   UNL     1      28.345 -16.350  -4.078 +0.12 -0.00    +0.000 C 
DOCKED: BRANCH  20  21
DOCKED: ATOM     21  C   UNL     1      28.698 -15.529  -5.286 -0.33 -0.00    +0.000 A 
DOCKED: ATOM     22  C   UNL     1      29.597 -15.857  -6.302 -0.32 -0.00    +0.000 A 
DOCKED: ATOM     23  N   UNL     1      29.708 -14.839  -7.189 -0.33 -0.00    +0.000 N 
DOCKED: ATOM     24  C   UNL     1      28.904 -13.864  -6.731 -0.30 -0.00    +0.000 A 
DOCKED: ATOM     25  C   UNL     1      28.277 -14.244  -5.570 -0.31 -0.00    +0.000 A 
DOCKED: ATOM     26  C   UNL     1      27.408 -13.390  -4.891 -0.25 -0.00    +0.000 A 
DOCKED: ATOM     27  C   UNL     1      27.182 -12.113  -5.439 -0.19 -0.00    +0.000 A 
DOCKED: ATOM     28  C   UNL     1      27.823 -11.723  -6.635 -0.16 -0.00    +0.000 A 
DOCKED: ATOM     29  C   UNL     1      28.699 -12.605  -7.295 -0.22 -0.00    +0.000 A 
DOCKED: ATOM     30  C   UNL     1      30.343 -17.147  -6.425 -0.35 -0.00    +0.000 C 
DOCKED: ATOM     31  H   UNL     1      30.265 -14.818  -8.000 -0.26 -0.00    +0.000 HD
DOCKED: ENDBRANCH  20  21
DOCKED: ENDBRANCH  19  20
DOCKED: ENDBRANCH   1  19
DOCKED: TORSDOF 8
DOCKED: TER
DOCKED: ENDMDL
________________________________________________________________________________


	BEGINNING GENETIC ALGORITHM DOCKING 40 of 100
Run: 40 Seed: 1073061602 865876523 [ Run 40 of 100 GA/GALS ]
Beginning LAMARCKIAN GENETIC ALGORITHM (LGA), with a maximum of 2500000 energy evaluations.

Final-Value: -16.701


	FINAL GENETIC ALGORITHM DOCKED STATE
	_______________________________________________


Detailed state:  trans 28.409 -15.659 0.419 quatxyzw -0.252914 0.763103 0.560186 0.199747 center 0.693 0.091 0.076 ntor 8 12.5578 139.2398 23.1710 -180.0000 -149.8072 -147.1266 166.1589 24.4464
State:	 28.409 -15.659   0.419  -0.258  0.779  0.572 156.956     12.56  139.24   23.17 -180.00 -149.81 -147.13  166.16   24.45

DOCKED: MODEL       40
DOCKED: USER    Run = 40
DOCKED: USER    DPF = ligand_dock.biased.dpf
DOCKED: USER  
DOCKED: USER    Estimated Free Energy of Binding    =  -12.43 kcal/mol  [=(1)+(2)+(3)-(4)]
DOCKED: USER    Estimated Inhibition Constant, Ki   =  771.23 pM (picomolar)  [Temperature = 298.15 K]
DOCKED: USER    
DOCKED: USER    (1) Final Intermolecular Energy     =  -14.82 kcal/mol
DOCKED: USER        vdW + Hbond + desolv Energy     =  -14.82 kcal/mol
DOCKED: USER        Electrostatic Energy            =   +0.00 kcal/mol
DOCKED: USER    (2) Final Total Internal Energy     =   -1.88 kcal/mol
DOCKED: USER    (3) Torsional Free Energy           =   +2.39 kcal/mol
DOCKED: USER    (4) Unbound System's Energy  [=(2)] =   -1.88 kcal/mol
DOCKED: USER    
DOCKED: USER    
DOCKED: USER    NEWDPF move ligand.pdbqt
DOCKED: USER    NEWDPF about 0.693000 0.091000 0.076000
DOCKED: USER    NEWDPF tran0 28.408709 -15.658577 0.418881
DOCKED: USER    NEWDPF quaternion0 -0.252914 0.763103 0.560186 0.199747
DOCKED: USER    NEWDPF axisangle0 -0.258116 0.778798 0.571708 156.955659
DOCKED: USER    NEWDPF quat0 -0.258116 0.778798 0.571708 156.955659
DOCKED: USER    NEWDPF dihe0 12.56 139.24 23.17 -180.00 -149.81 -147.13 166.16 24.45 
DOCKED: USER  keepresnum = 1 
DOCKED: USER  
DOCKED: REMARK  Name = 
DOCKED: REMARK  9 active torsions:
DOCKED: REMARK  status: ('A' for Active; 'I' for Inactive)
DOCKED: REMARK    1  A    between atoms: C_2  and  C_3
DOCKED: REMARK    2  A    between atoms: C_4  and  C_5
DOCKED: REMARK    3  A    between atoms: C_8  and  C_9
DOCKED: REMARK    4  A    between atoms: C_9  and  N_10
DOCKED: REMARK    5  A    between atoms: N_10  and  C_11
DOCKED: REMARK    6  A    between atoms: C_11  and  C_12
DOCKED: REMARK    7  A    between atoms: C_12  and  C_13
DOCKED: REMARK    8  A    between atoms: C_14  and  C_22
DOCKED: REMARK    9  A    between atoms: N_25  and  O_26
DOCKED: REMARK                            x       y       z     vdW  Elec       q    Type
DOCKED: REMARK                         _______ _______ _______ _____ _____    ______ ____
DOCKED: USER                              x       y       z     vdW  Elec       q    Type
DOCKED: USER                           _______ _______ _______ _____ _____    ______ ____
DOCKED: ROOT
DOCKED: ATOM      1  N   UNL     1      29.155 -14.965   1.081 -0.13 -0.00    +0.000 N 
DOCKED: ATOM      2  H   UNL     1      29.487 -15.611   1.798 -1.37 -0.00    +0.000 HD
DOCKED: ATOM      3  H   UNL     1      28.248 -14.570   1.327 -0.26 -0.00    +0.000 HD
DOCKED: ENDROOT
DOCKED: BRANCH   1   4
DOCKED: ATOM      4  C   UNL     1      28.996 -15.702  -0.180 -0.21 -0.00    +0.000 C 
DOCKED: BRANCH   4   8
DOCKED: ATOM      5  C   UNL     1      24.871 -16.862  -0.756 -0.54 -0.00    +0.000 A 
DOCKED: ATOM      6  C   UNL     1      25.839 -17.818  -0.391 -0.59 -0.00    +0.000 A 
DOCKED: ATOM      7  C   UNL     1      27.171 -17.440  -0.200 -0.40 -0.00    +0.000 A 
DOCKED: ATOM      8  C   UNL     1      27.556 -16.099  -0.349 -0.32 -0.00    +0.000 A 
DOCKED: ATOM      9  C   UNL     1      26.596 -15.144  -0.711 -0.32 -0.00    +0.000 A 
DOCKED: ATOM     10  C   UNL     1      25.263 -15.521  -0.901 -0.22 -0.00    +0.000 A 
DOCKED: BRANCH   5  12
DOCKED: ATOM     11  C   UNL     1      22.961 -18.455  -0.825 -0.83 -0.00    +0.000 C 
DOCKED: ATOM     12  C   UNL     1      23.442 -17.212  -0.956 -0.70 -0.00    +0.000 C 
DOCKED: BRANCH  11  14
DOCKED: ATOM     13  O   UNL     1      20.668 -18.234  -0.336 -2.01 -0.00    +0.000 OA
DOCKED: ATOM     14  C   UNL     1      21.542 -18.801  -1.044 -0.83 -0.00    +0.000 C 
DOCKED: ATOM     15  N   UNL     1      21.131 -19.731  -2.055 -0.42 -0.00    +0.000 N 
DOCKED: ATOM     16  H   UNL     1      21.792 -20.096  -2.684 -0.60 -0.00    +0.000 HD
DOCKED: BRANCH  15  17
DOCKED: ATOM     17  O   UNL     1      19.832 -20.109  -2.146 -1.72 -0.00    +0.000 OA
DOCKED: ATOM     18  H   UNL     1      19.286 -19.523  -1.599 -0.36 -0.00    +0.000 HD
DOCKED: ENDBRANCH  15  17
DOCKED: ENDBRANCH  11  14
DOCKED: ENDBRANCH   5  12
DOCKED: ENDBRANCH   4   8
DOCKED: ENDBRANCH   1   4
DOCKED: BRANCH   1  19
DOCKED: ATOM     19  C   UNL     1      30.113 -13.855   0.963 -0.10 -0.00    +0.000 C 
DOCKED: BRANCH  19  20
DOCKED: ATOM     20  C   UNL     1      29.652 -12.599   1.722 -0.09 -0.00    +0.000 C 
DOCKED: BRANCH  20  21
DOCKED: ATOM     21  C   UNL     1      28.915 -12.984   2.973 -0.18 -0.00    +0.000 A 
DOCKED: ATOM     22  C   UNL     1      27.552 -13.253   3.107 -0.33 -0.00    +0.000 A 
DOCKED: ATOM     23  N   UNL     1      27.238 -13.499   4.401 -0.47 -0.00    +0.000 N 
DOCKED: ATOM     24  C   UNL     1      28.385 -13.368   5.088 -0.42 -0.00    +0.000 A 
DOCKED: ATOM     25  C   UNL     1      29.428 -13.048   4.254 -0.22 -0.00    +0.000 A 
DOCKED: ATOM     26  C   UNL     1      30.718 -12.836   4.740 -0.15 -0.00    +0.000 A 
DOCKED: ATOM     27  C   UNL     1      30.928 -12.968   6.125 -0.21 -0.00    +0.000 A 
DOCKED: ATOM     28  C   UNL     1      29.856 -13.302   6.983 -0.32 -0.00    +0.000 A 
DOCKED: ATOM     29  C   UNL     1      28.564 -13.504   6.464 -0.22 -0.00    +0.000 A 
DOCKED: ATOM     30  C   UNL     1      26.554 -13.281   1.993 -0.25 -0.00    +0.000 C 
DOCKED: ATOM     31  H   UNL     1      26.351 -13.726   4.763 -0.05 -0.00    +0.000 HD
DOCKED: ENDBRANCH  20  21
DOCKED: ENDBRANCH  19  20
DOCKED: ENDBRANCH   1  19
DOCKED: TORSDOF 8
DOCKED: TER
DOCKED: ENDMDL
________________________________________________________________________________


	BEGINNING GENETIC ALGORITHM DOCKING 41 of 100
Run: 41 Seed: 1559891621 540081683 [ Run 41 of 100 GA/GALS ]
Beginning LAMARCKIAN GENETIC ALGORITHM (LGA), with a maximum of 2500000 energy evaluations.

Final-Value: -14.735


	FINAL GENETIC ALGORITHM DOCKED STATE
	_______________________________________________


Detailed state:  trans 25.788 -17.388 -2.039 quatxyzw -0.494908 0.481737 -0.426634 -0.583934 center 0.693 0.091 0.076 ntor 8 16.2439 -138.5423 -88.5437 172.0214 -168.8425 159.9371 -153.7235 -86.6601
State:	 25.788 -17.388  -2.039  -0.610  0.593 -0.526 -108.545     16.24 -138.54  -88.54  172.02 -168.84  159.94 -153.72  -86.66

DOCKED: MODEL       41
DOCKED: USER    Run = 41
DOCKED: USER    DPF = ligand_dock.biased.dpf
DOCKED: USER  
DOCKED: USER    Estimated Free Energy of Binding    =  -10.68 kcal/mol  [=(1)+(2)+(3)-(4)]
DOCKED: USER    Estimated Inhibition Constant, Ki   =   14.76 nM (nanomolar)  [Temperature = 298.15 K]
DOCKED: USER    
DOCKED: USER    (1) Final Intermolecular Energy     =  -13.07 kcal/mol
DOCKED: USER        vdW + Hbond + desolv Energy     =  -13.07 kcal/mol
DOCKED: USER        Electrostatic Energy            =   +0.00 kcal/mol
DOCKED: USER    (2) Final Total Internal Energy     =   -1.67 kcal/mol
DOCKED: USER    (3) Torsional Free Energy           =   +2.39 kcal/mol
DOCKED: USER    (4) Unbound System's Energy  [=(2)] =   -1.67 kcal/mol
DOCKED: USER    
DOCKED: USER    
DOCKED: USER    NEWDPF move ligand.pdbqt
DOCKED: USER    NEWDPF about 0.693000 0.091000 0.076000
DOCKED: USER    NEWDPF tran0 25.788225 -17.387561 -2.039223
DOCKED: USER    NEWDPF quaternion0 -0.494908 0.481737 -0.426634 -0.583934
DOCKED: USER    NEWDPF axisangle0 -0.609642 0.593418 -0.525540 -108.544503
DOCKED: USER    NEWDPF quat0 -0.609642 0.593418 -0.525540 -108.544503
DOCKED: USER    NEWDPF dihe0 16.24 -138.54 -88.54 172.02 -168.84 159.94 -153.72 -86.66 
DOCKED: USER  keepresnum = 1 
DOCKED: USER  
DOCKED: REMARK  Name = 
DOCKED: REMARK  9 active torsions:
DOCKED: REMARK  status: ('A' for Active; 'I' for Inactive)
DOCKED: REMARK    1  A    between atoms: C_2  and  C_3
DOCKED: REMARK    2  A    between atoms: C_4  and  C_5
DOCKED: REMARK    3  A    between atoms: C_8  and  C_9
DOCKED: REMARK    4  A    between atoms: C_9  and  N_10
DOCKED: REMARK    5  A    between atoms: N_10  and  C_11
DOCKED: REMARK    6  A    between atoms: C_11  and  C_12
DOCKED: REMARK    7  A    between atoms: C_12  and  C_13
DOCKED: REMARK    8  A    between atoms: C_14  and  C_22
DOCKED: REMARK    9  A    between atoms: N_25  and  O_26
DOCKED: REMARK                            x       y       z     vdW  Elec       q    Type
DOCKED: REMARK                         _______ _______ _______ _____ _____    ______ ____
DOCKED: USER                              x       y       z     vdW  Elec       q    Type
DOCKED: USER                           _______ _______ _______ _____ _____    ______ ____
DOCKED: ROOT
DOCKED: ATOM      1  N   UNL     1      25.523 -16.331  -2.578 -0.53 -0.00    +0.000 N 
DOCKED: ATOM      2  H   UNL     1      24.679 -16.553  -3.108 -0.03 -0.00    +0.000 HD
DOCKED: ATOM      3  H   UNL     1      26.364 -16.605  -3.084 -0.02 -0.00    +0.000 HD
DOCKED: ENDROOT
DOCKED: BRANCH   1   4
DOCKED: ATOM      4  C   UNL     1      25.496 -17.080  -1.315 -0.62 -0.00    +0.000 C 
DOCKED: BRANCH   4   8
DOCKED: ATOM      5  C   UNL     1      21.547 -18.682  -0.581 -0.76 -0.00    +0.000 A 
DOCKED: ATOM      6  C   UNL     1      21.765 -17.290  -0.589 -0.54 -0.00    +0.000 A 
DOCKED: ATOM      7  C   UNL     1      23.041 -16.774  -0.832 -0.37 -0.00    +0.000 A 
DOCKED: ATOM      8  C   UNL     1      24.117 -17.636  -1.091 -0.67 -0.00    +0.000 A 
DOCKED: ATOM      9  C   UNL     1      23.905 -19.022  -1.085 -0.61 -0.00    +0.000 A 
DOCKED: ATOM     10  C   UNL     1      22.629 -19.539  -0.844 -0.44 -0.00    +0.000 A 
DOCKED: BRANCH   5  12
DOCKED: ATOM     11  C   UNL     1      19.901 -19.990   0.748 -0.78 -0.00    +0.000 C 
DOCKED: ATOM     12  C   UNL     1      20.209 -19.277  -0.343 -0.86 -0.00    +0.000 C 
DOCKED: BRANCH  11  14
DOCKED: ATOM     13  O   UNL     1      17.841 -20.828  -0.028 -0.81 -0.00    +0.000 OA
DOCKED: ATOM     14  C   UNL     1      18.572 -20.596   0.971 -0.78 -0.00    +0.000 C 
DOCKED: ATOM     15  N   UNL     1      18.107 -20.956   2.279 -0.67 -0.00    +0.000 N 
DOCKED: ATOM     16  H   UNL     1      18.711 -20.881   3.052 -0.11 -0.00    +0.000 HD
DOCKED: BRANCH  15  17
DOCKED: ATOM     17  O   UNL     1      16.839 -21.400   2.453 -0.77 -0.00    +0.000 OA
DOCKED: ATOM     18  H   UNL     1      16.466 -21.659   1.596 -0.25 -0.00    +0.000 HD
DOCKED: ENDBRANCH  15  17
DOCKED: ENDBRANCH  11  14
DOCKED: ENDBRANCH   5  12
DOCKED: ENDBRANCH   4   8
DOCKED: ENDBRANCH   1   4
DOCKED: BRANCH   1  19
DOCKED: ATOM     19  C   UNL     1      25.579 -14.877  -2.366 -0.42 -0.00    +0.000 C 
DOCKED: BRANCH  19  20
DOCKED: ATOM     20  C   UNL     1      27.020 -14.361  -2.213 -0.28 -0.00    +0.000 C 
DOCKED: BRANCH  20  21
DOCKED: ATOM     21  C   UNL     1      27.999 -15.394  -2.691 -0.23 -0.00    +0.000 A 
DOCKED: ATOM     22  C   UNL     1      28.682 -16.338  -1.922 -0.24 -0.00    +0.000 A 
DOCKED: ATOM     23  N   UNL     1      29.534 -17.056  -2.691 -0.23 -0.00    +0.000 N 
DOCKED: ATOM     24  C   UNL     1      29.411 -16.561  -3.935 -0.22 -0.00    +0.000 A 
DOCKED: ATOM     25  C   UNL     1      28.491 -15.543  -3.974 -0.26 -0.00    +0.000 A 
DOCKED: ATOM     26  C   UNL     1      28.207 -14.854  -5.153 -0.34 -0.00    +0.000 A 
DOCKED: ATOM     27  C   UNL     1      28.893 -15.241  -6.320 -0.34 -0.00    +0.000 A 
DOCKED: ATOM     28  C   UNL     1      29.836 -16.291  -6.282 -0.30 -0.00    +0.000 A 
DOCKED: ATOM     29  C   UNL     1      30.105 -16.964  -5.075 -0.27 -0.00    +0.000 A 
DOCKED: ATOM     30  C   UNL     1      28.511 -16.555  -0.452 -0.30 -0.00    +0.000 C 
DOCKED: ATOM     31  H   UNL     1      30.123 -17.789  -2.399 -0.02 -0.00    +0.000 HD
DOCKED: ENDBRANCH  20  21
DOCKED: ENDBRANCH  19  20
DOCKED: ENDBRANCH   1  19
DOCKED: TORSDOF 8
DOCKED: TER
DOCKED: ENDMDL
________________________________________________________________________________


	BEGINNING GENETIC ALGORITHM DOCKING 42 of 100
Run: 42 Seed: 532564291 264573732 [ Run 42 of 100 GA/GALS ]
Beginning LAMARCKIAN GENETIC ALGORITHM (LGA), with a maximum of 2500000 energy evaluations.

Final-Value: -16.378


	FINAL GENETIC ALGORITHM DOCKED STATE
	_______________________________________________


Detailed state:  trans 28.697 -15.242 0.502 quatxyzw -0.238899 0.645421 0.722476 0.066238 center 0.693 0.091 0.076 ntor 8 12.4940 112.5828 84.2059 173.9627 -122.4997 -179.4253 180.0000 5.1057
State:	 28.697 -15.242   0.502  -0.239  0.647  0.724 172.404     12.49  112.58   84.21  173.96 -122.50 -179.43  180.00    5.11

DOCKED: MODEL       42
DOCKED: USER    Run = 42
DOCKED: USER    DPF = ligand_dock.biased.dpf
DOCKED: USER  
DOCKED: USER    Estimated Free Energy of Binding    =  -12.15 kcal/mol  [=(1)+(2)+(3)-(4)]
DOCKED: USER    Estimated Inhibition Constant, Ki   =    1.24 nM (nanomolar)  [Temperature = 298.15 K]
DOCKED: USER    
DOCKED: USER    (1) Final Intermolecular Energy     =  -14.54 kcal/mol
DOCKED: USER        vdW + Hbond + desolv Energy     =  -14.54 kcal/mol
DOCKED: USER        Electrostatic Energy            =   +0.00 kcal/mol
DOCKED: USER    (2) Final Total Internal Energy     =   -1.84 kcal/mol
DOCKED: USER    (3) Torsional Free Energy           =   +2.39 kcal/mol
DOCKED: USER    (4) Unbound System's Energy  [=(2)] =   -1.84 kcal/mol
DOCKED: USER    
DOCKED: USER    
DOCKED: USER    NEWDPF move ligand.pdbqt
DOCKED: USER    NEWDPF about 0.693000 0.091000 0.076000
DOCKED: USER    NEWDPF tran0 28.696908 -15.242220 0.501599
DOCKED: USER    NEWDPF quaternion0 -0.238899 0.645421 0.722476 0.066238
DOCKED: USER    NEWDPF axisangle0 -0.239425 0.646842 0.724066 172.404083
DOCKED: USER    NEWDPF quat0 -0.239425 0.646842 0.724066 172.404083
DOCKED: USER    NEWDPF dihe0 12.49 112.58 84.21 173.96 -122.50 -179.43 180.00 5.11 
DOCKED: USER  keepresnum = 1 
DOCKED: USER  
DOCKED: REMARK  Name = 
DOCKED: REMARK  9 active torsions:
DOCKED: REMARK  status: ('A' for Active; 'I' for Inactive)
DOCKED: REMARK    1  A    between atoms: C_2  and  C_3
DOCKED: REMARK    2  A    between atoms: C_4  and  C_5
DOCKED: REMARK    3  A    between atoms: C_8  and  C_9
DOCKED: REMARK    4  A    between atoms: C_9  and  N_10
DOCKED: REMARK    5  A    between atoms: N_10  and  C_11
DOCKED: REMARK    6  A    between atoms: C_11  and  C_12
DOCKED: REMARK    7  A    between atoms: C_12  and  C_13
DOCKED: REMARK    8  A    between atoms: C_14  and  C_22
DOCKED: REMARK    9  A    between atoms: N_25  and  O_26
DOCKED: REMARK                            x       y       z     vdW  Elec       q    Type
DOCKED: REMARK                         _______ _______ _______ _____ _____    ______ ____
DOCKED: USER                              x       y       z     vdW  Elec       q    Type
DOCKED: USER                           _______ _______ _______ _____ _____    ______ ____
DOCKED: ROOT
DOCKED: ATOM      1  N   UNL     1      29.477 -15.045   1.412 +0.06 -0.00    +0.000 N 
DOCKED: ATOM      2  H   UNL     1      29.632 -15.982   1.784 -0.94 -0.00    +0.000 HD
DOCKED: ATOM      3  H   UNL     1      28.624 -14.631   1.789 -0.72 -0.00    +0.000 HD
DOCKED: ENDROOT
DOCKED: BRANCH   1   4
DOCKED: ATOM      4  C   UNL     1      29.325 -15.135  -0.045 -0.17 -0.00    +0.000 C 
DOCKED: BRANCH   4   8
DOCKED: ATOM      5  C   UNL     1      25.364 -16.523  -1.085 -0.51 -0.00    +0.000 A 
DOCKED: ATOM      6  C   UNL     1      26.424 -17.437  -0.926 -0.50 -0.00    +0.000 A 
DOCKED: ATOM      7  C   UNL     1      27.702 -16.987  -0.585 -0.37 -0.00    +0.000 A 
DOCKED: ATOM      8  C   UNL     1      27.941 -15.620  -0.375 -0.26 -0.00    +0.000 A 
DOCKED: ATOM      9  C   UNL     1      26.889 -14.707  -0.532 -0.28 -0.00    +0.000 A 
DOCKED: ATOM     10  C   UNL     1      25.609 -15.156  -0.873 -0.28 -0.00    +0.000 A 
DOCKED: BRANCH   5  12
DOCKED: ATOM     11  C   UNL     1      23.257 -17.780  -0.672 -0.80 -0.00    +0.000 C 
DOCKED: ATOM     12  C   UNL     1      23.987 -16.953  -1.433 -0.63 -0.00    +0.000 C 
DOCKED: BRANCH  11  14
DOCKED: ATOM     13  O   UNL     1      20.919 -17.490  -0.710 -2.08 -0.00    +0.000 OA
DOCKED: ATOM     14  C   UNL     1      21.894 -18.221  -1.033 -0.75 -0.00    +0.000 C 
DOCKED: ATOM     15  N   UNL     1      21.652 -19.429  -1.765 -0.55 -0.00    +0.000 N 
DOCKED: ATOM     16  H   UNL     1      22.408 -19.949  -2.117 -0.49 -0.00    +0.000 HD
DOCKED: BRANCH  15  17
DOCKED: ATOM     17  O   UNL     1      20.383 -19.856  -1.975 -1.76 -0.00    +0.000 OA
DOCKED: ATOM     18  H   UNL     1      19.761 -19.148  -1.746 -0.18 -0.00    +0.000 HD
DOCKED: ENDBRANCH  15  17
DOCKED: ENDBRANCH  11  14
DOCKED: ENDBRANCH   5  12
DOCKED: ENDBRANCH   4   8
DOCKED: ENDBRANCH   1   4
DOCKED: BRANCH   1  19
DOCKED: ATOM     19  C   UNL     1      30.604 -14.187   1.806 -0.13 -0.00    +0.000 C 
DOCKED: BRANCH  19  20
DOCKED: ATOM     20  C   UNL     1      30.143 -12.845   2.400 -0.10 -0.00    +0.000 C 
DOCKED: BRANCH  20  21
DOCKED: ATOM     21  C   UNL     1      29.344 -13.074   3.651 -0.19 -0.00    +0.000 A 
DOCKED: ATOM     22  C   UNL     1      27.957 -13.185   3.764 -0.35 -0.00    +0.000 A 
DOCKED: ATOM     23  N   UNL     1      27.593 -13.319   5.062 -0.50 -0.00    +0.000 N 
DOCKED: ATOM     24  C   UNL     1      28.734 -13.274   5.770 -0.39 -0.00    +0.000 A 
DOCKED: ATOM     25  C   UNL     1      29.822 -13.119   4.946 -0.24 -0.00    +0.000 A 
DOCKED: ATOM     26  C   UNL     1      31.118 -13.022   5.452 -0.18 -0.00    +0.000 A 
DOCKED: ATOM     27  C   UNL     1      31.285 -13.096   6.848 -0.19 -0.00    +0.000 A 
DOCKED: ATOM     28  C   UNL     1      30.167 -13.259   7.695 -0.30 -0.00    +0.000 A 
DOCKED: ATOM     29  C   UNL     1      28.871 -13.349   7.156 -0.32 -0.00    +0.000 A 
DOCKED: ATOM     30  C   UNL     1      26.984 -13.167   2.629 -0.37 -0.00    +0.000 C 
DOCKED: ATOM     31  H   UNL     1      26.679 -13.426   5.413 -0.06 +0.00    +0.000 HD
DOCKED: ENDBRANCH  20  21
DOCKED: ENDBRANCH  19  20
DOCKED: ENDBRANCH   1  19
DOCKED: TORSDOF 8
DOCKED: TER
DOCKED: ENDMDL
________________________________________________________________________________


	BEGINNING GENETIC ALGORITHM DOCKING 43 of 100
Run: 43 Seed: 1020733844 1894573344 [ Run 43 of 100 GA/GALS ]
Beginning LAMARCKIAN GENETIC ALGORITHM (LGA), with a maximum of 2500000 energy evaluations.

Final-Value: -16.781


	FINAL GENETIC ALGORITHM DOCKED STATE
	_______________________________________________


Detailed state:  trans 27.761 -16.457 -0.478 quatxyzw 0.049783 -0.571336 -0.806562 -0.143366 center 0.693 0.091 0.076 ntor 8 15.6502 -27.5795 98.3823 168.1480 -152.3506 154.4209 65.8838 -4.7658
State:	 27.761 -16.457  -0.478   0.050 -0.577 -0.815 -163.515     15.65  -27.58   98.38  168.15 -152.35  154.42   65.88   -4.77

DOCKED: MODEL       43
DOCKED: USER    Run = 43
DOCKED: USER    DPF = ligand_dock.biased.dpf
DOCKED: USER  
DOCKED: USER    Estimated Free Energy of Binding    =  -12.30 kcal/mol  [=(1)+(2)+(3)-(4)]
DOCKED: USER    Estimated Inhibition Constant, Ki   =  958.35 pM (picomolar)  [Temperature = 298.15 K]
DOCKED: USER    
DOCKED: USER    (1) Final Intermolecular Energy     =  -14.69 kcal/mol
DOCKED: USER        vdW + Hbond + desolv Energy     =  -14.69 kcal/mol
DOCKED: USER        Electrostatic Energy            =   +0.00 kcal/mol
DOCKED: USER    (2) Final Total Internal Energy     =   -2.09 kcal/mol
DOCKED: USER    (3) Torsional Free Energy           =   +2.39 kcal/mol
DOCKED: USER    (4) Unbound System's Energy  [=(2)] =   -2.09 kcal/mol
DOCKED: USER    
DOCKED: USER    
DOCKED: USER    NEWDPF move ligand.pdbqt
DOCKED: USER    NEWDPF about 0.693000 0.091000 0.076000
DOCKED: USER    NEWDPF tran0 27.760879 -16.456586 -0.477905
DOCKED: USER    NEWDPF quaternion0 0.049783 -0.571336 -0.806562 -0.143366
DOCKED: USER    NEWDPF axisangle0 0.050302 -0.577300 -0.814981 -163.514654
DOCKED: USER    NEWDPF quat0 0.050302 -0.577300 -0.814981 -163.514654
DOCKED: USER    NEWDPF dihe0 15.65 -27.58 98.38 168.15 -152.35 154.42 65.88 -4.77 
DOCKED: USER  keepresnum = 1 
DOCKED: USER  
DOCKED: REMARK  Name = 
DOCKED: REMARK  9 active torsions:
DOCKED: REMARK  status: ('A' for Active; 'I' for Inactive)
DOCKED: REMARK    1  A    between atoms: C_2  and  C_3
DOCKED: REMARK    2  A    between atoms: C_4  and  C_5
DOCKED: REMARK    3  A    between atoms: C_8  and  C_9
DOCKED: REMARK    4  A    between atoms: C_9  and  N_10
DOCKED: REMARK    5  A    between atoms: N_10  and  C_11
DOCKED: REMARK    6  A    between atoms: C_11  and  C_12
DOCKED: REMARK    7  A    between atoms: C_12  and  C_13
DOCKED: REMARK    8  A    between atoms: C_14  and  C_22
DOCKED: REMARK    9  A    between atoms: N_25  and  O_26
DOCKED: REMARK                            x       y       z     vdW  Elec       q    Type
DOCKED: REMARK                         _______ _______ _______ _____ _____    ______ ____
DOCKED: USER                              x       y       z     vdW  Elec       q    Type
DOCKED: USER                           _______ _______ _______ _____ _____    ______ ____
DOCKED: ROOT
DOCKED: ATOM      1  N   UNL     1      28.860 -16.477   0.038 -0.19 -0.00    +0.000 N 
DOCKED: ATOM      2  H   UNL     1      29.022 -17.473   0.189 -0.52 -0.00    +0.000 HD
DOCKED: ATOM      3  H   UNL     1      28.298 -16.073   0.787 -0.54 -0.00    +0.000 HD
DOCKED: ENDROOT
DOCKED: BRANCH   1   4
DOCKED: ATOM      4  C   UNL     1      28.123 -16.303  -1.220 -0.33 -0.00    +0.000 C 
DOCKED: BRANCH   4   8
DOCKED: ATOM      5  C   UNL     1      24.102 -17.808  -0.705 -0.69 -0.00    +0.000 A 
DOCKED: ATOM      6  C   UNL     1      24.375 -16.801  -1.654 -0.54 -0.00    +0.000 A 
DOCKED: ATOM      7  C   UNL     1      25.676 -16.321  -1.822 -0.49 -0.00    +0.000 A 
DOCKED: ATOM      8  C   UNL     1      26.731 -16.849  -1.063 -0.44 -0.00    +0.000 A 
DOCKED: ATOM      9  C   UNL     1      26.465 -17.850  -0.119 -0.53 -0.00    +0.000 A 
DOCKED: ATOM     10  C   UNL     1      25.163 -18.332   0.050 -0.53 -0.00    +0.000 A 
DOCKED: BRANCH   5  12
DOCKED: ATOM     11  C   UNL     1      22.149 -19.205  -1.356 -0.68 -0.00    +0.000 C 
DOCKED: ATOM     12  C   UNL     1      22.740 -18.360  -0.500 -0.83 -0.00    +0.000 C 
DOCKED: BRANCH  11  14
DOCKED: ATOM     13  O   UNL     1      19.988 -19.733  -2.131 -1.89 -0.00    +0.000 OA
DOCKED: ATOM     14  C   UNL     1      20.785 -19.736  -1.156 -0.78 -0.00    +0.000 C 
DOCKED: ATOM     15  N   UNL     1      20.357 -20.284   0.098 -0.70 -0.00    +0.000 N 
DOCKED: ATOM     16  H   UNL     1      21.001 -20.393   0.832 -0.56 -0.00    +0.000 HD
DOCKED: BRANCH  15  17
DOCKED: ATOM     17  O   UNL     1      19.065 -20.654   0.274 -0.79 -0.00    +0.000 OA
DOCKED: ATOM     18  H   UNL     1      18.627 -20.719  -0.589 -0.33 -0.00    +0.000 HD
DOCKED: ENDBRANCH  15  17
DOCKED: ENDBRANCH  11  14
DOCKED: ENDBRANCH   5  12
DOCKED: ENDBRANCH   4   8
DOCKED: ENDBRANCH   1   4
DOCKED: BRANCH   1  19
DOCKED: ATOM     19  C   UNL     1      30.158 -15.784   0.027 -0.15 -0.00    +0.000 C 
DOCKED: BRANCH  19  20
DOCKED: ATOM     20  C   UNL     1      30.027 -14.285   0.348 -0.11 -0.00    +0.000 C 
DOCKED: BRANCH  20  21
DOCKED: ATOM     21  C   UNL     1      28.887 -14.052   1.298 -0.17 -0.00    +0.000 A 
DOCKED: ATOM     22  C   UNL     1      27.598 -13.617   0.987 -0.23 -0.00    +0.000 A 
DOCKED: ATOM     23  N   UNL     1      26.863 -13.455   2.114 -0.32 -0.00    +0.000 N 
DOCKED: ATOM     24  C   UNL     1      27.682 -13.763   3.134 -0.36 -0.00    +0.000 A 
DOCKED: ATOM     25  C   UNL     1      28.926 -14.125   2.678 -0.23 -0.00    +0.000 A 
DOCKED: ATOM     26  C   UNL     1      29.958 -14.466   3.552 -0.27 -0.00    +0.000 A 
DOCKED: ATOM     27  C   UNL     1      29.685 -14.437   4.932 -0.29 -0.00    +0.000 A 
DOCKED: ATOM     28  C   UNL     1      28.405 -14.069   5.402 -0.42 -0.00    +0.000 A 
DOCKED: ATOM     29  C   UNL     1      27.386 -13.724   4.495 -0.49 -0.00    +0.000 A 
DOCKED: ATOM     30  C   UNL     1      27.069 -13.364  -0.389 -0.24 -0.00    +0.000 C 
DOCKED: ATOM     31  H   UNL     1      25.923 -13.168   2.172 -0.03 -0.00    +0.000 HD
DOCKED: ENDBRANCH  20  21
DOCKED: ENDBRANCH  19  20
DOCKED: ENDBRANCH   1  19
DOCKED: TORSDOF 8
DOCKED: TER
DOCKED: ENDMDL
________________________________________________________________________________


	BEGINNING GENETIC ALGORITHM DOCKING 44 of 100
Run: 44 Seed: 754646387 1281950173 [ Run 44 of 100 GA/GALS ]
Beginning LAMARCKIAN GENETIC ALGORITHM (LGA), with a maximum of 2500000 energy evaluations.

Final-Value: -16.807


	FINAL GENETIC ALGORITHM DOCKED STATE
	_______________________________________________


Detailed state:  trans 28.763 -16.363 0.203 quatxyzw 0.221021 -0.760423 -0.549140 -0.267117 center 0.693 0.091 0.076 ntor 8 16.3922 -180.0000 -153.1546 140.5514 -154.7976 -174.4644 -35.4327 38.7248
State:	 28.763 -16.363   0.203   0.229 -0.789 -0.570 -149.014     16.39 -180.00 -153.15  140.55 -154.80 -174.46  -35.43   38.72

DOCKED: MODEL       44
DOCKED: USER    Run = 44
DOCKED: USER    DPF = ligand_dock.biased.dpf
DOCKED: USER  
DOCKED: USER    Estimated Free Energy of Binding    =  -12.23 kcal/mol  [=(1)+(2)+(3)-(4)]
DOCKED: USER    Estimated Inhibition Constant, Ki   =    1.08 nM (nanomolar)  [Temperature = 298.15 K]
DOCKED: USER    
DOCKED: USER    (1) Final Intermolecular Energy     =  -14.62 kcal/mol
DOCKED: USER        vdW + Hbond + desolv Energy     =  -14.62 kcal/mol
DOCKED: USER        Electrostatic Energy            =   +0.00 kcal/mol
DOCKED: USER    (2) Final Total Internal Energy     =   -2.19 kcal/mol
DOCKED: USER    (3) Torsional Free Energy           =   +2.39 kcal/mol
DOCKED: USER    (4) Unbound System's Energy  [=(2)] =   -2.19 kcal/mol
DOCKED: USER    
DOCKED: USER    
DOCKED: USER    NEWDPF move ligand.pdbqt
DOCKED: USER    NEWDPF about 0.693000 0.091000 0.076000
DOCKED: USER    NEWDPF tran0 28.763190 -16.362577 0.203109
DOCKED: USER    NEWDPF quaternion0 0.221021 -0.760423 -0.549140 -0.267117
DOCKED: USER    NEWDPF axisangle0 0.229355 -0.789096 -0.569846 -149.014456
DOCKED: USER    NEWDPF quat0 0.229355 -0.789096 -0.569846 -149.014456
DOCKED: USER    NEWDPF dihe0 16.39 -180.00 -153.15 140.55 -154.80 -174.46 -35.43 38.72 
DOCKED: USER  keepresnum = 1 
DOCKED: USER  
DOCKED: REMARK  Name = 
DOCKED: REMARK  9 active torsions:
DOCKED: REMARK  status: ('A' for Active; 'I' for Inactive)
DOCKED: REMARK    1  A    between atoms: C_2  and  C_3
DOCKED: REMARK    2  A    between atoms: C_4  and  C_5
DOCKED: REMARK    3  A    between atoms: C_8  and  C_9
DOCKED: REMARK    4  A    between atoms: C_9  and  N_10
DOCKED: REMARK    5  A    between atoms: N_10  and  C_11
DOCKED: REMARK    6  A    between atoms: C_11  and  C_12
DOCKED: REMARK    7  A    between atoms: C_12  and  C_13
DOCKED: REMARK    8  A    between atoms: C_14  and  C_22
DOCKED: REMARK    9  A    between atoms: N_25  and  O_26
DOCKED: REMARK                            x       y       z     vdW  Elec       q    Type
DOCKED: REMARK                         _______ _______ _______ _____ _____    ______ ____
DOCKED: USER                              x       y       z     vdW  Elec       q    Type
DOCKED: USER                           _______ _______ _______ _____ _____    ______ ____
DOCKED: ROOT
DOCKED: ATOM      1  N   UNL     1      29.565 -15.608   0.717 -0.04 -0.00    +0.000 N 
DOCKED: ATOM      2  H   UNL     1      30.013 -16.198   1.419 -0.72 -0.00    +0.000 HD
DOCKED: ATOM      3  H   UNL     1      28.684 -15.224   1.059 -0.52 -0.00    +0.000 HD
DOCKED: ENDROOT
DOCKED: BRANCH   1   4
DOCKED: ATOM      4  C   UNL     1      29.267 -16.426  -0.465 -0.23 -0.00    +0.000 C 
DOCKED: BRANCH   4   8
DOCKED: ATOM      5  C   UNL     1      24.978 -16.879  -0.772 -0.54 -0.00    +0.000 A 
DOCKED: ATOM      6  C   UNL     1      25.557 -15.599  -0.656 -0.29 -0.00    +0.000 A 
DOCKED: ATOM      7  C   UNL     1      26.943 -15.456  -0.563 -0.32 -0.00    +0.000 A 
DOCKED: ATOM      8  C   UNL     1      27.778 -16.582  -0.604 -0.34 -0.00    +0.000 A 
DOCKED: ATOM      9  C   UNL     1      27.207 -17.857  -0.720 -0.41 -0.00    +0.000 A 
DOCKED: ATOM     10  C   UNL     1      25.820 -18.003  -0.815 -0.55 -0.00    +0.000 A 
DOCKED: BRANCH   5  12
DOCKED: ATOM     11  C   UNL     1      22.936 -18.291  -0.945 -0.82 -0.00    +0.000 C 
DOCKED: ATOM     12  C   UNL     1      23.512 -17.082  -0.889 -0.68 -0.00    +0.000 C 
DOCKED: BRANCH  11  14
DOCKED: ATOM     13  O   UNL     1      20.713 -17.526  -0.796 -2.10 -0.00    +0.000 OA
DOCKED: ATOM     14  C   UNL     1      21.478 -18.486  -1.081 -0.76 -0.00    +0.000 C 
DOCKED: ATOM     15  N   UNL     1      20.914 -19.716  -1.556 -0.75 -0.00    +0.000 N 
DOCKED: ATOM     16  H   UNL     1      21.503 -20.431  -1.884 -0.43 -0.00    +0.000 HD
DOCKED: BRANCH  15  17
DOCKED: ATOM     17  O   UNL     1      19.571 -19.895  -1.554 -1.52 -0.00    +0.000 OA
DOCKED: ATOM     18  H   UNL     1      19.130 -19.036  -1.456 -0.55 -0.00    +0.000 HD
DOCKED: ENDBRANCH  15  17
DOCKED: ENDBRANCH  11  14
DOCKED: ENDBRANCH   5  12
DOCKED: ENDBRANCH   4   8
DOCKED: ENDBRANCH   1   4
DOCKED: BRANCH   1  19
DOCKED: ATOM     19  C   UNL     1      30.457 -14.481   0.407 -0.10 -0.00    +0.000 C 
DOCKED: BRANCH  19  20
DOCKED: ATOM     20  C   UNL     1      29.756 -13.119   0.550 -0.07 -0.00    +0.000 C 
DOCKED: BRANCH  20  21
DOCKED: ATOM     21  C   UNL     1      28.678 -13.194   1.593 -0.15 -0.00    +0.000 A 
DOCKED: ATOM     22  C   UNL     1      27.337 -12.827   1.457 -0.24 -0.00    +0.000 A 
DOCKED: ATOM     23  N   UNL     1      26.681 -12.969   2.633 -0.35 -0.00    +0.000 N 
DOCKED: ATOM     24  C   UNL     1      27.598 -13.402   3.515 -0.37 -0.00    +0.000 A 
DOCKED: ATOM     25  C   UNL     1      28.828 -13.545   2.921 -0.23 -0.00    +0.000 A 
DOCKED: ATOM     26  C   UNL     1      29.947 -13.961   3.641 -0.24 -0.00    +0.000 A 
DOCKED: ATOM     27  C   UNL     1      29.779 -14.242   5.010 -0.30 -0.00    +0.000 A 
DOCKED: ATOM     28  C   UNL     1      28.514 -14.100   5.621 -0.36 -0.00    +0.000 A 
DOCKED: ATOM     29  C   UNL     1      27.404 -13.673   4.869 -0.46 -0.00    +0.000 A 
DOCKED: ATOM     30  C   UNL     1      26.687 -12.347   0.199 -0.24 -0.00    +0.000 C 
DOCKED: ATOM     31  H   UNL     1      25.729 -12.790   2.806 +0.08 +0.00    +0.000 HD
DOCKED: ENDBRANCH  20  21
DOCKED: ENDBRANCH  19  20
DOCKED: ENDBRANCH   1  19
DOCKED: TORSDOF 8
DOCKED: TER
DOCKED: ENDMDL
________________________________________________________________________________


	BEGINNING GENETIC ALGORITHM DOCKING 45 of 100
Run: 45 Seed: 788833449 545430649 [ Run 45 of 100 GA/GALS ]
Beginning LAMARCKIAN GENETIC ALGORITHM (LGA), with a maximum of 2500000 energy evaluations.

Final-Value: -16.093


	FINAL GENETIC ALGORITHM DOCKED STATE
	_______________________________________________


Detailed state:  trans 28.279 -16.849 -0.242 quatxyzw -0.167043 0.854565 0.417439 0.259922 center 0.693 0.091 0.076 ntor 8 9.0412 177.1386 28.3749 16.7193 116.8574 -170.0383 -176.5149 32.1441
State:	 28.279 -16.849  -0.242  -0.173  0.885  0.432 149.869      9.04  177.14   28.37   16.72  116.86 -170.04 -176.51   32.14

DOCKED: MODEL       45
DOCKED: USER    Run = 45
DOCKED: USER    DPF = ligand_dock.biased.dpf
DOCKED: USER  
DOCKED: USER    Estimated Free Energy of Binding    =  -11.09 kcal/mol  [=(1)+(2)+(3)-(4)]
DOCKED: USER    Estimated Inhibition Constant, Ki   =    7.49 nM (nanomolar)  [Temperature = 298.15 K]
DOCKED: USER    
DOCKED: USER    (1) Final Intermolecular Energy     =  -13.47 kcal/mol
DOCKED: USER        vdW + Hbond + desolv Energy     =  -13.47 kcal/mol
DOCKED: USER        Electrostatic Energy            =   +0.00 kcal/mol
DOCKED: USER    (2) Final Total Internal Energy     =   -2.62 kcal/mol
DOCKED: USER    (3) Torsional Free Energy           =   +2.39 kcal/mol
DOCKED: USER    (4) Unbound System's Energy  [=(2)] =   -2.62 kcal/mol
DOCKED: USER    
DOCKED: USER    
DOCKED: USER    NEWDPF move ligand.pdbqt
DOCKED: USER    NEWDPF about 0.693000 0.091000 0.076000
DOCKED: USER    NEWDPF tran0 28.279392 -16.848962 -0.242130
DOCKED: USER    NEWDPF quaternion0 -0.167043 0.854565 0.417439 0.259922
DOCKED: USER    NEWDPF axisangle0 -0.172988 0.884983 0.432297 149.869143
DOCKED: USER    NEWDPF quat0 -0.172988 0.884983 0.432297 149.869143
DOCKED: USER    NEWDPF dihe0 9.04 177.14 28.37 16.72 116.86 -170.04 -176.51 32.14 
DOCKED: USER  keepresnum = 1 
DOCKED: USER  
DOCKED: REMARK  Name = 
DOCKED: REMARK  9 active torsions:
DOCKED: REMARK  status: ('A' for Active; 'I' for Inactive)
DOCKED: REMARK    1  A    between atoms: C_2  and  C_3
DOCKED: REMARK    2  A    between atoms: C_4  and  C_5
DOCKED: REMARK    3  A    between atoms: C_8  and  C_9
DOCKED: REMARK    4  A    between atoms: C_9  and  N_10
DOCKED: REMARK    5  A    between atoms: N_10  and  C_11
DOCKED: REMARK    6  A    between atoms: C_11  and  C_12
DOCKED: REMARK    7  A    between atoms: C_12  and  C_13
DOCKED: REMARK    8  A    between atoms: C_14  and  C_22
DOCKED: REMARK    9  A    between atoms: N_25  and  O_26
DOCKED: REMARK                            x       y       z     vdW  Elec       q    Type
DOCKED: REMARK                         _______ _______ _______ _____ _____    ______ ____
DOCKED: USER                              x       y       z     vdW  Elec       q    Type
DOCKED: USER                           _______ _______ _______ _____ _____    ______ ____
DOCKED: ROOT
DOCKED: ATOM      1  N   UNL     1      29.106 -16.010   0.055 -0.20 -0.00    +0.000 N 
DOCKED: ATOM      2  H   UNL     1      29.476 -16.360   0.939 -0.68 -0.00    +0.000 HD
DOCKED: ATOM      3  H   UNL     1      28.239 -15.491   0.193 -0.07 -0.00    +0.000 HD
DOCKED: ENDROOT
DOCKED: BRANCH   1   4
DOCKED: ATOM      4  C   UNL     1      28.810 -17.153  -0.818 -0.30 -0.00    +0.000 C 
DOCKED: BRANCH   4   8
DOCKED: ATOM      5  C   UNL     1      24.547 -17.847  -1.031 -0.67 -0.00    +0.000 A 
DOCKED: ATOM      6  C   UNL     1      25.323 -18.456  -0.024 -0.49 -0.00    +0.000 A 
DOCKED: ATOM      7  C   UNL     1      26.699 -18.226   0.046 -0.44 -0.00    +0.000 A 
DOCKED: ATOM      8  C   UNL     1      27.323 -17.369  -0.873 -0.42 -0.00    +0.000 A 
DOCKED: ATOM      9  C   UNL     1      26.556 -16.760  -1.876 -0.40 -0.00    +0.000 A 
DOCKED: ATOM     10  C   UNL     1      25.178 -16.989  -1.947 -0.55 -0.00    +0.000 A 
DOCKED: BRANCH   5  12
DOCKED: ATOM     11  C   UNL     1      22.365 -18.750  -0.249 -0.80 -0.00    +0.000 C 
DOCKED: ATOM     12  C   UNL     1      23.081 -18.049  -1.138 -0.78 -0.00    +0.000 C 
DOCKED: BRANCH  11  14
DOCKED: ATOM     13  O   UNL     1      20.240 -18.168  -1.084 -2.09 -0.00    +0.000 OA
DOCKED: ATOM     14  C   UNL     1      20.908 -18.964  -0.371 -0.84 -0.00    +0.000 C 
DOCKED: ATOM     15  N   UNL     1      20.243 -20.063   0.265 -0.72 -0.00    +0.000 N 
DOCKED: ATOM     16  H   UNL     1      20.768 -20.751   0.731 -0.41 -0.00    +0.000 HD
DOCKED: BRANCH  15  17
DOCKED: ATOM     17  O   UNL     1      18.891 -20.157   0.224 -0.82 -0.00    +0.000 OA
DOCKED: ATOM     18  H   UNL     1      18.539 -19.491  -0.386 -0.24 -0.00    +0.000 HD
DOCKED: ENDBRANCH  15  17
DOCKED: ENDBRANCH  11  14
DOCKED: ENDBRANCH   5  12
DOCKED: ENDBRANCH   4   8
DOCKED: ENDBRANCH   1   4
DOCKED: BRANCH   1  19
DOCKED: ATOM     19  C   UNL     1      30.089 -15.092  -0.539 -0.12 -0.00    +0.000 C 
DOCKED: BRANCH  19  20
DOCKED: ATOM     20  C   UNL     1      29.508 -13.690  -0.792 -0.07 -0.00    +0.000 C 
DOCKED: BRANCH  20  21
DOCKED: ATOM     21  C   UNL     1      28.320 -13.775  -1.708 -0.10 -0.00    +0.000 A 
DOCKED: ATOM     22  C   UNL     1      26.978 -13.577  -1.379 -0.19 -0.00    +0.000 A 
DOCKED: ATOM     23  N   UNL     1      26.184 -13.806  -2.453 -0.25 -0.00    +0.000 N 
DOCKED: ATOM     24  C   UNL     1      27.010 -14.166  -3.450 -0.28 -0.00    +0.000 A 
DOCKED: ATOM     25  C   UNL     1      28.319 -14.165  -3.034 -0.14 -0.00    +0.000 A 
DOCKED: ATOM     26  C   UNL     1      29.361 -14.529  -3.887 -0.12 -0.00    +0.000 A 
DOCKED: ATOM     27  C   UNL     1      29.032 -14.893  -5.206 -0.27 -0.00    +0.000 A 
DOCKED: ATOM     28  C   UNL     1      27.687 -14.889  -5.636 -0.36 -0.00    +0.000 A 
DOCKED: ATOM     29  C   UNL     1      26.657 -14.524  -4.751 -0.41 -0.00    +0.000 A 
DOCKED: ATOM     30  C   UNL     1      26.459 -13.163  -0.039 -0.25 -0.00    +0.000 C 
DOCKED: ATOM     31  H   UNL     1      25.204 -13.726  -2.493 -0.01 -0.00    +0.000 HD
DOCKED: ENDBRANCH  20  21
DOCKED: ENDBRANCH  19  20
DOCKED: ENDBRANCH   1  19
DOCKED: TORSDOF 8
DOCKED: TER
DOCKED: ENDMDL
________________________________________________________________________________


	BEGINNING GENETIC ALGORITHM DOCKING 46 of 100
Run: 46 Seed: 1338891635 1480263343 [ Run 46 of 100 GA/GALS ]
Beginning LAMARCKIAN GENETIC ALGORITHM (LGA), with a maximum of 2500000 energy evaluations.

Final-Value: -16.069


	FINAL GENETIC ALGORITHM DOCKED STATE
	_______________________________________________


Detailed state:  trans 28.015 -16.411 -0.281 quatxyzw 0.233800 -0.874755 -0.382151 -0.184663 center 0.693 0.091 0.076 ntor 8 16.3407 129.4026 -110.1521 -178.6869 -172.2428 -116.8926 10.0579 22.5181
State:	 28.015 -16.411  -0.281   0.238 -0.890 -0.389 -158.717     16.34  129.40 -110.15 -178.69 -172.24 -116.89   10.06   22.52

DOCKED: MODEL       46
DOCKED: USER    Run = 46
DOCKED: USER    DPF = ligand_dock.biased.dpf
DOCKED: USER  
DOCKED: USER    Estimated Free Energy of Binding    =  -11.70 kcal/mol  [=(1)+(2)+(3)-(4)]
DOCKED: USER    Estimated Inhibition Constant, Ki   =    2.64 nM (nanomolar)  [Temperature = 298.15 K]
DOCKED: USER    
DOCKED: USER    (1) Final Intermolecular Energy     =  -14.09 kcal/mol
DOCKED: USER        vdW + Hbond + desolv Energy     =  -14.09 kcal/mol
DOCKED: USER        Electrostatic Energy            =   +0.00 kcal/mol
DOCKED: USER    (2) Final Total Internal Energy     =   -1.98 kcal/mol
DOCKED: USER    (3) Torsional Free Energy           =   +2.39 kcal/mol
DOCKED: USER    (4) Unbound System's Energy  [=(2)] =   -1.98 kcal/mol
DOCKED: USER    
DOCKED: USER    
DOCKED: USER    NEWDPF move ligand.pdbqt
DOCKED: USER    NEWDPF about 0.693000 0.091000 0.076000
DOCKED: USER    NEWDPF tran0 28.015296 -16.410627 -0.280584
DOCKED: USER    NEWDPF quaternion0 0.233800 -0.874755 -0.382151 -0.184663
DOCKED: USER    NEWDPF axisangle0 0.237892 -0.890063 -0.388839 -158.717010
DOCKED: USER    NEWDPF quat0 0.237892 -0.890063 -0.388839 -158.717010
DOCKED: USER    NEWDPF dihe0 16.34 129.40 -110.15 -178.69 -172.24 -116.89 10.06 22.52 
DOCKED: USER  keepresnum = 1 
DOCKED: USER  
DOCKED: REMARK  Name = 
DOCKED: REMARK  9 active torsions:
DOCKED: REMARK  status: ('A' for Active; 'I' for Inactive)
DOCKED: REMARK    1  A    between atoms: C_2  and  C_3
DOCKED: REMARK    2  A    between atoms: C_4  and  C_5
DOCKED: REMARK    3  A    between atoms: C_8  and  C_9
DOCKED: REMARK    4  A    between atoms: C_9  and  N_10
DOCKED: REMARK    5  A    between atoms: N_10  and  C_11
DOCKED: REMARK    6  A    between atoms: C_11  and  C_12
DOCKED: REMARK    7  A    between atoms: C_12  and  C_13
DOCKED: REMARK    8  A    between atoms: C_14  and  C_22
DOCKED: REMARK    9  A    between atoms: N_25  and  O_26
DOCKED: REMARK                            x       y       z     vdW  Elec       q    Type
DOCKED: REMARK                         _______ _______ _______ _____ _____    ______ ____
DOCKED: USER                              x       y       z     vdW  Elec       q    Type
DOCKED: USER                           _______ _______ _______ _____ _____    ______ ____
DOCKED: ROOT
DOCKED: ATOM      1  N   UNL     1      28.711 -15.517   0.160 -0.22 -0.00    +0.000 N 
DOCKED: ATOM      2  H   UNL     1      28.911 -15.833   1.109 -0.83 -0.00    +0.000 HD
DOCKED: ATOM      3  H   UNL     1      27.804 -15.053   0.105 -0.02 -0.00    +0.000 HD
DOCKED: ENDROOT
DOCKED: BRANCH   1   4
DOCKED: ATOM      4  C   UNL     1      28.671 -16.686  -0.728 -0.31 -0.00    +0.000 C 
DOCKED: BRANCH   4   8
DOCKED: ATOM      5  C   UNL     1      24.548 -17.920  -1.153 -0.66 -0.00    +0.000 A 
DOCKED: ATOM      6  C   UNL     1      25.160 -17.113  -2.135 -0.53 -0.00    +0.000 A 
DOCKED: ATOM      7  C   UNL     1      26.494 -16.721  -1.997 -0.39 -0.00    +0.000 A 
DOCKED: ATOM      8  C   UNL     1      27.247 -17.141  -0.892 -0.42 -0.00    +0.000 A 
DOCKED: ATOM      9  C   UNL     1      26.643 -17.943   0.087 -0.48 -0.00    +0.000 A 
DOCKED: ATOM     10  C   UNL     1      25.309 -18.338  -0.050 -0.55 -0.00    +0.000 A 
DOCKED: BRANCH   5  12
DOCKED: ATOM     11  C   UNL     1      22.265 -18.319  -0.247 -0.83 -0.00    +0.000 C 
DOCKED: ATOM     12  C   UNL     1      23.139 -18.374  -1.262 -0.78 -0.00    +0.000 C 
DOCKED: BRANCH  11  14
DOCKED: ATOM     13  O   UNL     1      20.069 -18.142  -1.082 -1.95 -0.00    +0.000 OA
DOCKED: ATOM     14  C   UNL     1      20.870 -18.791  -0.356 -0.73 -0.00    +0.000 C 
DOCKED: ATOM     15  N   UNL     1      20.411 -19.976   0.308 -0.71 -0.00    +0.000 N 
DOCKED: ATOM     16  H   UNL     1      21.051 -20.549   0.787 -0.58 -0.00    +0.000 HD
DOCKED: BRANCH  15  17
DOCKED: ATOM     17  O   UNL     1      19.098 -20.309   0.278 -0.81 -0.00    +0.000 OA
DOCKED: ATOM     18  H   UNL     1      18.654 -19.811  -0.426 -0.16 -0.00    +0.000 HD
DOCKED: ENDBRANCH  15  17
DOCKED: ENDBRANCH  11  14
DOCKED: ENDBRANCH   5  12
DOCKED: ENDBRANCH   4   8
DOCKED: ENDBRANCH   1   4
DOCKED: BRANCH   1  19
DOCKED: ATOM     19  C   UNL     1      29.738 -14.544  -0.242 -0.11 -0.00    +0.000 C 
DOCKED: BRANCH  19  20
DOCKED: ATOM     20  C   UNL     1      29.627 -13.219   0.531 -0.08 -0.00    +0.000 C 
DOCKED: BRANCH  20  21
DOCKED: ATOM     21  C   UNL     1      28.691 -13.370   1.696 -0.16 -0.00    +0.000 A 
DOCKED: ATOM     22  C   UNL     1      27.303 -13.219   1.696 -0.27 -0.00    +0.000 A 
DOCKED: ATOM     23  N   UNL     1      26.806 -13.363   2.948 -0.37 -0.00    +0.000 N 
DOCKED: ATOM     24  C   UNL     1      27.868 -13.584   3.741 -0.40 -0.00    +0.000 A 
DOCKED: ATOM     25  C   UNL     1      29.035 -13.589   3.016 -0.22 -0.00    +0.000 A 
DOCKED: ATOM     26  C   UNL     1      30.276 -13.775   3.624 -0.20 -0.00    +0.000 A 
DOCKED: ATOM     27  C   UNL     1      30.302 -13.969   5.018 -0.27 -0.00    +0.000 A 
DOCKED: ATOM     28  C   UNL     1      29.102 -13.969   5.763 -0.27 -0.00    +0.000 A 
DOCKED: ATOM     29  C   UNL     1      27.865 -13.773   5.122 -0.46 -0.00    +0.000 A 
DOCKED: ATOM     30  C   UNL     1      26.455 -12.942   0.496 -0.32 -0.00    +0.000 C 
DOCKED: ATOM     31  H   UNL     1      25.861 -13.315   3.220 +0.01 +0.00    +0.000 HD
DOCKED: ENDBRANCH  20  21
DOCKED: ENDBRANCH  19  20
DOCKED: ENDBRANCH   1  19
DOCKED: TORSDOF 8
DOCKED: TER
DOCKED: ENDMDL
________________________________________________________________________________


	BEGINNING GENETIC ALGORITHM DOCKING 47 of 100
Run: 47 Seed: 1524751897 1988593107 [ Run 47 of 100 GA/GALS ]
Beginning LAMARCKIAN GENETIC ALGORITHM (LGA), with a maximum of 2500000 energy evaluations.

Final-Value: -15.007


	FINAL GENETIC ALGORITHM DOCKED STATE
	_______________________________________________


Detailed state:  trans 29.781 -16.249 -1.080 quatxyzw 0.488648 0.675547 0.429242 -0.347291 center 0.693 0.091 0.076 ntor 8 33.9850 -169.0604 -49.8528 171.9810 -105.2855 -155.9117 -121.8978 -87.9844
State:	 29.781 -16.249  -1.080   0.521  0.720  0.458 -139.357     33.98 -169.06  -49.85  171.98 -105.29 -155.91 -121.90  -87.98

DOCKED: MODEL       47
DOCKED: USER    Run = 47
DOCKED: USER    DPF = ligand_dock.biased.dpf
DOCKED: USER  
DOCKED: USER    Estimated Free Energy of Binding    =  -11.15 kcal/mol  [=(1)+(2)+(3)-(4)]
DOCKED: USER    Estimated Inhibition Constant, Ki   =    6.72 nM (nanomolar)  [Temperature = 298.15 K]
DOCKED: USER    
DOCKED: USER    (1) Final Intermolecular Energy     =  -13.54 kcal/mol
DOCKED: USER        vdW + Hbond + desolv Energy     =  -13.54 kcal/mol
DOCKED: USER        Electrostatic Energy            =   +0.00 kcal/mol
DOCKED: USER    (2) Final Total Internal Energy     =   -1.47 kcal/mol
DOCKED: USER    (3) Torsional Free Energy           =   +2.39 kcal/mol
DOCKED: USER    (4) Unbound System's Energy  [=(2)] =   -1.47 kcal/mol
DOCKED: USER    
DOCKED: USER    
DOCKED: USER    NEWDPF move ligand.pdbqt
DOCKED: USER    NEWDPF about 0.693000 0.091000 0.076000
DOCKED: USER    NEWDPF tran0 29.781371 -16.249174 -1.079829
DOCKED: USER    NEWDPF quaternion0 0.488648 0.675547 0.429242 -0.347291
DOCKED: USER    NEWDPF axisangle0 0.521081 0.720386 0.457732 -139.356533
DOCKED: USER    NEWDPF quat0 0.521081 0.720386 0.457732 -139.356533
DOCKED: USER    NEWDPF dihe0 33.98 -169.06 -49.85 171.98 -105.29 -155.91 -121.90 -87.98 
DOCKED: USER  keepresnum = 1 
DOCKED: USER  
DOCKED: REMARK  Name = 
DOCKED: REMARK  9 active torsions:
DOCKED: REMARK  status: ('A' for Active; 'I' for Inactive)
DOCKED: REMARK    1  A    between atoms: C_2  and  C_3
DOCKED: REMARK    2  A    between atoms: C_4  and  C_5
DOCKED: REMARK    3  A    between atoms: C_8  and  C_9
DOCKED: REMARK    4  A    between atoms: C_9  and  N_10
DOCKED: REMARK    5  A    between atoms: N_10  and  C_11
DOCKED: REMARK    6  A    between atoms: C_11  and  C_12
DOCKED: REMARK    7  A    between atoms: C_12  and  C_13
DOCKED: REMARK    8  A    between atoms: C_14  and  C_22
DOCKED: REMARK    9  A    between atoms: N_25  and  O_26
DOCKED: REMARK                            x       y       z     vdW  Elec       q    Type
DOCKED: REMARK                         _______ _______ _______ _____ _____    ______ ____
DOCKED: USER                              x       y       z     vdW  Elec       q    Type
DOCKED: USER                           _______ _______ _______ _____ _____    ______ ____
DOCKED: ROOT
DOCKED: ATOM      1  N   UNL     1      30.211 -17.129  -0.361 -0.20 -0.00    +0.000 N 
DOCKED: ATOM      2  H   UNL     1      29.549 -17.131   0.416 -0.47 -0.00    +0.000 HD
DOCKED: ATOM      3  H   UNL     1      30.924 -16.410  -0.241 -0.01 -0.00    +0.000 HD
DOCKED: ENDROOT
DOCKED: BRANCH   1   4
DOCKED: ATOM      4  C   UNL     1      29.483 -16.836  -1.601 -0.25 -0.00    +0.000 C 
DOCKED: BRANCH   4   8
DOCKED: ATOM      5  C   UNL     1      25.235 -17.375  -0.995 -0.59 -0.00    +0.000 A 
DOCKED: ATOM      6  C   UNL     1      26.165 -18.191  -0.319 -0.58 -0.00    +0.000 A 
DOCKED: ATOM      7  C   UNL     1      27.537 -18.011  -0.513 -0.15 -0.00    +0.000 A 
DOCKED: ATOM      8  C   UNL     1      28.007 -17.002  -1.366 -0.33 -0.00    +0.000 A 
DOCKED: ATOM      9  C   UNL     1      27.086 -16.188  -2.040 -0.34 -0.00    +0.000 A 
DOCKED: ATOM     10  C   UNL     1      25.713 -16.366  -1.847 -0.49 -0.00    +0.000 A 
DOCKED: BRANCH   5  12
DOCKED: ATOM     11  C   UNL     1      23.056 -18.527  -1.328 -0.78 -0.00    +0.000 C 
DOCKED: ATOM     12  C   UNL     1      23.770 -17.518  -0.811 -0.75 -0.00    +0.000 C 
DOCKED: BRANCH  11  14
DOCKED: ATOM     13  O   UNL     1      21.006 -17.857  -0.379 -1.96 +0.00    +0.000 OA
DOCKED: ATOM     14  C   UNL     1      21.594 -18.654  -1.158 -0.72 -0.00    +0.000 C 
DOCKED: ATOM     15  N   UNL     1      20.824 -19.629  -1.874 -0.69 -0.00    +0.000 N 
DOCKED: ATOM     16  H   UNL     1      21.253 -20.182  -2.564 -0.54 -0.00    +0.000 HD
DOCKED: BRANCH  15  17
DOCKED: ATOM     17  O   UNL     1      19.506 -19.790  -1.603 -1.57 -0.00    +0.000 OA
DOCKED: ATOM     18  H   UNL     1      19.118 -18.933  -1.365 -0.52 -0.00    +0.000 HD
DOCKED: ENDBRANCH  15  17
DOCKED: ENDBRANCH  11  14
DOCKED: ENDBRANCH   5  12
DOCKED: ENDBRANCH   4   8
DOCKED: ENDBRANCH   1   4
DOCKED: BRANCH   1  19
DOCKED: ATOM     19  C   UNL     1      30.891 -18.433  -0.406 -0.14 -0.00    +0.000 C 
DOCKED: BRANCH  19  20
DOCKED: ATOM     20  C   UNL     1      32.360 -18.346   0.043 -0.12 -0.00    +0.000 C 
DOCKED: BRANCH  20  21
DOCKED: ATOM     21  C   UNL     1      32.446 -18.302   1.542 -0.15 -0.00    +0.000 A 
DOCKED: ATOM     22  C   UNL     1      32.550 -17.171   2.354 -0.20 -0.00    +0.000 A 
DOCKED: ATOM     23  N   UNL     1      32.677 -17.527   3.654 -0.28 -0.00    +0.000 N 
DOCKED: ATOM     24  C   UNL     1      32.675 -18.871   3.670 -0.33 -0.00    +0.000 A 
DOCKED: ATOM     25  C   UNL     1      32.543 -19.380   2.401 -0.21 -0.00    +0.000 A 
DOCKED: ATOM     26  C   UNL     1      32.539 -20.753   2.158 -0.20 -0.00    +0.000 A 
DOCKED: ATOM     27  C   UNL     1      32.666 -21.616   3.262 -0.19 -0.00    +0.000 A 
DOCKED: ATOM     28  C   UNL     1      32.797 -21.093   4.568 -0.41 -0.00    +0.000 A 
DOCKED: ATOM     29  C   UNL     1      32.804 -19.702   4.781 -0.34 -0.00    +0.000 A 
DOCKED: ATOM     30  C   UNL     1      32.521 -15.752   1.883 -0.14 -0.00    +0.000 C 
DOCKED: ATOM     31  H   UNL     1      32.756 -16.924   4.429 +0.12 -0.00    +0.000 HD
DOCKED: ENDBRANCH  20  21
DOCKED: ENDBRANCH  19  20
DOCKED: ENDBRANCH   1  19
DOCKED: TORSDOF 8
DOCKED: TER
DOCKED: ENDMDL
________________________________________________________________________________


	BEGINNING GENETIC ALGORITHM DOCKING 48 of 100
Run: 48 Seed: 1601104985 1469737368 [ Run 48 of 100 GA/GALS ]
Beginning LAMARCKIAN GENETIC ALGORITHM (LGA), with a maximum of 2500000 energy evaluations.

Final-Value: -16.221


	FINAL GENETIC ALGORITHM DOCKED STATE
	_______________________________________________


Detailed state:  trans 28.586 -16.675 -0.015 quatxyzw 0.253825 -0.732883 -0.522974 -0.353488 center 0.693 0.091 0.076 ntor 8 56.9782 -171.8244 -172.6994 149.9778 -153.2360 -164.9807 16.4070 46.1735
State:	 28.586 -16.675  -0.015   0.271 -0.783 -0.559 -138.598     56.98 -171.82 -172.70  149.98 -153.24 -164.98   16.41   46.17

DOCKED: MODEL       48
DOCKED: USER    Run = 48
DOCKED: USER    DPF = ligand_dock.biased.dpf
DOCKED: USER  
DOCKED: USER    Estimated Free Energy of Binding    =  -11.90 kcal/mol  [=(1)+(2)+(3)-(4)]
DOCKED: USER    Estimated Inhibition Constant, Ki   =    1.89 nM (nanomolar)  [Temperature = 298.15 K]
DOCKED: USER    
DOCKED: USER    (1) Final Intermolecular Energy     =  -14.29 kcal/mol
DOCKED: USER        vdW + Hbond + desolv Energy     =  -14.29 kcal/mol
DOCKED: USER        Electrostatic Energy            =   +0.00 kcal/mol
DOCKED: USER    (2) Final Total Internal Energy     =   -1.93 kcal/mol
DOCKED: USER    (3) Torsional Free Energy           =   +2.39 kcal/mol
DOCKED: USER    (4) Unbound System's Energy  [=(2)] =   -1.93 kcal/mol
DOCKED: USER    
DOCKED: USER    
DOCKED: USER    NEWDPF move ligand.pdbqt
DOCKED: USER    NEWDPF about 0.693000 0.091000 0.076000
DOCKED: USER    NEWDPF tran0 28.586094 -16.674510 -0.015059
DOCKED: USER    NEWDPF quaternion0 0.253825 -0.732883 -0.522974 -0.353488
DOCKED: USER    NEWDPF axisangle0 0.271343 -0.783464 -0.559068 -138.598374
DOCKED: USER    NEWDPF quat0 0.271343 -0.783464 -0.559068 -138.598374
DOCKED: USER    NEWDPF dihe0 56.98 -171.82 -172.70 149.98 -153.24 -164.98 16.41 46.17 
DOCKED: USER  keepresnum = 1 
DOCKED: USER  
DOCKED: REMARK  Name = 
DOCKED: REMARK  9 active torsions:
DOCKED: REMARK  status: ('A' for Active; 'I' for Inactive)
DOCKED: REMARK    1  A    between atoms: C_2  and  C_3
DOCKED: REMARK    2  A    between atoms: C_4  and  C_5
DOCKED: REMARK    3  A    between atoms: C_8  and  C_9
DOCKED: REMARK    4  A    between atoms: C_9  and  N_10
DOCKED: REMARK    5  A    between atoms: N_10  and  C_11
DOCKED: REMARK    6  A    between atoms: C_11  and  C_12
DOCKED: REMARK    7  A    between atoms: C_12  and  C_13
DOCKED: REMARK    8  A    between atoms: C_14  and  C_22
DOCKED: REMARK    9  A    between atoms: N_25  and  O_26
DOCKED: REMARK                            x       y       z     vdW  Elec       q    Type
DOCKED: REMARK                         _______ _______ _______ _____ _____    ______ ____
DOCKED: USER                              x       y       z     vdW  Elec       q    Type
DOCKED: USER                           _______ _______ _______ _____ _____    ______ ____
DOCKED: ROOT
DOCKED: ATOM      1  N   UNL     1      29.292 -15.777   0.399 -0.13 -0.00    +0.000 N 
DOCKED: ATOM      2  H   UNL     1      29.899 -16.255   1.065 -0.64 -0.00    +0.000 HD
DOCKED: ATOM      3  H   UNL     1      28.395 -15.533   0.820 -0.38 -0.00    +0.000 HD
DOCKED: ENDROOT
DOCKED: BRANCH   1   4
DOCKED: ATOM      4  C   UNL     1      29.028 -16.678  -0.729 -0.28 -0.00    +0.000 C 
DOCKED: BRANCH   4   8
DOCKED: ATOM      5  C   UNL     1      24.764 -17.366  -0.942 -0.62 -0.00    +0.000 A 
DOCKED: ATOM      6  C   UNL     1      25.396 -16.501  -1.857 -0.52 -0.00    +0.000 A 
DOCKED: ATOM      7  C   UNL     1      26.775 -16.285  -1.790 -0.38 -0.00    +0.000 A 
DOCKED: ATOM      8  C   UNL     1      27.550 -16.942  -0.823 -0.39 -0.00    +0.000 A 
DOCKED: ATOM      9  C   UNL     1      26.926 -17.804   0.089 -0.34 -0.00    +0.000 A 
DOCKED: ATOM     10  C   UNL     1      25.546 -18.022   0.023 -0.57 -0.00    +0.000 A 
DOCKED: BRANCH   5  12
DOCKED: ATOM     11  C   UNL     1      22.730 -18.676  -0.358 -0.82 -0.00    +0.000 C 
DOCKED: ATOM     12  C   UNL     1      23.306 -17.639  -0.982 -0.76 -0.00    +0.000 C 
DOCKED: BRANCH  11  14
DOCKED: ATOM     13  O   UNL     1      20.521 -18.081  -0.916 -2.20 -0.00    +0.000 OA
DOCKED: ATOM     14  C   UNL     1      21.281 -18.953  -0.418 -0.85 -0.00    +0.000 C 
DOCKED: ATOM     15  N   UNL     1      20.721 -20.191   0.040 -0.67 -0.00    +0.000 N 
DOCKED: ATOM     16  H   UNL     1      21.315 -20.921   0.328 -0.52 -0.00    +0.000 HD
DOCKED: BRANCH  15  17
DOCKED: ATOM     17  O   UNL     1      19.377 -20.360   0.076 -0.84 -0.00    +0.000 OA
DOCKED: ATOM     18  H   UNL     1      19.009 -20.210  -0.809 -0.26 -0.00    +0.000 HD
DOCKED: ENDBRANCH  15  17
DOCKED: ENDBRANCH  11  14
DOCKED: ENDBRANCH   5  12
DOCKED: ENDBRANCH   4   8
DOCKED: ENDBRANCH   1   4
DOCKED: BRANCH   1  19
DOCKED: ATOM     19  C   UNL     1      29.944 -14.528  -0.023 -0.11 -0.00    +0.000 C 
DOCKED: BRANCH  19  20
DOCKED: ATOM     20  C   UNL     1      29.136 -13.280   0.372 -0.10 -0.00    +0.000 C 
DOCKED: BRANCH  20  21
DOCKED: ATOM     21  C   UNL     1      28.378 -13.529   1.644 -0.19 -0.00    +0.000 A 
DOCKED: ATOM     22  C   UNL     1      26.994 -13.522   1.824 -0.26 -0.00    +0.000 A 
DOCKED: ATOM     23  N   UNL     1      26.679 -13.719   3.127 -0.34 -0.00    +0.000 N 
DOCKED: ATOM     24  C   UNL     1      27.852 -13.831   3.774 -0.43 -0.00    +0.000 A 
DOCKED: ATOM     25  C   UNL     1      28.910 -13.714   2.906 -0.23 -0.00    +0.000 A 
DOCKED: ATOM     26  C   UNL     1      30.231 -13.771   3.348 -0.19 -0.00    +0.000 A 
DOCKED: ATOM     27  C   UNL     1      30.456 -13.964   4.724 -0.26 -0.00    +0.000 A 
DOCKED: ATOM     28  C   UNL     1      29.368 -14.089   5.616 -0.26 -0.00    +0.000 A 
DOCKED: ATOM     29  C   UNL     1      28.045 -14.021   5.142 -0.47 -0.00    +0.000 A 
DOCKED: ATOM     30  C   UNL     1      25.974 -13.332   0.746 -0.29 -0.00    +0.000 C 
DOCKED: ATOM     31  H   UNL     1      25.778 -13.769   3.518 +0.00 +0.00    +0.000 HD
DOCKED: ENDBRANCH  20  21
DOCKED: ENDBRANCH  19  20
DOCKED: ENDBRANCH   1  19
DOCKED: TORSDOF 8
DOCKED: TER
DOCKED: ENDMDL
________________________________________________________________________________


	BEGINNING GENETIC ALGORITHM DOCKING 49 of 100
Run: 49 Seed: 810181898 709907246 [ Run 49 of 100 GA/GALS ]
Beginning LAMARCKIAN GENETIC ALGORITHM (LGA), with a maximum of 2500000 energy evaluations.

Final-Value: -16.576


	FINAL GENETIC ALGORITHM DOCKED STATE
	_______________________________________________


Detailed state:  trans 28.782 -15.781 0.584 quatxyzw -0.322599 0.581407 0.697123 0.268170 center 0.693 0.091 0.076 ntor 8 23.8456 169.5854 16.7546 165.3312 -101.2138 -170.5549 -173.7447 37.1090
State:	 28.782 -15.781   0.584  -0.335  0.604  0.724 148.889     23.85  169.59   16.75  165.33 -101.21 -170.55 -173.74   37.11

DOCKED: MODEL       49
DOCKED: USER    Run = 49
DOCKED: USER    DPF = ligand_dock.biased.dpf
DOCKED: USER  
DOCKED: USER    Estimated Free Energy of Binding    =  -12.51 kcal/mol  [=(1)+(2)+(3)-(4)]
DOCKED: USER    Estimated Inhibition Constant, Ki   =  673.21 pM (picomolar)  [Temperature = 298.15 K]
DOCKED: USER    
DOCKED: USER    (1) Final Intermolecular Energy     =  -14.90 kcal/mol
DOCKED: USER        vdW + Hbond + desolv Energy     =  -14.90 kcal/mol
DOCKED: USER        Electrostatic Energy            =   +0.00 kcal/mol
DOCKED: USER    (2) Final Total Internal Energy     =   -1.68 kcal/mol
DOCKED: USER    (3) Torsional Free Energy           =   +2.39 kcal/mol
DOCKED: USER    (4) Unbound System's Energy  [=(2)] =   -1.68 kcal/mol
DOCKED: USER    
DOCKED: USER    
DOCKED: USER    NEWDPF move ligand.pdbqt
DOCKED: USER    NEWDPF about 0.693000 0.091000 0.076000
DOCKED: USER    NEWDPF tran0 28.782231 -15.781055 0.583828
DOCKED: USER    NEWDPF quaternion0 -0.322599 0.581407 0.697123 0.268170
DOCKED: USER    NEWDPF axisangle0 -0.334864 0.603512 0.723629 148.889167
DOCKED: USER    NEWDPF quat0 -0.334864 0.603512 0.723629 148.889167
DOCKED: USER    NEWDPF dihe0 23.85 169.59 16.75 165.33 -101.21 -170.55 -173.74 37.11 
DOCKED: USER  keepresnum = 1 
DOCKED: USER  
DOCKED: REMARK  Name = 
DOCKED: REMARK  9 active torsions:
DOCKED: REMARK  status: ('A' for Active; 'I' for Inactive)
DOCKED: REMARK    1  A    between atoms: C_2  and  C_3
DOCKED: REMARK    2  A    between atoms: C_4  and  C_5
DOCKED: REMARK    3  A    between atoms: C_8  and  C_9
DOCKED: REMARK    4  A    between atoms: C_9  and  N_10
DOCKED: REMARK    5  A    between atoms: N_10  and  C_11
DOCKED: REMARK    6  A    between atoms: C_11  and  C_12
DOCKED: REMARK    7  A    between atoms: C_12  and  C_13
DOCKED: REMARK    8  A    between atoms: C_14  and  C_22
DOCKED: REMARK    9  A    between atoms: N_25  and  O_26
DOCKED: REMARK                            x       y       z     vdW  Elec       q    Type
DOCKED: REMARK                         _______ _______ _______ _____ _____    ______ ____
DOCKED: USER                              x       y       z     vdW  Elec       q    Type
DOCKED: USER                           _______ _______ _______ _____ _____    ______ ____
DOCKED: ROOT
DOCKED: ATOM      1  N   UNL     1      29.513 -15.225   1.379 +0.20 -0.00    +0.000 N 
DOCKED: ATOM      2  H   UNL     1      30.097 -15.988   1.722 -0.84 -0.00    +0.000 HD
DOCKED: ATOM      3  H   UNL     1      28.621 -15.188   1.871 -1.35 -0.00    +0.000 HD
DOCKED: ENDROOT
DOCKED: BRANCH   1   4
DOCKED: ATOM      4  C   UNL     1      29.231 -15.450  -0.044 -0.19 -0.00    +0.000 C 
DOCKED: BRANCH   4   8
DOCKED: ATOM      5  C   UNL     1      25.072 -16.481  -0.630 -0.37 -0.00    +0.000 A 
DOCKED: ATOM      6  C   UNL     1      26.020 -17.476  -0.315 -0.55 -0.00    +0.000 A 
DOCKED: ATOM      7  C   UNL     1      27.362 -17.139  -0.120 -0.36 -0.00    +0.000 A 
DOCKED: ATOM      8  C   UNL     1      27.780 -15.804  -0.216 -0.28 -0.00    +0.000 A 
DOCKED: ATOM      9  C   UNL     1      26.841 -14.811  -0.530 -0.28 -0.00    +0.000 A 
DOCKED: ATOM     10  C   UNL     1      25.497 -15.146  -0.723 -0.23 -0.00    +0.000 A 
DOCKED: BRANCH   5  12
DOCKED: ATOM     11  C   UNL     1      23.142 -18.033  -0.871 -0.81 -0.00    +0.000 C 
DOCKED: ATOM     12  C   UNL     1      23.634 -16.787  -0.831 -0.56 -0.00    +0.000 C 
DOCKED: BRANCH  11  14
DOCKED: ATOM     13  O   UNL     1      20.856 -17.488  -0.713 -2.08 +0.00    +0.000 OA
DOCKED: ATOM     14  C   UNL     1      21.712 -18.332  -1.091 -0.73 -0.00    +0.000 C 
DOCKED: ATOM     15  N   UNL     1      21.275 -19.528  -1.748 -0.61 -0.00    +0.000 N 
DOCKED: ATOM     16  H   UNL     1      21.936 -20.140  -2.144 -0.55 -0.00    +0.000 HD
DOCKED: BRANCH  15  17
DOCKED: ATOM     17  O   UNL     1      19.954 -19.820  -1.826 -1.85 -0.00    +0.000 OA
DOCKED: ATOM     18  H   UNL     1      19.438 -19.002  -1.749 -0.36 -0.00    +0.000 HD
DOCKED: ENDBRANCH  15  17
DOCKED: ENDBRANCH  11  14
DOCKED: ENDBRANCH   5  12
DOCKED: ENDBRANCH   4   8
DOCKED: ENDBRANCH   1   4
DOCKED: BRANCH   1  19
DOCKED: ATOM     19  C   UNL     1      30.210 -13.952   1.617 -0.12 -0.00    +0.000 C 
DOCKED: BRANCH  19  20
DOCKED: ATOM     20  C   UNL     1      29.379 -12.976   2.466 -0.15 -0.00    +0.000 C 
DOCKED: BRANCH  20  21
DOCKED: ATOM     21  C   UNL     1      29.542 -13.284   3.927 -0.21 -0.00    +0.000 A 
DOCKED: ATOM     22  C   UNL     1      28.645 -13.956   4.759 -0.44 -0.00    +0.000 A 
DOCKED: ATOM     23  N   UNL     1      29.103 -13.985   6.033 -0.36 -0.00    +0.000 N 
DOCKED: ATOM     24  C   UNL     1      30.272 -13.321   6.018 -0.26 -0.00    +0.000 A 
DOCKED: ATOM     25  C   UNL     1      30.570 -12.873   4.754 -0.16 -0.00    +0.000 A 
DOCKED: ATOM     26  C   UNL     1      31.723 -12.134   4.491 -0.07 -0.00    +0.000 A 
DOCKED: ATOM     27  C   UNL     1      32.589 -11.863   5.566 -0.07 -0.00    +0.000 A 
DOCKED: ATOM     28  C   UNL     1      32.285 -12.327   6.865 -0.11 -0.00    +0.000 A 
DOCKED: ATOM     29  C   UNL     1      31.111 -13.065   7.101 -0.21 -0.00    +0.000 A 
DOCKED: ATOM     30  C   UNL     1      27.352 -14.574   4.331 -0.51 -0.00    +0.000 C 
DOCKED: ATOM     31  H   UNL     1      28.669 -14.405   6.810 -0.41 -0.00    +0.000 HD
DOCKED: ENDBRANCH  20  21
DOCKED: ENDBRANCH  19  20
DOCKED: ENDBRANCH   1  19
DOCKED: TORSDOF 8
DOCKED: TER
DOCKED: ENDMDL
________________________________________________________________________________


	BEGINNING GENETIC ALGORITHM DOCKING 50 of 100
Run: 50 Seed: 1641556268 689619372 [ Run 50 of 100 GA/GALS ]
Beginning LAMARCKIAN GENETIC ALGORITHM (LGA), with a maximum of 2500000 energy evaluations.

Final-Value: -15.299


	FINAL GENETIC ALGORITHM DOCKED STATE
	_______________________________________________


Detailed state:  trans 27.494 -17.125 -0.383 quatxyzw 0.014383 -0.251112 0.941438 0.224568 center 0.693 0.091 0.076 ntor 8 -4.6608 -172.7884 95.4861 -180.0000 154.6502 -19.7894 -31.1022 -6.1534
State:	 27.494 -17.125  -0.383   0.015 -0.258  0.966 154.045     -4.66 -172.79   95.49 -180.00  154.65  -19.79  -31.10   -6.15

DOCKED: MODEL       50
DOCKED: USER    Run = 50
DOCKED: USER    DPF = ligand_dock.biased.dpf
DOCKED: USER  
DOCKED: USER    Estimated Free Energy of Binding    =  -10.76 kcal/mol  [=(1)+(2)+(3)-(4)]
DOCKED: USER    Estimated Inhibition Constant, Ki   =   13.02 nM (nanomolar)  [Temperature = 298.15 K]
DOCKED: USER    
DOCKED: USER    (1) Final Intermolecular Energy     =  -13.14 kcal/mol
DOCKED: USER        vdW + Hbond + desolv Energy     =  -13.14 kcal/mol
DOCKED: USER        Electrostatic Energy            =   +0.00 kcal/mol
DOCKED: USER    (2) Final Total Internal Energy     =   -2.16 kcal/mol
DOCKED: USER    (3) Torsional Free Energy           =   +2.39 kcal/mol
DOCKED: USER    (4) Unbound System's Energy  [=(2)] =   -2.16 kcal/mol
DOCKED: USER    
DOCKED: USER    
DOCKED: USER    NEWDPF move ligand.pdbqt
DOCKED: USER    NEWDPF about 0.693000 0.091000 0.076000
DOCKED: USER    NEWDPF tran0 27.493766 -17.124547 -0.382782
DOCKED: USER    NEWDPF quaternion0 0.014383 -0.251112 0.941438 0.224568
DOCKED: USER    NEWDPF axisangle0 0.014760 -0.257694 0.966114 154.045063
DOCKED: USER    NEWDPF quat0 0.014760 -0.257694 0.966114 154.045063
DOCKED: USER    NEWDPF dihe0 -4.66 -172.79 95.49 -180.00 154.65 -19.79 -31.10 -6.15 
DOCKED: USER  keepresnum = 1 
DOCKED: USER  
DOCKED: REMARK  Name = 
DOCKED: REMARK  9 active torsions:
DOCKED: REMARK  status: ('A' for Active; 'I' for Inactive)
DOCKED: REMARK    1  A    between atoms: C_2  and  C_3
DOCKED: REMARK    2  A    between atoms: C_4  and  C_5
DOCKED: REMARK    3  A    between atoms: C_8  and  C_9
DOCKED: REMARK    4  A    between atoms: C_9  and  N_10
DOCKED: REMARK    5  A    between atoms: N_10  and  C_11
DOCKED: REMARK    6  A    between atoms: C_11  and  C_12
DOCKED: REMARK    7  A    between atoms: C_12  and  C_13
DOCKED: REMARK    8  A    between atoms: C_14  and  C_22
DOCKED: REMARK    9  A    between atoms: N_25  and  O_26
DOCKED: REMARK                            x       y       z     vdW  Elec       q    Type
DOCKED: REMARK                         _______ _______ _______ _____ _____    ______ ____
DOCKED: USER                              x       y       z     vdW  Elec       q    Type
DOCKED: USER                           _______ _______ _______ _____ _____    ______ ____
DOCKED: ROOT
DOCKED: ATOM      1  N   UNL     1      28.660 -17.170  -0.720 -0.32 -0.00    +0.000 N 
DOCKED: ATOM      2  H   UNL     1      28.601 -17.183  -1.738 -0.02 -0.00    +0.000 HD
DOCKED: ATOM      3  H   UNL     1      28.531 -18.102  -0.327 -0.55 -0.00    +0.000 HD
DOCKED: ENDROOT
DOCKED: BRANCH   1   4
DOCKED: ATOM      4  C   UNL     1      27.590 -16.311  -0.196 -0.37 -0.00    +0.000 C 
DOCKED: BRANCH   4   8
DOCKED: ATOM      5  C   UNL     1      23.790 -18.174  -1.085 -0.71 -0.00    +0.000 A 
DOCKED: ATOM      6  C   UNL     1      24.769 -18.863  -0.342 -0.19 -0.00    +0.000 A 
DOCKED: ATOM      7  C   UNL     1      25.994 -18.257  -0.052 -0.59 -0.00    +0.000 A 
DOCKED: ATOM      8  C   UNL     1      26.257 -16.947  -0.478 -0.48 -0.00    +0.000 A 
DOCKED: ATOM      9  C   UNL     1      25.285 -16.257  -1.216 -0.49 -0.00    +0.000 A 
DOCKED: ATOM     10  C   UNL     1      24.058 -16.861  -1.506 -0.51 -0.00    +0.000 A 
DOCKED: BRANCH   5  12
DOCKED: ATOM     11  C   UNL     1      21.505 -18.963  -0.495 -0.85 -0.00    +0.000 C 
DOCKED: ATOM     12  C   UNL     1      22.469 -18.769  -1.406 -0.72 -0.00    +0.000 C 
DOCKED: BRANCH  11  14
DOCKED: ATOM     13  O   UNL     1      19.891 -19.734  -2.029 -1.89 -0.00    +0.000 OA
DOCKED: ATOM     14  C   UNL     1      20.199 -19.574  -0.817 -0.89 -0.00    +0.000 C 
DOCKED: ATOM     15  N   UNL     1      19.293 -20.019   0.201 -0.74 -0.00    +0.000 N 
DOCKED: ATOM     16  H   UNL     1      19.569 -20.000   1.145 -0.03 -0.00    +0.000 HD
DOCKED: BRANCH  15  17
DOCKED: ATOM     17  O   UNL     1      18.058 -20.466  -0.133 -0.82 -0.00    +0.000 OA
DOCKED: ATOM     18  H   UNL     1      17.920 -20.351  -1.086 -0.34 -0.00    +0.000 HD
DOCKED: ENDBRANCH  15  17
DOCKED: ENDBRANCH  11  14
DOCKED: ENDBRANCH   5  12
DOCKED: ENDBRANCH   4   8
DOCKED: ENDBRANCH   1   4
DOCKED: BRANCH   1  19
DOCKED: ATOM     19  C   UNL     1      29.997 -16.698  -0.329 -0.20 -0.00    +0.000 C 
DOCKED: BRANCH  19  20
DOCKED: ATOM     20  C   UNL     1      30.621 -15.764  -1.380 -0.10 -0.00    +0.000 C 
DOCKED: BRANCH  20  21
DOCKED: ATOM     21  C   UNL     1      29.966 -15.969  -2.716 -0.14 -0.00    +0.000 A 
DOCKED: ATOM     22  C   UNL     1      30.318 -16.894  -3.701 -0.18 -0.00    +0.000 A 
DOCKED: ATOM     23  N   UNL     1      29.543 -16.738  -4.801 -0.30 -0.00    +0.000 N 
DOCKED: ATOM     24  C   UNL     1      28.720 -15.711  -4.529 -0.28 -0.00    +0.000 A 
DOCKED: ATOM     25  C   UNL     1      28.952 -15.212  -3.270 -0.16 -0.00    +0.000 A 
DOCKED: ATOM     26  C   UNL     1      28.237 -14.125  -2.768 -0.13 -0.00    +0.000 A 
DOCKED: ATOM     27  C   UNL     1      27.252 -13.551  -3.593 -0.22 -0.00    +0.000 A 
DOCKED: ATOM     28  C   UNL     1      27.009 -14.066  -4.885 -0.34 -0.00    +0.000 A 
DOCKED: ATOM     29  C   UNL     1      27.752 -15.160  -5.367 -0.38 -0.00    +0.000 A 
DOCKED: ATOM     30  C   UNL     1      31.390 -17.929  -3.585 -0.16 -0.00    +0.000 C 
DOCKED: ATOM     31  H   UNL     1      29.577 -17.268  -5.631 -0.04 -0.00    +0.000 HD
DOCKED: ENDBRANCH  20  21
DOCKED: ENDBRANCH  19  20
DOCKED: ENDBRANCH   1  19
DOCKED: TORSDOF 8
DOCKED: TER
DOCKED: ENDMDL
________________________________________________________________________________


	BEGINNING GENETIC ALGORITHM DOCKING 51 of 100
Run: 51 Seed: 625809892 200162483 [ Run 51 of 100 GA/GALS ]
Beginning LAMARCKIAN GENETIC ALGORITHM (LGA), with a maximum of 2500000 energy evaluations.

Final-Value: -15.583


	FINAL GENETIC ALGORITHM DOCKED STATE
	_______________________________________________


Detailed state:  trans 27.746 -16.171 -0.428 quatxyzw -0.107453 0.918526 0.380297 0.011751 center 0.693 0.091 0.076 ntor 8 -11.6732 -45.6948 -11.2901 1.3687 151.0480 174.4209 154.0027 -4.5633
State:	 27.746 -16.171  -0.428  -0.107  0.919  0.380 178.653    -11.67  -45.69  -11.29    1.37  151.05  174.42  154.00   -4.56

DOCKED: MODEL       51
DOCKED: USER    Run = 51
DOCKED: USER    DPF = ligand_dock.biased.dpf
DOCKED: USER  
DOCKED: USER    Estimated Free Energy of Binding    =  -10.74 kcal/mol  [=(1)+(2)+(3)-(4)]
DOCKED: USER    Estimated Inhibition Constant, Ki   =   13.51 nM (nanomolar)  [Temperature = 298.15 K]
DOCKED: USER    
DOCKED: USER    (1) Final Intermolecular Energy     =  -13.12 kcal/mol
DOCKED: USER        vdW + Hbond + desolv Energy     =  -13.12 kcal/mol
DOCKED: USER        Electrostatic Energy            =   +0.00 kcal/mol
DOCKED: USER    (2) Final Total Internal Energy     =   -2.46 kcal/mol
DOCKED: USER    (3) Torsional Free Energy           =   +2.39 kcal/mol
DOCKED: USER    (4) Unbound System's Energy  [=(2)] =   -2.46 kcal/mol
DOCKED: USER    
DOCKED: USER    
DOCKED: USER    NEWDPF move ligand.pdbqt
DOCKED: USER    NEWDPF about 0.693000 0.091000 0.076000
DOCKED: USER    NEWDPF tran0 27.746463 -16.171337 -0.428077
DOCKED: USER    NEWDPF quaternion0 -0.107453 0.918526 0.380297 0.011751
DOCKED: USER    NEWDPF axisangle0 -0.107460 0.918589 0.380324 178.653443
DOCKED: USER    NEWDPF quat0 -0.107460 0.918589 0.380324 178.653443
DOCKED: USER    NEWDPF dihe0 -11.67 -45.69 -11.29 1.37 151.05 174.42 154.00 -4.56 
DOCKED: USER  keepresnum = 1 
DOCKED: USER  
DOCKED: REMARK  Name = 
DOCKED: REMARK  9 active torsions:
DOCKED: REMARK  status: ('A' for Active; 'I' for Inactive)
DOCKED: REMARK    1  A    between atoms: C_2  and  C_3
DOCKED: REMARK    2  A    between atoms: C_4  and  C_5
DOCKED: REMARK    3  A    between atoms: C_8  and  C_9
DOCKED: REMARK    4  A    between atoms: C_9  and  N_10
DOCKED: REMARK    5  A    between atoms: N_10  and  C_11
DOCKED: REMARK    6  A    between atoms: C_11  and  C_12
DOCKED: REMARK    7  A    between atoms: C_12  and  C_13
DOCKED: REMARK    8  A    between atoms: C_14  and  C_22
DOCKED: REMARK    9  A    between atoms: N_25  and  O_26
DOCKED: REMARK                            x       y       z     vdW  Elec       q    Type
DOCKED: REMARK                         _______ _______ _______ _____ _____    ______ ____
DOCKED: USER                              x       y       z     vdW  Elec       q    Type
DOCKED: USER                           _______ _______ _______ _____ _____    ______ ____
DOCKED: ROOT
DOCKED: ATOM      1  N   UNL     1      28.606 -15.573   0.188 -0.23 -0.00    +0.000 N 
DOCKED: ATOM      2  H   UNL     1      28.466 -15.898   1.145 -0.75 -0.00    +0.000 HD
DOCKED: ATOM      3  H   UNL     1      27.966 -14.815  -0.045 -0.00 -0.00    +0.000 HD
DOCKED: ENDROOT
DOCKED: BRANCH   1   4
DOCKED: ATOM      4  C   UNL     1      28.337 -16.686  -0.732 -0.34 -0.00    +0.000 C 
DOCKED: BRANCH   4   8
DOCKED: ATOM      5  C   UNL     1      24.124 -17.660  -0.740 -0.67 -0.00    +0.000 A 
DOCKED: ATOM      6  C   UNL     1      25.078 -18.612  -0.328 -0.54 -0.00    +0.000 A 
DOCKED: ATOM      7  C   UNL     1      26.439 -18.292  -0.321 -0.55 -0.00    +0.000 A 
DOCKED: ATOM      8  C   UNL     1      26.870 -17.014  -0.704 -0.45 -0.00    +0.000 A 
DOCKED: ATOM      9  C   UNL     1      25.924 -16.064  -1.114 -0.44 -0.00    +0.000 A 
DOCKED: ATOM     10  C   UNL     1      24.562 -16.381  -1.120 -0.45 -0.00    +0.000 A 
DOCKED: BRANCH   5  12
DOCKED: ATOM     11  C   UNL     1      22.153 -19.147  -1.052 -0.79 -0.00    +0.000 C 
DOCKED: ATOM     12  C   UNL     1      22.668 -17.947  -0.750 -0.81 -0.00    +0.000 C 
DOCKED: BRANCH  11  14
DOCKED: ATOM     13  O   UNL     1      20.169 -19.736  -2.177 -1.88 -0.00    +0.000 OA
DOCKED: ATOM     14  C   UNL     1      20.702 -19.421  -1.080 -0.89 -0.00    +0.000 C 
DOCKED: ATOM     15  N   UNL     1      19.894 -19.374   0.104 -0.75 -0.00    +0.000 N 
DOCKED: ATOM     16  H   UNL     1      20.317 -19.238   0.981 -0.10 -0.00    +0.000 HD
DOCKED: BRANCH  15  17
DOCKED: ATOM     17  O   UNL     1      18.549 -19.517   0.018 -0.72 -0.00    +0.000 OA
DOCKED: ATOM     18  H   UNL     1      18.277 -19.457  -0.911 -0.52 -0.00    +0.000 HD
DOCKED: ENDBRANCH  15  17
DOCKED: ENDBRANCH  11  14
DOCKED: ENDBRANCH   5  12
DOCKED: ENDBRANCH   4   8
DOCKED: ENDBRANCH   1   4
DOCKED: BRANCH   1  19
DOCKED: ATOM     19  C   UNL     1      29.978 -15.059   0.058 -0.14 -0.00    +0.000 C 
DOCKED: BRANCH  19  20
DOCKED: ATOM     20  C   UNL     1      30.043 -13.757  -0.757 -0.05 -0.00    +0.000 C 
DOCKED: BRANCH  20  21
DOCKED: ATOM     21  C   UNL     1      28.864 -13.660  -1.683 -0.07 -0.00    +0.000 A 
DOCKED: ATOM     22  C   UNL     1      27.646 -13.021  -1.442 -0.13 -0.00    +0.000 A 
DOCKED: ATOM     23  N   UNL     1      26.798 -13.204  -2.482 -0.20 -0.00    +0.000 N 
DOCKED: ATOM     24  C   UNL     1      27.460 -13.967  -3.367 -0.21 -0.00    +0.000 A 
DOCKED: ATOM     25  C   UNL     1      28.720 -14.271  -2.913 -0.11 -0.00    +0.000 A 
DOCKED: ATOM     26  C   UNL     1      29.591 -15.075  -3.648 -0.13 -0.00    +0.000 A 
DOCKED: ATOM     27  C   UNL     1      29.143 -15.566  -4.888 -0.27 -0.00    +0.000 A 
DOCKED: ATOM     28  C   UNL     1      27.849 -15.250  -5.358 -0.37 -0.00    +0.000 A 
DOCKED: ATOM     29  C   UNL     1      26.990 -14.442  -4.591 -0.39 -0.00    +0.000 A 
DOCKED: ATOM     30  C   UNL     1      27.300 -12.233  -0.220 -0.17 -0.00    +0.000 C 
DOCKED: ATOM     31  H   UNL     1      25.883 -12.850  -2.570 +0.01 -0.00    +0.000 HD
DOCKED: ENDBRANCH  20  21
DOCKED: ENDBRANCH  19  20
DOCKED: ENDBRANCH   1  19
DOCKED: TORSDOF 8
DOCKED: TER
DOCKED: ENDMDL
________________________________________________________________________________


	BEGINNING GENETIC ALGORITHM DOCKING 52 of 100
Run: 52 Seed: 2069865260 977136773 [ Run 52 of 100 GA/GALS ]
Beginning LAMARCKIAN GENETIC ALGORITHM (LGA), with a maximum of 2500000 energy evaluations.

Final-Value: -16.412


	FINAL GENETIC ALGORITHM DOCKED STATE
	_______________________________________________


Detailed state:  trans 28.215 -15.427 0.409 quatxyzw 0.214949 -0.867986 -0.439815 0.083427 center 0.693 0.091 0.076 ntor 8 8.0423 96.8005 -113.2453 155.0301 -126.3304 -164.7326 -13.8377 -0.3431
State:	 28.215 -15.427   0.409   0.216 -0.871 -0.441 170.429      8.04   96.80 -113.25  155.03 -126.33 -164.73  -13.84   -0.34

DOCKED: MODEL       52
DOCKED: USER    Run = 52
DOCKED: USER    DPF = ligand_dock.biased.dpf
DOCKED: USER  
DOCKED: USER    Estimated Free Energy of Binding    =  -12.20 kcal/mol  [=(1)+(2)+(3)-(4)]
DOCKED: USER    Estimated Inhibition Constant, Ki   =    1.15 nM (nanomolar)  [Temperature = 298.15 K]
DOCKED: USER    
DOCKED: USER    (1) Final Intermolecular Energy     =  -14.58 kcal/mol
DOCKED: USER        vdW + Hbond + desolv Energy     =  -14.58 kcal/mol
DOCKED: USER        Electrostatic Energy            =   +0.00 kcal/mol
DOCKED: USER    (2) Final Total Internal Energy     =   -1.83 kcal/mol
DOCKED: USER    (3) Torsional Free Energy           =   +2.39 kcal/mol
DOCKED: USER    (4) Unbound System's Energy  [=(2)] =   -1.83 kcal/mol
DOCKED: USER    
DOCKED: USER    
DOCKED: USER    NEWDPF move ligand.pdbqt
DOCKED: USER    NEWDPF about 0.693000 0.091000 0.076000
DOCKED: USER    NEWDPF tran0 28.215106 -15.427247 0.409317
DOCKED: USER    NEWDPF quaternion0 0.214949 -0.867986 -0.439815 0.083427
DOCKED: USER    NEWDPF axisangle0 0.215701 -0.871022 -0.441353 170.428863
DOCKED: USER    NEWDPF quat0 0.215701 -0.871022 -0.441353 170.428863
DOCKED: USER    NEWDPF dihe0 8.04 96.80 -113.25 155.03 -126.33 -164.73 -13.84 -0.34 
DOCKED: USER  keepresnum = 1 
DOCKED: USER  
DOCKED: REMARK  Name = 
DOCKED: REMARK  9 active torsions:
DOCKED: REMARK  status: ('A' for Active; 'I' for Inactive)
DOCKED: REMARK    1  A    between atoms: C_2  and  C_3
DOCKED: REMARK    2  A    between atoms: C_4  and  C_5
DOCKED: REMARK    3  A    between atoms: C_8  and  C_9
DOCKED: REMARK    4  A    between atoms: C_9  and  N_10
DOCKED: REMARK    5  A    between atoms: N_10  and  C_11
DOCKED: REMARK    6  A    between atoms: C_11  and  C_12
DOCKED: REMARK    7  A    between atoms: C_12  and  C_13
DOCKED: REMARK    8  A    between atoms: C_14  and  C_22
DOCKED: REMARK    9  A    between atoms: N_25  and  O_26
DOCKED: REMARK                            x       y       z     vdW  Elec       q    Type
DOCKED: REMARK                         _______ _______ _______ _____ _____    ______ ____
DOCKED: USER                              x       y       z     vdW  Elec       q    Type
DOCKED: USER                           _______ _______ _______ _____ _____    ______ ____
DOCKED: ROOT
DOCKED: ATOM      1  N   UNL     1      28.810 -14.861   1.305 -0.17 -0.00    +0.000 N 
DOCKED: ATOM      2  H   UNL     1      28.507 -15.371   2.135 -1.48 -0.00    +0.000 HD
DOCKED: ATOM      3  H   UNL     1      28.130 -14.149   1.037 -0.07 -0.00    +0.000 HD
DOCKED: ENDROOT
DOCKED: BRANCH   1   4
DOCKED: ATOM      4  C   UNL     1      28.931 -15.807   0.189 -0.08 -0.00    +0.000 C 
DOCKED: BRANCH   4   8
DOCKED: ATOM      5  C   UNL     1      24.951 -16.955  -1.052 -0.58 -0.00    +0.000 A 
DOCKED: ATOM      6  C   UNL     1      25.460 -15.679  -1.370 -0.41 -0.00    +0.000 A 
DOCKED: ATOM      7  C   UNL     1      26.749 -15.313  -0.972 -0.32 -0.00    +0.000 A 
DOCKED: ATOM      8  C   UNL     1      27.559 -16.218  -0.271 -0.32 -0.00    +0.000 A 
DOCKED: ATOM      9  C   UNL     1      27.057 -17.487   0.047 -0.38 -0.00    +0.000 A 
DOCKED: ATOM     10  C   UNL     1      25.768 -17.856  -0.351 -0.60 -0.00    +0.000 A 
DOCKED: BRANCH   5  12
DOCKED: ATOM     11  C   UNL     1      22.759 -18.065  -0.660 -0.83 -0.00    +0.000 C 
DOCKED: ATOM     12  C   UNL     1      23.595 -17.395  -1.464 -0.64 -0.00    +0.000 C 
DOCKED: BRANCH  11  14
DOCKED: ATOM     13  O   UNL     1      20.413 -17.853  -0.711 -2.25 -0.00    +0.000 OA
DOCKED: ATOM     14  C   UNL     1      21.418 -18.517  -1.082 -0.77 -0.00    +0.000 C 
DOCKED: ATOM     15  N   UNL     1      21.229 -19.662  -1.924 -0.46 -0.00    +0.000 N 
DOCKED: ATOM     16  H   UNL     1      22.008 -20.122  -2.309 -0.58 -0.00    +0.000 HD
DOCKED: BRANCH  15  17
DOCKED: ATOM     17  O   UNL     1      19.979 -20.112  -2.193 -1.79 -0.00    +0.000 OA
DOCKED: ATOM     18  H   UNL     1      19.327 -19.481  -1.848 -0.38 -0.00    +0.000 HD
DOCKED: ENDBRANCH  15  17
DOCKED: ENDBRANCH  11  14
DOCKED: ENDBRANCH   5  12
DOCKED: ENDBRANCH   4   8
DOCKED: ENDBRANCH   1   4
DOCKED: BRANCH   1  19
DOCKED: ATOM     19  C   UNL     1      30.079 -14.181   1.603 -0.14 -0.00    +0.000 C 
DOCKED: BRANCH  19  20
DOCKED: ATOM     20  C   UNL     1      29.962 -12.650   1.514 -0.07 -0.00    +0.000 C 
DOCKED: BRANCH  20  21
DOCKED: ATOM     21  C   UNL     1      28.908 -12.151   2.461 -0.11 -0.00    +0.000 A 
DOCKED: ATOM     22  C   UNL     1      27.684 -11.564   2.136 -0.20 +0.00    +0.000 A 
DOCKED: ATOM     23  N   UNL     1      27.027 -11.177   3.256 -0.31 +0.00    +0.000 N 
DOCKED: ATOM     24  C   UNL     1      27.834 -11.495   4.283 -0.30 +0.00    +0.000 A 
DOCKED: ATOM     25  C   UNL     1      28.992 -12.084   3.839 -0.16 -0.00    +0.000 A 
DOCKED: ATOM     26  C   UNL     1      29.998 -12.481   4.719 -0.15 -0.00    +0.000 A 
DOCKED: ATOM     27  C   UNL     1      29.789 -12.268   6.094 -0.22 -0.00    +0.000 A 
DOCKED: ATOM     28  C   UNL     1      28.596 -11.666   6.552 -0.34 +0.00    +0.000 A 
DOCKED: ATOM     29  C   UNL     1      27.601 -11.270   5.639 -0.21 +0.00    +0.000 A 
DOCKED: ATOM     30  C   UNL     1      27.142 -11.381   0.754 -0.22 +0.00    +0.000 C 
DOCKED: ATOM     31  H   UNL     1      26.142 -10.749   3.306 -0.04 +0.00    +0.000 HD
DOCKED: ENDBRANCH  20  21
DOCKED: ENDBRANCH  19  20
DOCKED: ENDBRANCH   1  19
DOCKED: TORSDOF 8
DOCKED: TER
DOCKED: ENDMDL
________________________________________________________________________________


	BEGINNING GENETIC ALGORITHM DOCKING 53 of 100
Run: 53 Seed: 837401848 1407042812 [ Run 53 of 100 GA/GALS ]
Beginning LAMARCKIAN GENETIC ALGORITHM (LGA), with a maximum of 2500000 energy evaluations.

Final-Value: -15.726


	FINAL GENETIC ALGORITHM DOCKED STATE
	_______________________________________________


Detailed state:  trans 27.955 -17.075 -0.347 quatxyzw -0.131477 0.175051 -0.937179 -0.271600 center 0.693 0.091 0.076 ntor 8 5.0987 176.2227 -81.8604 161.4553 -165.7472 -28.4604 172.1729 -23.9880
State:	 27.955 -17.075  -0.347  -0.137  0.182 -0.974 -148.481      5.10  176.22  -81.86  161.46 -165.75  -28.46  172.17  -23.99

DOCKED: MODEL       53
DOCKED: USER    Run = 53
DOCKED: USER    DPF = ligand_dock.biased.dpf
DOCKED: USER  
DOCKED: USER    Estimated Free Energy of Binding    =  -10.88 kcal/mol  [=(1)+(2)+(3)-(4)]
DOCKED: USER    Estimated Inhibition Constant, Ki   =   10.58 nM (nanomolar)  [Temperature = 298.15 K]
DOCKED: USER    
DOCKED: USER    (1) Final Intermolecular Energy     =  -13.27 kcal/mol
DOCKED: USER        vdW + Hbond + desolv Energy     =  -13.27 kcal/mol
DOCKED: USER        Electrostatic Energy            =   +0.00 kcal/mol
DOCKED: USER    (2) Final Total Internal Energy     =   -2.46 kcal/mol
DOCKED: USER    (3) Torsional Free Energy           =   +2.39 kcal/mol
DOCKED: USER    (4) Unbound System's Energy  [=(2)] =   -2.46 kcal/mol
DOCKED: USER    
DOCKED: USER    
DOCKED: USER    NEWDPF move ligand.pdbqt
DOCKED: USER    NEWDPF about 0.693000 0.091000 0.076000
DOCKED: USER    NEWDPF tran0 27.954598 -17.075164 -0.347192
DOCKED: USER    NEWDPF quaternion0 -0.131477 0.175051 -0.937179 -0.271600
DOCKED: USER    NEWDPF axisangle0 -0.136613 0.181888 -0.973783 -148.480964
DOCKED: USER    NEWDPF quat0 -0.136613 0.181888 -0.973783 -148.480964
DOCKED: USER    NEWDPF dihe0 5.10 176.22 -81.86 161.46 -165.75 -28.46 172.17 -23.99 
DOCKED: USER  keepresnum = 1 
DOCKED: USER  
DOCKED: REMARK  Name = 
DOCKED: REMARK  9 active torsions:
DOCKED: REMARK  status: ('A' for Active; 'I' for Inactive)
DOCKED: REMARK    1  A    between atoms: C_2  and  C_3
DOCKED: REMARK    2  A    between atoms: C_4  and  C_5
DOCKED: REMARK    3  A    between atoms: C_8  and  C_9
DOCKED: REMARK    4  A    between atoms: C_9  and  N_10
DOCKED: REMARK    5  A    between atoms: N_10  and  C_11
DOCKED: REMARK    6  A    between atoms: C_11  and  C_12
DOCKED: REMARK    7  A    between atoms: C_12  and  C_13
DOCKED: REMARK    8  A    between atoms: C_14  and  C_22
DOCKED: REMARK    9  A    between atoms: N_25  and  O_26
DOCKED: REMARK                            x       y       z     vdW  Elec       q    Type
DOCKED: REMARK                         _______ _______ _______ _____ _____    ______ ____
DOCKED: USER                              x       y       z     vdW  Elec       q    Type
DOCKED: USER                           _______ _______ _______ _____ _____    ______ ____
DOCKED: ROOT
DOCKED: ATOM      1  N   UNL     1      29.050 -17.031  -0.870 -0.28 -0.00    +0.000 N 
DOCKED: ATOM      2  H   UNL     1      28.846 -17.258  -1.844 -0.02 -0.00    +0.000 HD
DOCKED: ATOM      3  H   UNL     1      29.137 -17.873  -0.301 -0.50 -0.00    +0.000 HD
DOCKED: ENDROOT
DOCKED: BRANCH   1   4
DOCKED: ATOM      4  C   UNL     1      27.941 -16.236  -0.328 -0.34 -0.00    +0.000 C 
DOCKED: BRANCH   4   8
DOCKED: ATOM      5  C   UNL     1      24.147 -18.120  -1.198 -0.68 -0.00    +0.000 A 
DOCKED: ATOM      6  C   UNL     1      24.609 -17.043  -1.982 -0.50 -0.00    +0.000 A 
DOCKED: ATOM      7  C   UNL     1      25.838 -16.440  -1.702 -0.49 -0.00    +0.000 A 
DOCKED: ATOM      8  C   UNL     1      26.637 -16.911  -0.650 -0.47 -0.00    +0.000 A 
DOCKED: ATOM      9  C   UNL     1      26.182 -17.982   0.132 -0.52 -0.00    +0.000 A 
DOCKED: ATOM     10  C   UNL     1      24.953 -18.588  -0.147 -0.46 -0.00    +0.000 A 
DOCKED: BRANCH   5  12
DOCKED: ATOM     11  C   UNL     1      21.764 -18.639  -0.706 -0.87 -0.00    +0.000 C 
DOCKED: ATOM     12  C   UNL     1      22.857 -18.802  -1.464 -0.75 -0.00    +0.000 C 
DOCKED: BRANCH  11  14
DOCKED: ATOM     13  O   UNL     1      20.263 -19.770  -2.127 -1.86 -0.00    +0.000 OA
DOCKED: ATOM     14  C   UNL     1      20.488 -19.336  -0.965 -0.90 -0.00    +0.000 C 
DOCKED: ATOM     15  N   UNL     1      19.519 -19.562   0.067 -0.76 -0.00    +0.000 N 
DOCKED: ATOM     16  H   UNL     1      19.730 -19.327   0.998 -0.10 -0.00    +0.000 HD
DOCKED: BRANCH  15  17
DOCKED: ATOM     17  O   UNL     1      18.313 -20.101  -0.236 -0.83 -0.00    +0.000 OA
DOCKED: ATOM     18  H   UNL     1      18.296 -20.348  -1.174 -0.39 -0.00    +0.000 HD
DOCKED: ENDBRANCH  15  17
DOCKED: ENDBRANCH  11  14
DOCKED: ENDBRANCH   5  12
DOCKED: ENDBRANCH   4   8
DOCKED: ENDBRANCH   1   4
DOCKED: BRANCH   1  19
DOCKED: ATOM     19  C   UNL     1      30.333 -16.315  -0.811 -0.17 -0.00    +0.000 C 
DOCKED: BRANCH  19  20
DOCKED: ATOM     20  C   UNL     1      30.736 -15.716  -2.169 -0.08 -0.00    +0.000 C 
DOCKED: BRANCH  20  21
DOCKED: ATOM     21  C   UNL     1      29.540 -15.618  -3.072 -0.15 -0.00    +0.000 A 
DOCKED: ATOM     22  C   UNL     1      29.242 -16.417  -4.177 -0.23 -0.00    +0.000 A 
DOCKED: ATOM     23  N   UNL     1      28.113 -15.987  -4.789 -0.32 -0.00    +0.000 N 
DOCKED: ATOM     24  C   UNL     1      27.706 -14.912  -4.093 -0.31 -0.00    +0.000 A 
DOCKED: ATOM     25  C   UNL     1      28.553 -14.651  -3.044 -0.15 -0.00    +0.000 A 
DOCKED: ATOM     26  C   UNL     1      28.351 -13.567  -2.190 -0.10 -0.00    +0.000 A 
DOCKED: ATOM     27  C   UNL     1      27.238 -12.741  -2.429 -0.14 -0.00    +0.000 A 
DOCKED: ATOM     28  C   UNL     1      26.363 -13.011  -3.505 -0.22 -0.00    +0.000 A 
DOCKED: ATOM     29  C   UNL     1      26.596 -14.109  -4.354 -0.38 -0.00    +0.000 A 
DOCKED: ATOM     30  C   UNL     1      30.037 -17.596  -4.641 -0.28 -0.00    +0.000 C 
DOCKED: ATOM     31  H   UNL     1      27.680 -16.381  -5.581 -0.02 +0.00    +0.000 HD
DOCKED: ENDBRANCH  20  21
DOCKED: ENDBRANCH  19  20
DOCKED: ENDBRANCH   1  19
DOCKED: TORSDOF 8
DOCKED: TER
DOCKED: ENDMDL
________________________________________________________________________________


	BEGINNING GENETIC ALGORITHM DOCKING 54 of 100
Run: 54 Seed: 1643502256 1540148308 [ Run 54 of 100 GA/GALS ]
Beginning LAMARCKIAN GENETIC ALGORITHM (LGA), with a maximum of 2500000 energy evaluations.

Final-Value: -15.193


	FINAL GENETIC ALGORITHM DOCKED STATE
	_______________________________________________


Detailed state:  trans 27.982 -16.355 0.119 quatxyzw -0.322544 -0.365119 -0.868208 -0.094167 center 0.693 0.091 0.076 ntor 8 6.4834 159.1606 -38.4984 -177.6143 63.4463 97.2837 103.3005 -61.8070
State:	 27.982 -16.355   0.119  -0.324 -0.367 -0.872 -169.193      6.48  159.16  -38.50 -177.61   63.45   97.28  103.30  -61.81

DOCKED: MODEL       54
DOCKED: USER    Run = 54
DOCKED: USER    DPF = ligand_dock.biased.dpf
DOCKED: USER  
DOCKED: USER    Estimated Free Energy of Binding    =  -10.89 kcal/mol  [=(1)+(2)+(3)-(4)]
DOCKED: USER    Estimated Inhibition Constant, Ki   =   10.40 nM (nanomolar)  [Temperature = 298.15 K]
DOCKED: USER    
DOCKED: USER    (1) Final Intermolecular Energy     =  -13.28 kcal/mol
DOCKED: USER        vdW + Hbond + desolv Energy     =  -13.28 kcal/mol
DOCKED: USER        Electrostatic Energy            =   +0.00 kcal/mol
DOCKED: USER    (2) Final Total Internal Energy     =   -1.92 kcal/mol
DOCKED: USER    (3) Torsional Free Energy           =   +2.39 kcal/mol
DOCKED: USER    (4) Unbound System's Energy  [=(2)] =   -1.92 kcal/mol
DOCKED: USER    
DOCKED: USER    
DOCKED: USER    NEWDPF move ligand.pdbqt
DOCKED: USER    NEWDPF about 0.693000 0.091000 0.076000
DOCKED: USER    NEWDPF tran0 27.982398 -16.355330 0.118814
DOCKED: USER    NEWDPF quaternion0 -0.322544 -0.365119 -0.868208 -0.094167
DOCKED: USER    NEWDPF axisangle0 -0.323984 -0.366749 -0.872083 -169.193272
DOCKED: USER    NEWDPF quat0 -0.323984 -0.366749 -0.872083 -169.193272
DOCKED: USER    NEWDPF dihe0 6.48 159.16 -38.50 -177.61 63.45 97.28 103.30 -61.81 
DOCKED: USER  keepresnum = 1 
DOCKED: USER  
DOCKED: REMARK  Name = 
DOCKED: REMARK  9 active torsions:
DOCKED: REMARK  status: ('A' for Active; 'I' for Inactive)
DOCKED: REMARK    1  A    between atoms: C_2  and  C_3
DOCKED: REMARK    2  A    between atoms: C_4  and  C_5
DOCKED: REMARK    3  A    between atoms: C_8  and  C_9
DOCKED: REMARK    4  A    between atoms: C_9  and  N_10
DOCKED: REMARK    5  A    between atoms: N_10  and  C_11
DOCKED: REMARK    6  A    between atoms: C_11  and  C_12
DOCKED: REMARK    7  A    between atoms: C_12  and  C_13
DOCKED: REMARK    8  A    between atoms: C_14  and  C_22
DOCKED: REMARK    9  A    between atoms: N_25  and  O_26
DOCKED: REMARK                            x       y       z     vdW  Elec       q    Type
DOCKED: REMARK                         _______ _______ _______ _____ _____    ______ ____
DOCKED: USER                              x       y       z     vdW  Elec       q    Type
DOCKED: USER                           _______ _______ _______ _____ _____    ______ ____
DOCKED: ROOT
DOCKED: ATOM      1  N   UNL     1      28.974 -16.991  -0.177 -0.16 -0.00    +0.000 N 
DOCKED: ATOM      2  H   UNL     1      28.612 -17.940  -0.282 -0.50 -0.00    +0.000 HD
DOCKED: ATOM      3  H   UNL     1      29.165 -16.771   0.800 -0.59 -0.00    +0.000 HD
DOCKED: ENDROOT
DOCKED: BRANCH   1   4
DOCKED: ATOM      4  C   UNL     1      27.962 -16.044  -0.661 -0.33 -0.00    +0.000 C 
DOCKED: BRANCH   4   8
DOCKED: ATOM      5  C   UNL     1      24.193 -18.092  -1.204 -0.68 -0.00    +0.000 A 
DOCKED: ATOM      6  C   UNL     1      24.373 -16.782  -1.691 -0.53 -0.00    +0.000 A 
DOCKED: ATOM      7  C   UNL     1      25.594 -16.124  -1.519 -0.48 -0.00    +0.000 A 
DOCKED: ATOM      8  C   UNL     1      26.662 -16.768  -0.878 -0.45 -0.00    +0.000 A 
DOCKED: ATOM      9  C   UNL     1      26.488 -18.071  -0.392 -0.54 -0.00    +0.000 A 
DOCKED: ATOM     10  C   UNL     1      25.267 -18.731  -0.564 -0.39 -0.00    +0.000 A 
DOCKED: BRANCH   5  12
DOCKED: ATOM     11  C   UNL     1      21.755 -18.439  -0.848 -0.83 -0.00    +0.000 C 
DOCKED: ATOM     12  C   UNL     1      22.921 -18.837  -1.375 -0.78 -0.00    +0.000 C 
DOCKED: BRANCH  11  14
DOCKED: ATOM     13  O   UNL     1      20.252 -19.735  -2.117 -1.87 -0.00    +0.000 OA
DOCKED: ATOM     14  C   UNL     1      20.495 -19.194  -1.005 -0.89 -0.00    +0.000 C 
DOCKED: ATOM     15  N   UNL     1      19.565 -19.359   0.073 -0.76 -0.00    +0.000 N 
DOCKED: ATOM     16  H   UNL     1      19.794 -19.037   0.973 -0.19 -0.00    +0.000 HD
DOCKED: BRANCH  15  17
DOCKED: ATOM     17  O   UNL     1      18.369 -19.959  -0.144 -0.81 -0.00    +0.000 OA
DOCKED: ATOM     18  H   UNL     1      18.342 -20.307  -1.049 -0.39 -0.00    +0.000 HD
DOCKED: ENDBRANCH  15  17
DOCKED: ENDBRANCH  11  14
DOCKED: ENDBRANCH   5  12
DOCKED: ENDBRANCH   4   8
DOCKED: ENDBRANCH   1   4
DOCKED: BRANCH   1  19
DOCKED: ATOM     19  C   UNL     1      30.241 -16.884  -0.918 -0.20 -0.00    +0.000 C 
DOCKED: BRANCH  19  20
DOCKED: ATOM     20  C   UNL     1      30.432 -15.498  -1.556 -0.09 -0.00    +0.000 C 
DOCKED: BRANCH  20  21
DOCKED: ATOM     21  C   UNL     1      30.366 -15.598  -3.054 -0.09 -0.00    +0.000 A 
DOCKED: ATOM     22  C   UNL     1      31.406 -15.912  -3.931 -0.06 -0.00    +0.000 A 
DOCKED: ATOM     23  N   UNL     1      30.986 -15.840  -5.216 -0.13 -0.00    +0.000 N 
DOCKED: ATOM     24  C   UNL     1      29.697 -15.463  -5.160 -0.23 -0.00    +0.000 A 
DOCKED: ATOM     25  C   UNL     1      29.285 -15.300  -3.860 -0.17 -0.00    +0.000 A 
DOCKED: ATOM     26  C   UNL     1      27.989 -14.888  -3.547 -0.23 -0.00    +0.000 A 
DOCKED: ATOM     27  C   UNL     1      27.101 -14.649  -4.612 -0.39 -0.00    +0.000 A 
DOCKED: ATOM     28  C   UNL     1      27.523 -14.822  -5.949 -0.14 +0.00    +0.000 A 
DOCKED: ATOM     29  C   UNL     1      28.838 -15.232  -6.234 -0.34 -0.00    +0.000 A 
DOCKED: ATOM     30  C   UNL     1      32.799 -16.287  -3.535 -0.03 -0.00    +0.000 C 
DOCKED: ATOM     31  H   UNL     1      31.516 -16.023  -6.025 +0.00 -0.00    +0.000 HD
DOCKED: ENDBRANCH  20  21
DOCKED: ENDBRANCH  19  20
DOCKED: ENDBRANCH   1  19
DOCKED: TORSDOF 8
DOCKED: TER
DOCKED: ENDMDL
________________________________________________________________________________


	BEGINNING GENETIC ALGORITHM DOCKING 55 of 100
Run: 55 Seed: 469716066 2002216702 [ Run 55 of 100 GA/GALS ]
Beginning LAMARCKIAN GENETIC ALGORITHM (LGA), with a maximum of 2500000 energy evaluations.

Final-Value: -15.891


	FINAL GENETIC ALGORITHM DOCKED STATE
	_______________________________________________


Detailed state:  trans 28.674 -16.462 -0.515 quatxyzw -0.032871 0.590799 0.804004 0.058772 center 0.693 0.091 0.076 ntor 8 14.6820 -158.4326 101.5764 -157.4112 143.2501 -164.6928 82.9333 -3.2039
State:	 28.674 -16.462  -0.515  -0.033  0.592  0.805 173.261     14.68 -158.43  101.58 -157.41  143.25 -164.69   82.93   -3.20

DOCKED: MODEL       55
DOCKED: USER    Run = 55
DOCKED: USER    DPF = ligand_dock.biased.dpf
DOCKED: USER  
DOCKED: USER    Estimated Free Energy of Binding    =  -11.39 kcal/mol  [=(1)+(2)+(3)-(4)]
DOCKED: USER    Estimated Inhibition Constant, Ki   =    4.50 nM (nanomolar)  [Temperature = 298.15 K]
DOCKED: USER    
DOCKED: USER    (1) Final Intermolecular Energy     =  -13.77 kcal/mol
DOCKED: USER        vdW + Hbond + desolv Energy     =  -13.77 kcal/mol
DOCKED: USER        Electrostatic Energy            =   +0.00 kcal/mol
DOCKED: USER    (2) Final Total Internal Energy     =   -2.12 kcal/mol
DOCKED: USER    (3) Torsional Free Energy           =   +2.39 kcal/mol
DOCKED: USER    (4) Unbound System's Energy  [=(2)] =   -2.12 kcal/mol
DOCKED: USER    
DOCKED: USER    
DOCKED: USER    NEWDPF move ligand.pdbqt
DOCKED: USER    NEWDPF about 0.693000 0.091000 0.076000
DOCKED: USER    NEWDPF tran0 28.674109 -16.462386 -0.514539
DOCKED: USER    NEWDPF quaternion0 -0.032871 0.590799 0.804004 0.058772
DOCKED: USER    NEWDPF axisangle0 -0.032928 0.591821 0.805396 173.261378
DOCKED: USER    NEWDPF quat0 -0.032928 0.591821 0.805396 173.261378
DOCKED: USER    NEWDPF dihe0 14.68 -158.43 101.58 -157.41 143.25 -164.69 82.93 -3.20 
DOCKED: USER  keepresnum = 1 
DOCKED: USER  
DOCKED: REMARK  Name = 
DOCKED: REMARK  9 active torsions:
DOCKED: REMARK  status: ('A' for Active; 'I' for Inactive)
DOCKED: REMARK    1  A    between atoms: C_2  and  C_3
DOCKED: REMARK    2  A    between atoms: C_4  and  C_5
DOCKED: REMARK    3  A    between atoms: C_8  and  C_9
DOCKED: REMARK    4  A    between atoms: C_9  and  N_10
DOCKED: REMARK    5  A    between atoms: N_10  and  C_11
DOCKED: REMARK    6  A    between atoms: C_11  and  C_12
DOCKED: REMARK    7  A    between atoms: C_12  and  C_13
DOCKED: REMARK    8  A    between atoms: C_14  and  C_22
DOCKED: REMARK    9  A    between atoms: N_25  and  O_26
DOCKED: REMARK                            x       y       z     vdW  Elec       q    Type
DOCKED: REMARK                         _______ _______ _______ _____ _____    ______ ____
DOCKED: USER                              x       y       z     vdW  Elec       q    Type
DOCKED: USER                           _______ _______ _______ _____ _____    ______ ____
DOCKED: ROOT
DOCKED: ATOM      1  N   UNL     1      29.716 -16.634   0.085 -0.12 -0.00    +0.000 N 
DOCKED: ATOM      2  H   UNL     1      29.707 -17.637   0.273 -0.49 -0.00    +0.000 HD
DOCKED: ATOM      3  H   UNL     1      29.171 -16.121   0.778 -0.67 -0.00    +0.000 HD
DOCKED: ENDROOT
DOCKED: BRANCH   1   4
DOCKED: ATOM      4  C   UNL     1      29.109 -16.394  -1.230 -0.26 -0.00    +0.000 C 
DOCKED: BRANCH   4   8
DOCKED: ATOM      5  C   UNL     1      24.853 -17.116  -0.986 -0.59 -0.00    +0.000 A 
DOCKED: ATOM      6  C   UNL     1      25.414 -16.525  -2.136 -0.52 -0.00    +0.000 A 
DOCKED: ATOM      7  C   UNL     1      26.791 -16.298  -2.214 -0.37 -0.00    +0.000 A 
DOCKED: ATOM      8  C   UNL     1      27.634 -16.674  -1.158 -0.36 -0.00    +0.000 A 
DOCKED: ATOM      9  C   UNL     1      27.079 -17.262  -0.012 -0.40 -0.00    +0.000 A 
DOCKED: ATOM     10  C   UNL     1      25.702 -17.491   0.067 -0.35 -0.00    +0.000 A 
DOCKED: BRANCH   5  12
DOCKED: ATOM     11  C   UNL     1      22.789 -18.425  -1.455 -0.69 -0.00    +0.000 C 
DOCKED: ATOM     12  C   UNL     1      23.399 -17.390  -0.862 -0.74 -0.00    +0.000 C 
DOCKED: BRANCH  11  14
DOCKED: ATOM     13  O   UNL     1      20.629 -17.858  -0.706 -2.35 -0.00    +0.000 OA
DOCKED: ATOM     14  C   UNL     1      21.339 -18.682  -1.343 -0.48 -0.00    +0.000 C 
DOCKED: ATOM     15  N   UNL     1      20.715 -19.814  -1.962 -0.65 -0.00    +0.000 N 
DOCKED: ATOM     16  H   UNL     1      21.238 -20.401  -2.552 -0.54 -0.00    +0.000 HD
DOCKED: BRANCH  15  17
DOCKED: ATOM     17  O   UNL     1      19.404 -20.077  -1.739 -1.23 -0.00    +0.000 OA
DOCKED: ATOM     18  H   UNL     1      18.982 -19.300  -1.340 -0.49 -0.00    +0.000 HD
DOCKED: ENDBRANCH  15  17
DOCKED: ENDBRANCH  11  14
DOCKED: ENDBRANCH   5  12
DOCKED: ENDBRANCH   4   8
DOCKED: ENDBRANCH   1   4
DOCKED: BRANCH   1  19
DOCKED: ATOM     19  C   UNL     1      31.104 -16.152   0.158 -0.13 -0.00    +0.000 C 
DOCKED: BRANCH  19  20
DOCKED: ATOM     20  C   UNL     1      31.313 -15.128   1.286 -0.12 -0.00    +0.000 C 
DOCKED: BRANCH  20  21
DOCKED: ATOM     21  C   UNL     1      30.066 -14.316   1.493 -0.12 -0.00    +0.000 A 
DOCKED: ATOM     22  C   UNL     1      29.477 -13.421   0.597 -0.08 -0.00    +0.000 A 
DOCKED: ATOM     23  N   UNL     1      28.400 -12.822   1.159 -0.13 -0.00    +0.000 N 
DOCKED: ATOM     24  C   UNL     1      28.315 -13.314   2.407 -0.23 -0.00    +0.000 A 
DOCKED: ATOM     25  C   UNL     1      29.316 -14.222   2.650 -0.18 -0.00    +0.000 A 
DOCKED: ATOM     26  C   UNL     1      29.452 -14.852   3.887 -0.20 -0.00    +0.000 A 
DOCKED: ATOM     27  C   UNL     1      28.518 -14.535   4.890 -0.48 -0.00    +0.000 A 
DOCKED: ATOM     28  C   UNL     1      27.485 -13.605   4.640 -0.46 -0.00    +0.000 A 
DOCKED: ATOM     29  C   UNL     1      27.378 -12.981   3.383 -0.32 -0.00    +0.000 A 
DOCKED: ATOM     30  C   UNL     1      29.943 -13.147  -0.797 -0.04 -0.00    +0.000 C 
DOCKED: ATOM     31  H   UNL     1      27.803 -12.161   0.739 +0.00 -0.00    +0.000 HD
DOCKED: ENDBRANCH  20  21
DOCKED: ENDBRANCH  19  20
DOCKED: ENDBRANCH   1  19
DOCKED: TORSDOF 8
DOCKED: TER
DOCKED: ENDMDL
________________________________________________________________________________


	BEGINNING GENETIC ALGORITHM DOCKING 56 of 100
Run: 56 Seed: 432729916 663690858 [ Run 56 of 100 GA/GALS ]
Beginning LAMARCKIAN GENETIC ALGORITHM (LGA), with a maximum of 2500000 energy evaluations.

Final-Value: -16.438


	FINAL GENETIC ALGORITHM DOCKED STATE
	_______________________________________________


Detailed state:  trans 28.062 -16.166 -0.089 quatxyzw 0.518581 -0.334825 -0.609485 -0.497488 center 0.693 0.091 0.076 ntor 8 10.1013 155.6642 -92.1310 -36.9464 -30.0330 -149.9506 59.6782 61.2966
State:	 28.062 -16.166  -0.089   0.598 -0.386 -0.703 -120.332     10.10  155.66  -92.13  -36.95  -30.03 -149.95   59.68   61.30

DOCKED: MODEL       56
DOCKED: USER    Run = 56
DOCKED: USER    DPF = ligand_dock.biased.dpf
DOCKED: USER  
DOCKED: USER    Estimated Free Energy of Binding    =  -12.61 kcal/mol  [=(1)+(2)+(3)-(4)]
DOCKED: USER    Estimated Inhibition Constant, Ki   =  574.26 pM (picomolar)  [Temperature = 298.15 K]
DOCKED: USER    
DOCKED: USER    (1) Final Intermolecular Energy     =  -14.99 kcal/mol
DOCKED: USER        vdW + Hbond + desolv Energy     =  -14.99 kcal/mol
DOCKED: USER        Electrostatic Energy            =   +0.00 kcal/mol
DOCKED: USER    (2) Final Total Internal Energy     =   -1.45 kcal/mol
DOCKED: USER    (3) Torsional Free Energy           =   +2.39 kcal/mol
DOCKED: USER    (4) Unbound System's Energy  [=(2)] =   -1.45 kcal/mol
DOCKED: USER    
DOCKED: USER    
DOCKED: USER    NEWDPF move ligand.pdbqt
DOCKED: USER    NEWDPF about 0.693000 0.091000 0.076000
DOCKED: USER    NEWDPF tran0 28.061806 -16.166274 -0.088920
DOCKED: USER    NEWDPF quaternion0 0.518581 -0.334825 -0.609485 -0.497488
DOCKED: USER    NEWDPF axisangle0 0.597808 -0.385978 -0.702600 -120.332144
DOCKED: USER    NEWDPF quat0 0.597808 -0.385978 -0.702600 -120.332144
DOCKED: USER    NEWDPF dihe0 10.10 155.66 -92.13 -36.95 -30.03 -149.95 59.68 61.30 
DOCKED: USER  keepresnum = 1 
DOCKED: USER  
DOCKED: REMARK  Name = 
DOCKED: REMARK  9 active torsions:
DOCKED: REMARK  status: ('A' for Active; 'I' for Inactive)
DOCKED: REMARK    1  A    between atoms: C_2  and  C_3
DOCKED: REMARK    2  A    between atoms: C_4  and  C_5
DOCKED: REMARK    3  A    between atoms: C_8  and  C_9
DOCKED: REMARK    4  A    between atoms: C_9  and  N_10
DOCKED: REMARK    5  A    between atoms: N_10  and  C_11
DOCKED: REMARK    6  A    between atoms: C_11  and  C_12
DOCKED: REMARK    7  A    between atoms: C_12  and  C_13
DOCKED: REMARK    8  A    between atoms: C_14  and  C_22
DOCKED: REMARK    9  A    between atoms: N_25  and  O_26
DOCKED: REMARK                            x       y       z     vdW  Elec       q    Type
DOCKED: REMARK                         _______ _______ _______ _____ _____    ______ ____
DOCKED: USER                              x       y       z     vdW  Elec       q    Type
DOCKED: USER                           _______ _______ _______ _____ _____    ______ ____
DOCKED: ROOT
DOCKED: ATOM      1  N   UNL     1      28.312 -15.392   0.813 -0.16 -0.00    +0.000 N 
DOCKED: ATOM      2  H   UNL     1      29.300 -15.568   0.995 -0.69 -0.00    +0.000 HD
DOCKED: ATOM      3  H   UNL     1      27.718 -16.069   1.292 -0.51 -0.00    +0.000 HD
DOCKED: ENDROOT
DOCKED: BRANCH   1   4
DOCKED: ATOM      4  C   UNL     1      28.067 -15.523  -0.629 -0.28 -0.00    +0.000 C 
DOCKED: BRANCH   4   8
DOCKED: ATOM      5  C   UNL     1      24.453 -17.822  -1.224 -0.66 -0.00    +0.000 A 
DOCKED: ATOM      6  C   UNL     1      24.809 -16.799  -2.127 -0.50 -0.00    +0.000 A 
DOCKED: ATOM      7  C   UNL     1      25.980 -16.061  -1.935 -0.45 -0.00    +0.000 A 
DOCKED: ATOM      8  C   UNL     1      26.828 -16.343  -0.853 -0.40 -0.00    +0.000 A 
DOCKED: ATOM      9  C   UNL     1      26.478 -17.360   0.046 -0.45 -0.00    +0.000 A 
DOCKED: ATOM     10  C   UNL     1      25.307 -18.100  -0.145 -0.60 -0.00    +0.000 A 
DOCKED: BRANCH   5  12
DOCKED: ATOM     11  C   UNL     1      22.211 -18.639  -0.521 -0.84 -0.00    +0.000 C 
DOCKED: ATOM     12  C   UNL     1      23.228 -18.642  -1.393 -0.79 -0.00    +0.000 C 
DOCKED: BRANCH  11  14
DOCKED: ATOM     13  O   UNL     1      20.481 -19.559  -1.829 -1.64 -0.00    +0.000 OA
DOCKED: ATOM     14  C   UNL     1      21.002 -19.471  -0.685 -0.85 -0.00    +0.000 C 
DOCKED: ATOM     15  N   UNL     1      20.428 -20.206   0.404 -0.69 -0.00    +0.000 N 
DOCKED: ATOM     16  H   UNL     1      20.887 -20.233   1.273 -0.51 -0.00    +0.000 HD
DOCKED: BRANCH  15  17
DOCKED: ATOM     17  O   UNL     1      19.255 -20.864   0.240 -0.76 -0.00    +0.000 OA
DOCKED: ATOM     18  H   UNL     1      19.018 -20.872  -0.701 -0.46 -0.00    +0.000 HD
DOCKED: ENDBRANCH  15  17
DOCKED: ENDBRANCH  11  14
DOCKED: ENDBRANCH   5  12
DOCKED: ENDBRANCH   4   8
DOCKED: ENDBRANCH   1   4
DOCKED: BRANCH   1  19
DOCKED: ATOM     19  C   UNL     1      27.968 -14.055   1.320 -0.27 -0.00    +0.000 C 
DOCKED: BRANCH  19  20
DOCKED: ATOM     20  C   UNL     1      27.219 -14.109   2.663 -0.14 -0.00    +0.000 C 
DOCKED: BRANCH  20  21
DOCKED: ATOM     21  C   UNL     1      27.429 -12.836   3.431 -0.31 -0.00    +0.000 A 
DOCKED: ATOM     22  C   UNL     1      27.172 -11.533   3.001 -0.25 +0.00    +0.000 A 
DOCKED: ATOM     23  N   UNL     1      27.552 -10.635   3.942 -0.31 +0.00    +0.000 N 
DOCKED: ATOM     24  C   UNL     1      28.066 -11.358   4.952 -0.33 +0.00    +0.000 A 
DOCKED: ATOM     25  C   UNL     1      28.015 -12.702   4.675 -0.37 -0.00    +0.000 A 
DOCKED: ATOM     26  C   UNL     1      28.513 -13.654   5.564 -0.43 -0.00    +0.000 A 
DOCKED: ATOM     27  C   UNL     1      29.068 -13.195   6.773 -0.36 -0.00    +0.000 A 
DOCKED: ATOM     28  C   UNL     1      29.117 -11.814   7.061 -0.32 -0.00    +0.000 A 
DOCKED: ATOM     29  C   UNL     1      28.612 -10.876   6.141 -0.30 +0.00    +0.000 A 
DOCKED: ATOM     30  C   UNL     1      26.556 -11.150   1.693 -0.35 +0.00    +0.000 C 
DOCKED: ATOM     31  H   UNL     1      27.470  -9.656   3.894 -0.02 +0.00    +0.000 HD
DOCKED: ENDBRANCH  20  21
DOCKED: ENDBRANCH  19  20
DOCKED: ENDBRANCH   1  19
DOCKED: TORSDOF 8
DOCKED: TER
DOCKED: ENDMDL
________________________________________________________________________________


	BEGINNING GENETIC ALGORITHM DOCKING 57 of 100
Run: 57 Seed: 227207580 866498339 [ Run 57 of 100 GA/GALS ]
Beginning LAMARCKIAN GENETIC ALGORITHM (LGA), with a maximum of 2500000 energy evaluations.

Final-Value: -16.227


	FINAL GENETIC ALGORITHM DOCKED STATE
	_______________________________________________


Detailed state:  trans 28.568 -17.092 0.077 quatxyzw -0.198186 0.733790 0.464789 0.454143 center 0.693 0.091 0.076 ntor 8 10.5515 -163.6667 176.6024 4.9398 167.1657 -94.8005 -12.9978 63.7185
State:	 28.568 -17.092   0.077  -0.222  0.824  0.522 125.980     10.55 -163.67  176.60    4.94  167.17  -94.80  -13.00   63.72

DOCKED: MODEL       57
DOCKED: USER    Run = 57
DOCKED: USER    DPF = ligand_dock.biased.dpf
DOCKED: USER  
DOCKED: USER    Estimated Free Energy of Binding    =  -11.79 kcal/mol  [=(1)+(2)+(3)-(4)]
DOCKED: USER    Estimated Inhibition Constant, Ki   =    2.28 nM (nanomolar)  [Temperature = 298.15 K]
DOCKED: USER    
DOCKED: USER    (1) Final Intermolecular Energy     =  -14.18 kcal/mol
DOCKED: USER        vdW + Hbond + desolv Energy     =  -14.18 kcal/mol
DOCKED: USER        Electrostatic Energy            =   +0.00 kcal/mol
DOCKED: USER    (2) Final Total Internal Energy     =   -2.05 kcal/mol
DOCKED: USER    (3) Torsional Free Energy           =   +2.39 kcal/mol
DOCKED: USER    (4) Unbound System's Energy  [=(2)] =   -2.05 kcal/mol
DOCKED: USER    
DOCKED: USER    
DOCKED: USER    NEWDPF move ligand.pdbqt
DOCKED: USER    NEWDPF about 0.693000 0.091000 0.076000
DOCKED: USER    NEWDPF tran0 28.568333 -17.091860 0.076962
DOCKED: USER    NEWDPF quaternion0 -0.198186 0.733790 0.464789 0.454143
DOCKED: USER    NEWDPF axisangle0 -0.222449 0.823623 0.521691 125.980384
DOCKED: USER    NEWDPF quat0 -0.222449 0.823623 0.521691 125.980384
DOCKED: USER    NEWDPF dihe0 10.55 -163.67 176.60 4.94 167.17 -94.80 -13.00 63.72 
DOCKED: USER  keepresnum = 1 
DOCKED: USER  
DOCKED: REMARK  Name = 
DOCKED: REMARK  9 active torsions:
DOCKED: REMARK  status: ('A' for Active; 'I' for Inactive)
DOCKED: REMARK    1  A    between atoms: C_2  and  C_3
DOCKED: REMARK    2  A    between atoms: C_4  and  C_5
DOCKED: REMARK    3  A    between atoms: C_8  and  C_9
DOCKED: REMARK    4  A    between atoms: C_9  and  N_10
DOCKED: REMARK    5  A    between atoms: N_10  and  C_11
DOCKED: REMARK    6  A    between atoms: C_11  and  C_12
DOCKED: REMARK    7  A    between atoms: C_12  and  C_13
DOCKED: REMARK    8  A    between atoms: C_14  and  C_22
DOCKED: REMARK    9  A    between atoms: N_25  and  O_26
DOCKED: REMARK                            x       y       z     vdW  Elec       q    Type
DOCKED: REMARK                         _______ _______ _______ _____ _____    ______ ____
DOCKED: USER                              x       y       z     vdW  Elec       q    Type
DOCKED: USER                           _______ _______ _______ _____ _____    ______ ____
DOCKED: ROOT
DOCKED: ATOM      1  N   UNL     1      29.260 -16.101   0.199 -0.11 -0.00    +0.000 N 
DOCKED: ATOM      2  H   UNL     1      30.007 -16.421   0.817 -0.56 -0.00    +0.000 HD
DOCKED: ATOM      3  H   UNL     1      28.431 -15.829   0.727 -0.46 -0.00    +0.000 HD
DOCKED: ENDROOT
DOCKED: BRANCH   1   4
DOCKED: ATOM      4  C   UNL     1      28.882 -17.203  -0.694 -0.27 -0.00    +0.000 C 
DOCKED: BRANCH   4   8
DOCKED: ATOM      5  C   UNL     1      24.566 -17.341  -0.922 -0.63 -0.00    +0.000 A 
DOCKED: ATOM      6  C   UNL     1      25.288 -16.341  -1.604 -0.52 -0.00    +0.000 A 
DOCKED: ATOM      7  C   UNL     1      26.683 -16.302  -1.533 -0.39 -0.00    +0.000 A 
DOCKED: ATOM      8  C   UNL     1      27.384 -17.270  -0.799 -0.42 -0.00    +0.000 A 
DOCKED: ATOM      9  C   UNL     1      26.670 -18.267  -0.120 -0.48 -0.00    +0.000 A 
DOCKED: ATOM     10  C   UNL     1      25.274 -18.308  -0.191 -0.59 -0.00    +0.000 A 
DOCKED: BRANCH   5  12
DOCKED: ATOM     11  C   UNL     1      22.410 -18.579  -0.827 -0.84 -0.00    +0.000 C 
DOCKED: ATOM     12  C   UNL     1      23.086 -17.432  -0.979 -0.72 -0.00    +0.000 C 
DOCKED: BRANCH  11  14
DOCKED: ATOM     13  O   UNL     1      20.279 -17.608  -1.081 -2.08 -0.00    +0.000 OA
DOCKED: ATOM     14  C   UNL     1      20.938 -18.667  -0.903 -0.83 -0.00    +0.000 C 
DOCKED: ATOM     15  N   UNL     1      20.243 -19.918  -0.817 -0.79 -0.00    +0.000 N 
DOCKED: ATOM     16  H   UNL     1      20.750 -20.760  -0.788 -0.09 -0.00    +0.000 HD
DOCKED: BRANCH  15  17
DOCKED: ATOM     17  O   UNL     1      18.888 -19.944  -0.774 -0.93 -0.00    +0.000 OA
DOCKED: ATOM     18  H   UNL     1      18.542 -19.061  -0.977 -0.57 -0.00    +0.000 HD
DOCKED: ENDBRANCH  15  17
DOCKED: ENDBRANCH  11  14
DOCKED: ENDBRANCH   5  12
DOCKED: ENDBRANCH   4   8
DOCKED: ENDBRANCH   1   4
DOCKED: BRANCH   1  19
DOCKED: ATOM     19  C   UNL     1      29.731 -14.919  -0.539 -0.13 -0.00    +0.000 C 
DOCKED: BRANCH  19  20
DOCKED: ATOM     20  C   UNL     1      30.408 -13.885   0.377 -0.08 -0.00    +0.000 C 
DOCKED: BRANCH  20  21
DOCKED: ATOM     21  C   UNL     1      30.229 -14.267   1.818 -0.12 -0.00    +0.000 A 
DOCKED: ATOM     22  C   UNL     1      31.132 -14.949   2.635 -0.18 -0.00    +0.000 A 
DOCKED: ATOM     23  N   UNL     1      30.595 -15.176   3.857 -0.32 -0.00    +0.000 N 
DOCKED: ATOM     24  C   UNL     1      29.354 -14.662   3.814 -0.24 -0.00    +0.000 A 
DOCKED: ATOM     25  C   UNL     1      29.091 -14.106   2.586 -0.22 -0.00    +0.000 A 
DOCKED: ATOM     26  C   UNL     1      27.856 -13.530   2.290 -0.27 -0.00    +0.000 A 
DOCKED: ATOM     27  C   UNL     1      26.875 -13.526   3.299 -0.20 -0.00    +0.000 A 
DOCKED: ATOM     28  C   UNL     1      27.146 -14.094   4.564 -0.49 -0.00    +0.000 A 
DOCKED: ATOM     29  C   UNL     1      28.400 -14.674   4.831 -0.48 -0.00    +0.000 A 
DOCKED: ATOM     30  C   UNL     1      32.511 -15.376   2.245 -0.14 -0.00    +0.000 C 
DOCKED: ATOM     31  H   UNL     1      31.025 -15.626   4.620 -0.05 -0.00    +0.000 HD
DOCKED: ENDBRANCH  20  21
DOCKED: ENDBRANCH  19  20
DOCKED: ENDBRANCH   1  19
DOCKED: TORSDOF 8
DOCKED: TER
DOCKED: ENDMDL
________________________________________________________________________________


	BEGINNING GENETIC ALGORITHM DOCKING 58 of 100
Run: 58 Seed: 891366062 1946070255 [ Run 58 of 100 GA/GALS ]
Beginning LAMARCKIAN GENETIC ALGORITHM (LGA), with a maximum of 2500000 energy evaluations.

Final-Value: -16.818


	FINAL GENETIC ALGORITHM DOCKED STATE
	_______________________________________________


Detailed state:  trans 29.088 -17.053 -0.098 quatxyzw 0.228083 -0.712001 -0.483020 -0.455767 center 0.693 0.091 0.076 ntor 8 11.4320 156.5028 174.5406 -164.4639 131.5217 -121.3796 -6.9903 65.2220
State:	 29.088 -17.053  -0.098   0.256 -0.800 -0.543 -125.771     11.43  156.50  174.54 -164.46  131.52 -121.38   -6.99   65.22

DOCKED: MODEL       58
DOCKED: USER    Run = 58
DOCKED: USER    DPF = ligand_dock.biased.dpf
DOCKED: USER  
DOCKED: USER    Estimated Free Energy of Binding    =  -12.15 kcal/mol  [=(1)+(2)+(3)-(4)]
DOCKED: USER    Estimated Inhibition Constant, Ki   =    1.25 nM (nanomolar)  [Temperature = 298.15 K]
DOCKED: USER    
DOCKED: USER    (1) Final Intermolecular Energy     =  -14.53 kcal/mol
DOCKED: USER        vdW + Hbond + desolv Energy     =  -14.53 kcal/mol
DOCKED: USER        Electrostatic Energy            =   +0.00 kcal/mol
DOCKED: USER    (2) Final Total Internal Energy     =   -2.28 kcal/mol
DOCKED: USER    (3) Torsional Free Energy           =   +2.39 kcal/mol
DOCKED: USER    (4) Unbound System's Energy  [=(2)] =   -2.28 kcal/mol
DOCKED: USER    
DOCKED: USER    
DOCKED: USER    NEWDPF move ligand.pdbqt
DOCKED: USER    NEWDPF about 0.693000 0.091000 0.076000
DOCKED: USER    NEWDPF tran0 29.087585 -17.053347 -0.098084
DOCKED: USER    NEWDPF quaternion0 0.228083 -0.712001 -0.483020 -0.455767
DOCKED: USER    NEWDPF axisangle0 0.256245 -0.799913 -0.542659 -125.771398
DOCKED: USER    NEWDPF quat0 0.256245 -0.799913 -0.542659 -125.771398
DOCKED: USER    NEWDPF dihe0 11.43 156.50 174.54 -164.46 131.52 -121.38 -6.99 65.22 
DOCKED: USER  keepresnum = 1 
DOCKED: USER  
DOCKED: REMARK  Name = 
DOCKED: REMARK  9 active torsions:
DOCKED: REMARK  status: ('A' for Active; 'I' for Inactive)
DOCKED: REMARK    1  A    between atoms: C_2  and  C_3
DOCKED: REMARK    2  A    between atoms: C_4  and  C_5
DOCKED: REMARK    3  A    between atoms: C_8  and  C_9
DOCKED: REMARK    4  A    between atoms: C_9  and  N_10
DOCKED: REMARK    5  A    between atoms: N_10  and  C_11
DOCKED: REMARK    6  A    between atoms: C_11  and  C_12
DOCKED: REMARK    7  A    between atoms: C_12  and  C_13
DOCKED: REMARK    8  A    between atoms: C_14  and  C_22
DOCKED: REMARK    9  A    between atoms: N_25  and  O_26
DOCKED: REMARK                            x       y       z     vdW  Elec       q    Type
DOCKED: REMARK                         _______ _______ _______ _____ _____    ______ ____
DOCKED: USER                              x       y       z     vdW  Elec       q    Type
DOCKED: USER                           _______ _______ _______ _____ _____    ______ ____
DOCKED: ROOT
DOCKED: ATOM      1  N   UNL     1      29.742 -16.049   0.096 -0.17 -0.00    +0.000 N 
DOCKED: ATOM      2  H   UNL     1      30.502 -16.385   0.689 -0.22 -0.00    +0.000 HD
DOCKED: ATOM      3  H   UNL     1      28.905 -15.848   0.643 -0.48 -0.00    +0.000 HD
DOCKED: ENDROOT
DOCKED: BRANCH   1   4
DOCKED: ATOM      4  C   UNL     1      29.403 -17.096  -0.875 -0.27 -0.00    +0.000 C 
DOCKED: BRANCH   4   8
DOCKED: ATOM      5  C   UNL     1      25.095 -17.297  -1.197 -0.60 -0.00    +0.000 A 
DOCKED: ATOM      6  C   UNL     1      25.821 -16.314  -1.899 -0.48 -0.00    +0.000 A 
DOCKED: ATOM      7  C   UNL     1      27.214 -16.254  -1.797 -0.34 -0.00    +0.000 A 
DOCKED: ATOM      8  C   UNL     1      27.908 -17.186  -1.012 -0.35 -0.00    +0.000 A 
DOCKED: ATOM      9  C   UNL     1      27.191 -18.166  -0.312 -0.27 -0.00    +0.000 A 
DOCKED: ATOM     10  C   UNL     1      25.798 -18.228  -0.414 -0.60 -0.00    +0.000 A 
DOCKED: BRANCH   5  12
DOCKED: ATOM     11  C   UNL     1      22.956 -18.566  -1.144 -0.81 -0.00    +0.000 C 
DOCKED: ATOM     12  C   UNL     1      23.618 -17.410  -1.284 -0.70 -0.00    +0.000 C 
DOCKED: BRANCH  11  14
DOCKED: ATOM     13  O   UNL     1      20.776 -17.787  -0.708 -2.24 -0.00    +0.000 OA
DOCKED: ATOM     14  C   UNL     1      21.486 -18.675  -1.251 -0.61 -0.00    +0.000 C 
DOCKED: ATOM     15  N   UNL     1      20.851 -19.734  -1.978 -0.65 -0.00    +0.000 N 
DOCKED: ATOM     16  H   UNL     1      21.394 -20.369  -2.495 -0.56 -0.00    +0.000 HD
DOCKED: BRANCH  15  17
DOCKED: ATOM     17  O   UNL     1      19.502 -19.864  -1.954 -1.53 -0.00    +0.000 OA
DOCKED: ATOM     18  H   UNL     1      19.108 -19.070  -1.558 -0.55 -0.00    +0.000 HD
DOCKED: ENDBRANCH  15  17
DOCKED: ENDBRANCH  11  14
DOCKED: ENDBRANCH   5  12
DOCKED: ENDBRANCH   4   8
DOCKED: ENDBRANCH   1   4
DOCKED: BRANCH   1  19
DOCKED: ATOM     19  C   UNL     1      30.166 -14.799  -0.553 -0.10 -0.00    +0.000 C 
DOCKED: BRANCH  19  20
DOCKED: ATOM     20  C   UNL     1      30.186 -13.608   0.420 -0.07 -0.00    +0.000 C 
DOCKED: BRANCH  20  21
DOCKED: ATOM     21  C   UNL     1      28.951 -13.611   1.275 -0.14 -0.00    +0.000 A 
DOCKED: ATOM     22  C   UNL     1      27.647 -13.300   0.886 -0.21 -0.00    +0.000 A 
DOCKED: ATOM     23  N   UNL     1      26.807 -13.345   1.947 -0.33 -0.00    +0.000 N 
DOCKED: ATOM     24  C   UNL     1      27.571 -13.661   3.006 -0.34 -0.00    +0.000 A 
DOCKED: ATOM     25  C   UNL     1      28.884 -13.826   2.639 -0.22 -0.00    +0.000 A 
DOCKED: ATOM     26  C   UNL     1      29.874 -14.134   3.571 -0.26 -0.00    +0.000 A 
DOCKED: ATOM     27  C   UNL     1      29.486 -14.284   4.915 -0.35 -0.00    +0.000 A 
DOCKED: ATOM     28  C   UNL     1      28.135 -14.120   5.294 -0.46 -0.00    +0.000 A 
DOCKED: ATOM     29  C   UNL     1      27.159 -13.803   4.331 -0.42 -0.00    +0.000 A 
DOCKED: ATOM     30  C   UNL     1      27.207 -12.966  -0.504 -0.20 -0.00    +0.000 C 
DOCKED: ATOM     31  H   UNL     1      25.837 -13.178   1.943 -0.03 -0.00    +0.000 HD
DOCKED: ENDBRANCH  20  21
DOCKED: ENDBRANCH  19  20
DOCKED: ENDBRANCH   1  19
DOCKED: TORSDOF 8
DOCKED: TER
DOCKED: ENDMDL
________________________________________________________________________________


	BEGINNING GENETIC ALGORITHM DOCKING 59 of 100
Run: 59 Seed: 1944509032 2129458351 [ Run 59 of 100 GA/GALS ]
Beginning LAMARCKIAN GENETIC ALGORITHM (LGA), with a maximum of 2500000 energy evaluations.

Final-Value: -15.907


	FINAL GENETIC ALGORITHM DOCKED STATE
	_______________________________________________


Detailed state:  trans 27.947 -16.261 0.528 quatxyzw -0.503853 0.433401 0.479954 0.572660 center 0.693 0.091 0.076 ntor 8 11.4930 119.7314 -24.4200 153.9823 -175.3414 -77.5582 2.7219 71.7021
State:	 27.947 -16.261   0.528  -0.615  0.529  0.585 110.128     11.49  119.73  -24.42  153.98 -175.34  -77.56    2.72   71.70

DOCKED: MODEL       59
DOCKED: USER    Run = 59
DOCKED: USER    DPF = ligand_dock.biased.dpf
DOCKED: USER  
DOCKED: USER    Estimated Free Energy of Binding    =  -11.84 kcal/mol  [=(1)+(2)+(3)-(4)]
DOCKED: USER    Estimated Inhibition Constant, Ki   =    2.09 nM (nanomolar)  [Temperature = 298.15 K]
DOCKED: USER    
DOCKED: USER    (1) Final Intermolecular Energy     =  -14.23 kcal/mol
DOCKED: USER        vdW + Hbond + desolv Energy     =  -14.23 kcal/mol
DOCKED: USER        Electrostatic Energy            =   +0.00 kcal/mol
DOCKED: USER    (2) Final Total Internal Energy     =   -1.68 kcal/mol
DOCKED: USER    (3) Torsional Free Energy           =   +2.39 kcal/mol
DOCKED: USER    (4) Unbound System's Energy  [=(2)] =   -1.68 kcal/mol
DOCKED: USER    
DOCKED: USER    
DOCKED: USER    NEWDPF move ligand.pdbqt
DOCKED: USER    NEWDPF about 0.693000 0.091000 0.076000
DOCKED: USER    NEWDPF tran0 27.947000 -16.261237 0.528059
DOCKED: USER    NEWDPF quaternion0 -0.503853 0.433401 0.479954 0.572660
DOCKED: USER    NEWDPF axisangle0 -0.614610 0.528672 0.585458 110.128109
DOCKED: USER    NEWDPF quat0 -0.614610 0.528672 0.585458 110.128109
DOCKED: USER    NEWDPF dihe0 11.49 119.73 -24.42 153.98 -175.34 -77.56 2.72 71.70 
DOCKED: USER  keepresnum = 1 
DOCKED: USER  
DOCKED: REMARK  Name = 
DOCKED: REMARK  9 active torsions:
DOCKED: REMARK  status: ('A' for Active; 'I' for Inactive)
DOCKED: REMARK    1  A    between atoms: C_2  and  C_3
DOCKED: REMARK    2  A    between atoms: C_4  and  C_5
DOCKED: REMARK    3  A    between atoms: C_8  and  C_9
DOCKED: REMARK    4  A    between atoms: C_9  and  N_10
DOCKED: REMARK    5  A    between atoms: N_10  and  C_11
DOCKED: REMARK    6  A    between atoms: C_11  and  C_12
DOCKED: REMARK    7  A    between atoms: C_12  and  C_13
DOCKED: REMARK    8  A    between atoms: C_14  and  C_22
DOCKED: REMARK    9  A    between atoms: N_25  and  O_26
DOCKED: REMARK                            x       y       z     vdW  Elec       q    Type
DOCKED: REMARK                         _______ _______ _______ _____ _____    ______ ____
DOCKED: USER                              x       y       z     vdW  Elec       q    Type
DOCKED: USER                           _______ _______ _______ _____ _____    ______ ____
DOCKED: ROOT
DOCKED: ATOM      1  N   UNL     1      27.968 -15.236   1.179 -0.21 -0.00    +0.000 N 
DOCKED: ATOM      2  H   UNL     1      28.920 -15.221   1.547 -1.20 -0.00    +0.000 HD
DOCKED: ATOM      3  H   UNL     1      27.356 -15.819   1.749 -0.36 -0.00    +0.000 HD
DOCKED: ENDROOT
DOCKED: BRANCH   1   4
DOCKED: ATOM      4  C   UNL     1      27.995 -15.804  -0.175 -0.30 -0.00    +0.000 C 
DOCKED: BRANCH   4   8
DOCKED: ATOM      5  C   UNL     1      24.379 -18.105  -0.747 -0.69 -0.00    +0.000 A 
DOCKED: ATOM      6  C   UNL     1      24.421 -16.738  -1.091 -0.56 -0.00    +0.000 A 
DOCKED: ATOM      7  C   UNL     1      25.592 -15.999  -0.910 -0.42 -0.00    +0.000 A 
DOCKED: ATOM      8  C   UNL     1      26.748 -16.611  -0.403 -0.42 -0.00    +0.000 A 
DOCKED: ATOM      9  C   UNL     1      26.711 -17.970  -0.061 -0.48 -0.00    +0.000 A 
DOCKED: ATOM     10  C   UNL     1      25.540 -18.712  -0.242 -0.35 -0.00    +0.000 A 
DOCKED: BRANCH   5  12
DOCKED: ATOM     11  C   UNL     1      21.943 -18.559  -0.529 -0.85 -0.00    +0.000 C 
DOCKED: ATOM     12  C   UNL     1      23.163 -18.935  -0.934 -0.82 -0.00    +0.000 C 
DOCKED: BRANCH  11  14
DOCKED: ATOM     13  O   UNL     1      20.189 -19.438  -1.834 -1.68 -0.00    +0.000 OA
DOCKED: ATOM     14  C   UNL     1      20.739 -19.399  -0.701 -0.89 -0.00    +0.000 C 
DOCKED: ATOM     15  N   UNL     1      20.204 -20.192   0.366 -0.71 -0.00    +0.000 N 
DOCKED: ATOM     16  H   UNL     1      20.687 -20.255   1.221 -0.44 -0.00    +0.000 HD
DOCKED: BRANCH  15  17
DOCKED: ATOM     17  O   UNL     1      19.034 -20.856   0.202 -0.76 -0.00    +0.000 OA
DOCKED: ATOM     18  H   UNL     1      18.783 -20.841  -0.735 -0.43 -0.00    +0.000 HD
DOCKED: ENDBRANCH  15  17
DOCKED: ENDBRANCH  11  14
DOCKED: ENDBRANCH   5  12
DOCKED: ENDBRANCH   4   8
DOCKED: ENDBRANCH   1   4
DOCKED: BRANCH   1  19
DOCKED: ATOM     19  C   UNL     1      27.431 -13.867   1.200 -0.30 -0.00    +0.000 C 
DOCKED: BRANCH  19  20
DOCKED: ATOM     20  C   UNL     1      28.025 -13.020   2.339 -0.27 -0.00    +0.000 C 
DOCKED: BRANCH  20  21
DOCKED: ATOM     21  C   UNL     1      29.163 -13.750   2.994 -0.22 -0.00    +0.000 A 
DOCKED: ATOM     22  C   UNL     1      29.216 -14.244   4.299 -0.37 -0.00    +0.000 A 
DOCKED: ATOM     23  N   UNL     1      30.431 -14.783   4.557 -0.33 -0.00    +0.000 N 
DOCKED: ATOM     24  C   UNL     1      31.153 -14.615   3.436 -0.23 -0.00    +0.000 A 
DOCKED: ATOM     25  C   UNL     1      30.417 -13.983   2.464 -0.14 -0.00    +0.000 A 
DOCKED: ATOM     26  C   UNL     1      30.960 -13.676   1.216 -0.06 -0.00    +0.000 A 
DOCKED: ATOM     27  C   UNL     1      32.296 -14.042   0.973 -0.03 -0.00    +0.000 A 
DOCKED: ATOM     28  C   UNL     1      33.052 -14.696   1.971 -0.06 -0.00    +0.000 A 
DOCKED: ATOM     29  C   UNL     1      32.480 -14.987   3.223 -0.15 -0.00    +0.000 A 
DOCKED: ATOM     30  C   UNL     1      28.099 -14.206   5.293 -0.49 -0.00    +0.000 C 
DOCKED: ATOM     31  H   UNL     1      30.725 -15.208   5.395 -0.00 -0.00    +0.000 HD
DOCKED: ENDBRANCH  20  21
DOCKED: ENDBRANCH  19  20
DOCKED: ENDBRANCH   1  19
DOCKED: TORSDOF 8
DOCKED: TER
DOCKED: ENDMDL
________________________________________________________________________________


	BEGINNING GENETIC ALGORITHM DOCKING 60 of 100
Run: 60 Seed: 1026649442 1939455548 [ Run 60 of 100 GA/GALS ]
Beginning LAMARCKIAN GENETIC ALGORITHM (LGA), with a maximum of 2500000 energy evaluations.

Final-Value: -16.067


	FINAL GENETIC ALGORITHM DOCKED STATE
	_______________________________________________


Detailed state:  trans 28.143 -15.925 -0.128 quatxyzw 0.135162 -0.911606 -0.386154 0.039891 center 0.693 0.091 0.076 ntor 8 11.1956 -179.1568 -124.9518 14.5475 155.0172 -98.3499 -22.6772 -2.0681
State:	 28.143 -15.925  -0.128   0.135 -0.912 -0.386 175.428     11.20 -179.16 -124.95   14.55  155.02  -98.35  -22.68   -2.07

DOCKED: MODEL       60
DOCKED: USER    Run = 60
DOCKED: USER    DPF = ligand_dock.biased.dpf
DOCKED: USER  
DOCKED: USER    Estimated Free Energy of Binding    =  -11.57 kcal/mol  [=(1)+(2)+(3)-(4)]
DOCKED: USER    Estimated Inhibition Constant, Ki   =    3.33 nM (nanomolar)  [Temperature = 298.15 K]
DOCKED: USER    
DOCKED: USER    (1) Final Intermolecular Energy     =  -13.95 kcal/mol
DOCKED: USER        vdW + Hbond + desolv Energy     =  -13.95 kcal/mol
DOCKED: USER        Electrostatic Energy            =   +0.00 kcal/mol
DOCKED: USER    (2) Final Total Internal Energy     =   -2.12 kcal/mol
DOCKED: USER    (3) Torsional Free Energy           =   +2.39 kcal/mol
DOCKED: USER    (4) Unbound System's Energy  [=(2)] =   -2.12 kcal/mol
DOCKED: USER    
DOCKED: USER    
DOCKED: USER    NEWDPF move ligand.pdbqt
DOCKED: USER    NEWDPF about 0.693000 0.091000 0.076000
DOCKED: USER    NEWDPF tran0 28.143077 -15.925329 -0.127585
DOCKED: USER    NEWDPF quaternion0 0.135162 -0.911606 -0.386154 0.039891
DOCKED: USER    NEWDPF axisangle0 0.135270 -0.912332 -0.386462 175.427575
DOCKED: USER    NEWDPF quat0 0.135270 -0.912332 -0.386462 175.427575
DOCKED: USER    NEWDPF dihe0 11.20 -179.16 -124.95 14.55 155.02 -98.35 -22.68 -2.07 
DOCKED: USER  keepresnum = 1 
DOCKED: USER  
DOCKED: REMARK  Name = 
DOCKED: REMARK  9 active torsions:
DOCKED: REMARK  status: ('A' for Active; 'I' for Inactive)
DOCKED: REMARK    1  A    between atoms: C_2  and  C_3
DOCKED: REMARK    2  A    between atoms: C_4  and  C_5
DOCKED: REMARK    3  A    between atoms: C_8  and  C_9
DOCKED: REMARK    4  A    between atoms: C_9  and  N_10
DOCKED: REMARK    5  A    between atoms: N_10  and  C_11
DOCKED: REMARK    6  A    between atoms: C_11  and  C_12
DOCKED: REMARK    7  A    between atoms: C_12  and  C_13
DOCKED: REMARK    8  A    between atoms: C_14  and  C_22
DOCKED: REMARK    9  A    between atoms: N_25  and  O_26
DOCKED: REMARK                            x       y       z     vdW  Elec       q    Type
DOCKED: REMARK                         _______ _______ _______ _____ _____    ______ ____
DOCKED: USER                              x       y       z     vdW  Elec       q    Type
DOCKED: USER                           _______ _______ _______ _____ _____    ______ ____
DOCKED: ROOT
DOCKED: ATOM      1  N   UNL     1      28.918 -15.335   0.598 -0.16 -0.00    +0.000 N 
DOCKED: ATOM      2  H   UNL     1      28.675 -15.689   1.524 -1.07 -0.00    +0.000 HD
DOCKED: ATOM      3  H   UNL     1      28.297 -14.578   0.314 -0.03 -0.00    +0.000 HD
DOCKED: ENDROOT
DOCKED: BRANCH   1   4
DOCKED: ATOM      4  C   UNL     1      28.772 -16.424  -0.376 -0.26 -0.00    +0.000 C 
DOCKED: BRANCH   4   8
DOCKED: ATOM      5  C   UNL     1      24.556 -17.264  -0.851 -0.61 -0.00    +0.000 A 
DOCKED: ATOM      6  C   UNL     1      25.090 -16.024  -1.255 -0.44 -0.00    +0.000 A 
DOCKED: ATOM      7  C   UNL     1      26.453 -15.757  -1.106 -0.37 -0.00    +0.000 A 
DOCKED: ATOM      8  C   UNL     1      27.312 -16.728  -0.571 -0.39 -0.00    +0.000 A 
DOCKED: ATOM      9  C   UNL     1      26.786 -17.964  -0.167 -0.46 -0.00    +0.000 A 
DOCKED: ATOM     10  C   UNL     1      25.422 -18.233  -0.318 -0.63 -0.00    +0.000 A 
DOCKED: BRANCH   5  12
DOCKED: ATOM     11  C   UNL     1      22.458 -18.412  -0.168 -0.81 -0.00    +0.000 C 
DOCKED: ATOM     12  C   UNL     1      23.119 -17.600  -1.003 -0.75 -0.00    +0.000 C 
DOCKED: BRANCH  11  14
DOCKED: ATOM     13  O   UNL     1      20.319 -18.032  -1.079 -2.14 -0.00    +0.000 OA
DOCKED: ATOM     14  C   UNL     1      21.031 -18.757  -0.335 -0.77 -0.00    +0.000 C 
DOCKED: ATOM     15  N   UNL     1      20.446 -19.906   0.292 -0.71 -0.00    +0.000 N 
DOCKED: ATOM     16  H   UNL     1      21.014 -20.539   0.785 -0.58 -0.00    +0.000 HD
DOCKED: BRANCH  15  17
DOCKED: ATOM     17  O   UNL     1      19.110 -20.122   0.209 -0.83 -0.00    +0.000 OA
DOCKED: ATOM     18  H   UNL     1      18.726 -19.519  -0.447 -0.20 -0.00    +0.000 HD
DOCKED: ENDBRANCH  15  17
DOCKED: ENDBRANCH  11  14
DOCKED: ENDBRANCH   5  12
DOCKED: ENDBRANCH   4   8
DOCKED: ENDBRANCH   1   4
DOCKED: BRANCH   1  19
DOCKED: ATOM     19  C   UNL     1      30.288 -14.802   0.641 -0.13 -0.00    +0.000 C 
DOCKED: BRANCH  19  20
DOCKED: ATOM     20  C   UNL     1      30.500 -13.818   1.803 -0.11 -0.00    +0.000 C 
DOCKED: BRANCH  20  21
DOCKED: ATOM     21  C   UNL     1      29.182 -13.277   2.278 -0.15 -0.00    +0.000 A 
DOCKED: ATOM     22  C   UNL     1      28.509 -13.595   3.459 -0.31 -0.00    +0.000 A 
DOCKED: ATOM     23  N   UNL     1      27.313 -12.963   3.513 -0.36 -0.00    +0.000 N 
DOCKED: ATOM     24  C   UNL     1      27.215 -12.264   2.369 -0.27 +0.00    +0.000 A 
DOCKED: ATOM     25  C   UNL     1      28.331 -12.436   1.587 -0.14 -0.00    +0.000 A 
DOCKED: ATOM     26  C   UNL     1      28.452 -11.829   0.337 -0.08 -0.00    +0.000 A 
DOCKED: ATOM     27  C   UNL     1      27.390 -11.018  -0.105 -0.13 +0.00    +0.000 A 
DOCKED: ATOM     28  C   UNL     1      26.244 -10.838   0.701 -0.28 +0.00    +0.000 A 
DOCKED: ATOM     29  C   UNL     1      26.147 -11.468   1.955 -0.29 +0.00    +0.000 A 
DOCKED: ATOM     30  C   UNL     1      29.016 -14.500   4.536 -0.48 -0.00    +0.000 C 
DOCKED: ATOM     31  H   UNL     1      26.651 -13.007   4.240 -0.01 +0.00    +0.000 HD
DOCKED: ENDBRANCH  20  21
DOCKED: ENDBRANCH  19  20
DOCKED: ENDBRANCH   1  19
DOCKED: TORSDOF 8
DOCKED: TER
DOCKED: ENDMDL
________________________________________________________________________________


	BEGINNING GENETIC ALGORITHM DOCKING 61 of 100
Run: 61 Seed: 1179716169 1618072958 [ Run 61 of 100 GA/GALS ]
Beginning LAMARCKIAN GENETIC ALGORITHM (LGA), with a maximum of 2500000 energy evaluations.

Final-Value: -15.940


	FINAL GENETIC ALGORITHM DOCKED STATE
	_______________________________________________


Detailed state:  trans 29.089 -17.042 -0.386 quatxyzw 0.376682 -0.305873 -0.476029 -0.733450 center 0.693 0.091 0.076 ntor 8 7.7921 -179.7521 22.4951 -175.0259 54.4776 -77.8187 -161.6259 110.2297
State:	 29.089 -17.042  -0.386   0.554 -0.450 -0.700 -85.647      7.79 -179.75   22.50 -175.03   54.48  -77.82 -161.63  110.23

DOCKED: MODEL       61
DOCKED: USER    Run = 61
DOCKED: USER    DPF = ligand_dock.biased.dpf
DOCKED: USER  
DOCKED: USER    Estimated Free Energy of Binding    =  -11.88 kcal/mol  [=(1)+(2)+(3)-(4)]
DOCKED: USER    Estimated Inhibition Constant, Ki   =    1.95 nM (nanomolar)  [Temperature = 298.15 K]
DOCKED: USER    
DOCKED: USER    (1) Final Intermolecular Energy     =  -14.27 kcal/mol
DOCKED: USER        vdW + Hbond + desolv Energy     =  -14.27 kcal/mol
DOCKED: USER        Electrostatic Energy            =   +0.00 kcal/mol
DOCKED: USER    (2) Final Total Internal Energy     =   -1.67 kcal/mol
DOCKED: USER    (3) Torsional Free Energy           =   +2.39 kcal/mol
DOCKED: USER    (4) Unbound System's Energy  [=(2)] =   -1.67 kcal/mol
DOCKED: USER    
DOCKED: USER    
DOCKED: USER    NEWDPF move ligand.pdbqt
DOCKED: USER    NEWDPF about 0.693000 0.091000 0.076000
DOCKED: USER    NEWDPF tran0 29.089362 -17.042048 -0.386365
DOCKED: USER    NEWDPF quaternion0 0.376682 -0.305873 -0.476029 -0.733450
DOCKED: USER    NEWDPF axisangle0 0.554154 -0.449983 -0.700307 -85.647202
DOCKED: USER    NEWDPF quat0 0.554154 -0.449983 -0.700307 -85.647202
DOCKED: USER    NEWDPF dihe0 7.79 -179.75 22.50 -175.03 54.48 -77.82 -161.63 110.23 
DOCKED: USER  keepresnum = 1 
DOCKED: USER  
DOCKED: REMARK  Name = 
DOCKED: REMARK  9 active torsions:
DOCKED: REMARK  status: ('A' for Active; 'I' for Inactive)
DOCKED: REMARK    1  A    between atoms: C_2  and  C_3
DOCKED: REMARK    2  A    between atoms: C_4  and  C_5
DOCKED: REMARK    3  A    between atoms: C_8  and  C_9
DOCKED: REMARK    4  A    between atoms: C_9  and  N_10
DOCKED: REMARK    5  A    between atoms: N_10  and  C_11
DOCKED: REMARK    6  A    between atoms: C_11  and  C_12
DOCKED: REMARK    7  A    between atoms: C_12  and  C_13
DOCKED: REMARK    8  A    between atoms: C_14  and  C_22
DOCKED: REMARK    9  A    between atoms: N_25  and  O_26
DOCKED: REMARK                            x       y       z     vdW  Elec       q    Type
DOCKED: REMARK                         _______ _______ _______ _____ _____    ______ ____
DOCKED: USER                              x       y       z     vdW  Elec       q    Type
DOCKED: USER                           _______ _______ _______ _____ _____    ______ ____
DOCKED: ROOT
DOCKED: ATOM      1  N   UNL     1      29.137 -15.905   0.040 -0.20 -0.00    +0.000 N 
DOCKED: ATOM      2  H   UNL     1      30.131 -15.683  -0.019 -0.02 -0.00    +0.000 HD
DOCKED: ATOM      3  H   UNL     1      28.921 -16.427   0.890 -0.64 -0.00    +0.000 HD
DOCKED: ENDROOT
DOCKED: BRANCH   1   4
DOCKED: ATOM      4  C   UNL     1      28.773 -16.748  -1.107 -0.31 -0.00    +0.000 C 
DOCKED: BRANCH   4   8
DOCKED: ATOM      5  C   UNL     1      24.533 -17.595  -1.089 -0.65 -0.00    +0.000 A 
DOCKED: ATOM      6  C   UNL     1      25.393 -18.224  -0.167 -0.61 -0.00    +0.000 A 
DOCKED: ATOM      7  C   UNL     1      26.762 -17.944  -0.171 -0.48 -0.00    +0.000 A 
DOCKED: ATOM      8  C   UNL     1      27.295 -17.018  -1.080 -0.41 -0.00    +0.000 A 
DOCKED: ATOM      9  C   UNL     1      26.443 -16.390  -1.999 -0.41 -0.00    +0.000 A 
DOCKED: ATOM     10  C   UNL     1      25.073 -16.668  -1.996 -0.54 -0.00    +0.000 A 
DOCKED: BRANCH   5  12
DOCKED: ATOM     11  C   UNL     1      22.456 -18.710  -0.293 -0.81 -0.00    +0.000 C 
DOCKED: ATOM     12  C   UNL     1      23.071 -17.849  -1.115 -0.76 -0.00    +0.000 C 
DOCKED: BRANCH  11  14
DOCKED: ATOM     13  O   UNL     1      20.258 -18.139  -0.917 -2.14 -0.00    +0.000 OA
DOCKED: ATOM     14  C   UNL     1      21.003 -18.972  -0.336 -0.85 -0.00    +0.000 C 
DOCKED: ATOM     15  N   UNL     1      20.425 -20.155   0.230 -0.70 -0.00    +0.000 N 
DOCKED: ATOM     16  H   UNL     1      21.006 -20.863   0.588 -0.52 -0.00    +0.000 HD
DOCKED: BRANCH  15  17
DOCKED: ATOM     17  O   UNL     1      19.078 -20.302   0.273 -0.82 -0.00    +0.000 OA
DOCKED: ATOM     18  H   UNL     1      18.658 -19.584  -0.225 -0.13 -0.00    +0.000 HD
DOCKED: ENDBRANCH  15  17
DOCKED: ENDBRANCH  11  14
DOCKED: ENDBRANCH   5  12
DOCKED: ENDBRANCH   4   8
DOCKED: ENDBRANCH   1   4
DOCKED: BRANCH   1  19
DOCKED: ATOM     19  C   UNL     1      28.373 -14.649   0.077 -0.22 -0.00    +0.000 C 
DOCKED: BRANCH  19  20
DOCKED: ATOM     20  C   UNL     1      29.156 -13.504   0.741 -0.12 -0.00    +0.000 C 
DOCKED: BRANCH  20  21
DOCKED: ATOM     21  C   UNL     1      28.404 -12.977   1.929 -0.17 -0.00    +0.000 A 
DOCKED: ATOM     22  C   UNL     1      27.364 -12.045   1.931 -0.23 +0.00    +0.000 A 
DOCKED: ATOM     23  N   UNL     1      26.979 -11.761   3.198 -0.26 +0.00    +0.000 N 
DOCKED: ATOM     24  C   UNL     1      27.779 -12.487   3.997 -0.32 -0.00    +0.000 A 
DOCKED: ATOM     25  C   UNL     1      28.665 -13.236   3.261 -0.24 -0.00    +0.000 A 
DOCKED: ATOM     26  C   UNL     1      29.616 -14.055   3.869 -0.29 -0.00    +0.000 A 
DOCKED: ATOM     27  C   UNL     1      29.639 -14.102   5.275 -0.32 -0.00    +0.000 A 
DOCKED: ATOM     28  C   UNL     1      28.725 -13.336   6.033 -0.39 -0.00    +0.000 A 
DOCKED: ATOM     29  C   UNL     1      27.781 -12.514   5.391 -0.39 +0.00    +0.000 A 
DOCKED: ATOM     30  C   UNL     1      26.736 -11.435   0.718 -0.27 +0.00    +0.000 C 
DOCKED: ATOM     31  H   UNL     1      26.261 -11.147   3.476 -0.02 +0.00    +0.000 HD
DOCKED: ENDBRANCH  20  21
DOCKED: ENDBRANCH  19  20
DOCKED: ENDBRANCH   1  19
DOCKED: TORSDOF 8
DOCKED: TER
DOCKED: ENDMDL
________________________________________________________________________________


	BEGINNING GENETIC ALGORITHM DOCKING 62 of 100
Run: 62 Seed: 1376862289 761573029 [ Run 62 of 100 GA/GALS ]
Beginning LAMARCKIAN GENETIC ALGORITHM (LGA), with a maximum of 2500000 energy evaluations.

Final-Value: -16.314


	FINAL GENETIC ALGORITHM DOCKED STATE
	_______________________________________________


Detailed state:  trans 28.768 -15.804 -0.316 quatxyzw -0.040058 0.935320 0.299615 -0.183853 center 0.693 0.091 0.076 ntor 8 0.1756 -175.6416 2.5009 13.1884 -113.1322 -117.6221 137.0275 -23.3979
State:	 28.768 -15.804  -0.316  -0.041  0.952  0.305 -158.811      0.18 -175.64    2.50   13.19 -113.13 -117.62  137.03  -23.40

DOCKED: MODEL       62
DOCKED: USER    Run = 62
DOCKED: USER    DPF = ligand_dock.biased.dpf
DOCKED: USER  
DOCKED: USER    Estimated Free Energy of Binding    =  -12.09 kcal/mol  [=(1)+(2)+(3)-(4)]
DOCKED: USER    Estimated Inhibition Constant, Ki   =    1.37 nM (nanomolar)  [Temperature = 298.15 K]
DOCKED: USER    
DOCKED: USER    (1) Final Intermolecular Energy     =  -14.48 kcal/mol
DOCKED: USER        vdW + Hbond + desolv Energy     =  -14.48 kcal/mol
DOCKED: USER        Electrostatic Energy            =   +0.00 kcal/mol
DOCKED: USER    (2) Final Total Internal Energy     =   -1.84 kcal/mol
DOCKED: USER    (3) Torsional Free Energy           =   +2.39 kcal/mol
DOCKED: USER    (4) Unbound System's Energy  [=(2)] =   -1.84 kcal/mol
DOCKED: USER    
DOCKED: USER    
DOCKED: USER    NEWDPF move ligand.pdbqt
DOCKED: USER    NEWDPF about 0.693000 0.091000 0.076000
DOCKED: USER    NEWDPF tran0 28.767570 -15.804211 -0.316278
DOCKED: USER    NEWDPF quaternion0 -0.040058 0.935320 0.299615 -0.183853
DOCKED: USER    NEWDPF axisangle0 -0.040752 0.951541 0.304811 -158.811498
DOCKED: USER    NEWDPF quat0 -0.040752 0.951541 0.304811 -158.811498
DOCKED: USER    NEWDPF dihe0 0.18 -175.64 2.50 13.19 -113.13 -117.62 137.03 -23.40 
DOCKED: USER  keepresnum = 1 
DOCKED: USER  
DOCKED: REMARK  Name = 
DOCKED: REMARK  9 active torsions:
DOCKED: REMARK  status: ('A' for Active; 'I' for Inactive)
DOCKED: REMARK    1  A    between atoms: C_2  and  C_3
DOCKED: REMARK    2  A    between atoms: C_4  and  C_5
DOCKED: REMARK    3  A    between atoms: C_8  and  C_9
DOCKED: REMARK    4  A    between atoms: C_9  and  N_10
DOCKED: REMARK    5  A    between atoms: N_10  and  C_11
DOCKED: REMARK    6  A    between atoms: C_11  and  C_12
DOCKED: REMARK    7  A    between atoms: C_12  and  C_13
DOCKED: REMARK    8  A    between atoms: C_14  and  C_22
DOCKED: REMARK    9  A    between atoms: N_25  and  O_26
DOCKED: REMARK                            x       y       z     vdW  Elec       q    Type
DOCKED: REMARK                         _______ _______ _______ _____ _____    ______ ____
DOCKED: USER                              x       y       z     vdW  Elec       q    Type
DOCKED: USER                           _______ _______ _______ _____ _____    ______ ____
DOCKED: ROOT
DOCKED: ATOM      1  N   UNL     1      29.536 -15.346   0.506 -0.15 -0.00    +0.000 N 
DOCKED: ATOM      2  H   UNL     1      29.027 -15.467   1.383 -1.04 -0.00    +0.000 HD
DOCKED: ATOM      3  H   UNL     1      29.241 -14.501   0.018 -0.00 -0.00    +0.000 HD
DOCKED: ENDROOT
DOCKED: BRANCH   1   4
DOCKED: ATOM      4  C   UNL     1      29.248 -16.491  -0.367 -0.22 -0.00    +0.000 C 
DOCKED: BRANCH   4   8
DOCKED: ATOM      5  C   UNL     1      24.980 -17.126  -0.654 -0.55 -0.00    +0.000 A 
DOCKED: ATOM      6  C   UNL     1      25.855 -18.214  -0.460 -0.59 -0.00    +0.000 A 
DOCKED: ATOM      7  C   UNL     1      27.233 -18.005  -0.362 -0.33 -0.00    +0.000 A 
DOCKED: ATOM      8  C   UNL     1      27.762 -16.708  -0.435 -0.35 -0.00    +0.000 A 
DOCKED: ATOM      9  C   UNL     1      26.896 -15.623  -0.627 -0.33 -0.00    +0.000 A 
DOCKED: ATOM     10  C   UNL     1      25.516 -15.829  -0.724 -0.37 -0.00    +0.000 A 
DOCKED: BRANCH   5  12
DOCKED: ATOM     11  C   UNL     1      22.918 -18.452  -1.076 -0.82 -0.00    +0.000 C 
DOCKED: ATOM     12  C   UNL     1      23.509 -17.295  -0.749 -0.73 -0.00    +0.000 C 
DOCKED: BRANCH  11  14
DOCKED: ATOM     13  O   UNL     1      20.713 -17.707  -0.713 -2.22 -0.00    +0.000 OA
DOCKED: ATOM     14  C   UNL     1      21.453 -18.609  -1.188 -0.65 -0.00    +0.000 C 
DOCKED: ATOM     15  N   UNL     1      20.855 -19.732  -1.848 -0.72 -0.00    +0.000 N 
DOCKED: ATOM     16  H   UNL     1      21.422 -20.385  -2.317 -0.53 -0.00    +0.000 HD
DOCKED: BRANCH  15  17
DOCKED: ATOM     17  O   UNL     1      19.510 -19.898  -1.827 -1.55 -0.00    +0.000 OA
DOCKED: ATOM     18  H   UNL     1      19.103 -19.172  -1.330 -0.47 -0.00    +0.000 HD
DOCKED: ENDBRANCH  15  17
DOCKED: ENDBRANCH  11  14
DOCKED: ENDBRANCH   5  12
DOCKED: ENDBRANCH   4   8
DOCKED: ENDBRANCH   1   4
DOCKED: BRANCH   1  19
DOCKED: ATOM     19  C   UNL     1      30.969 -15.216   0.805 -0.12 -0.00    +0.000 C 
DOCKED: BRANCH  19  20
DOCKED: ATOM     20  C   UNL     1      31.307 -13.886   1.500 -0.08 -0.00    +0.000 C 
DOCKED: BRANCH  20  21
DOCKED: ATOM     21  C   UNL     1      30.791 -13.887   2.911 -0.15 -0.00    +0.000 A 
DOCKED: ATOM     22  C   UNL     1      31.531 -14.027   4.086 -0.18 -0.00    +0.000 A 
DOCKED: ATOM     23  N   UNL     1      30.713 -14.050   5.166 -0.27 -0.00    +0.000 N 
DOCKED: ATOM     24  C   UNL     1      29.464 -13.946   4.682 -0.34 -0.00    +0.000 A 
DOCKED: ATOM     25  C   UNL     1      29.469 -13.852   3.312 -0.23 -0.00    +0.000 A 
DOCKED: ATOM     26  C   UNL     1      28.287 -13.759   2.578 -0.26 -0.00    +0.000 A 
DOCKED: ATOM     27  C   UNL     1      27.072 -13.756   3.288 -0.33 -0.00    +0.000 A 
DOCKED: ATOM     28  C   UNL     1      27.065 -13.848   4.697 -0.34 -0.00    +0.000 A 
DOCKED: ATOM     29  C   UNL     1      28.274 -13.947   5.410 -0.41 -0.00    +0.000 A 
DOCKED: ATOM     30  C   UNL     1      33.020 -14.132   4.173 -0.07 -0.00    +0.000 C 
DOCKED: ATOM     31  H   UNL     1      30.980 -14.127   6.110 -0.05 -0.00    +0.000 HD
DOCKED: ENDBRANCH  20  21
DOCKED: ENDBRANCH  19  20
DOCKED: ENDBRANCH   1  19
DOCKED: TORSDOF 8
DOCKED: TER
DOCKED: ENDMDL
________________________________________________________________________________


	BEGINNING GENETIC ALGORITHM DOCKING 63 of 100
Run: 63 Seed: 65355045 2092554737 [ Run 63 of 100 GA/GALS ]
Beginning LAMARCKIAN GENETIC ALGORITHM (LGA), with a maximum of 2500000 energy evaluations.

Final-Value: -16.935


	FINAL GENETIC ALGORITHM DOCKED STATE
	_______________________________________________


Detailed state:  trans 28.559 -16.050 0.163 quatxyzw 0.200429 -0.843239 -0.456278 -0.201459 center 0.693 0.091 0.076 ntor 8 7.5610 162.8050 174.1375 -180.0000 -179.5386 -129.6761 -6.6931 30.1049
State:	 28.559 -16.050   0.163   0.205 -0.861 -0.466 -156.755      7.56  162.80  174.14 -180.00 -179.54 -129.68   -6.69   30.10

DOCKED: MODEL       63
DOCKED: USER    Run = 63
DOCKED: USER    DPF = ligand_dock.biased.dpf
DOCKED: USER  
DOCKED: USER    Estimated Free Energy of Binding    =  -12.45 kcal/mol  [=(1)+(2)+(3)-(4)]
DOCKED: USER    Estimated Inhibition Constant, Ki   =  745.99 pM (picomolar)  [Temperature = 298.15 K]
DOCKED: USER    
DOCKED: USER    (1) Final Intermolecular Energy     =  -14.84 kcal/mol
DOCKED: USER        vdW + Hbond + desolv Energy     =  -14.84 kcal/mol
DOCKED: USER        Electrostatic Energy            =   +0.00 kcal/mol
DOCKED: USER    (2) Final Total Internal Energy     =   -2.10 kcal/mol
DOCKED: USER    (3) Torsional Free Energy           =   +2.39 kcal/mol
DOCKED: USER    (4) Unbound System's Energy  [=(2)] =   -2.10 kcal/mol
DOCKED: USER    
DOCKED: USER    
DOCKED: USER    NEWDPF move ligand.pdbqt
DOCKED: USER    NEWDPF about 0.693000 0.091000 0.076000
DOCKED: USER    NEWDPF tran0 28.559101 -16.050368 0.162549
DOCKED: USER    NEWDPF quaternion0 0.200429 -0.843239 -0.456278 -0.201459
DOCKED: USER    NEWDPF axisangle0 0.204624 -0.860890 -0.465829 -156.755381
DOCKED: USER    NEWDPF quat0 0.204624 -0.860890 -0.465829 -156.755381
DOCKED: USER    NEWDPF dihe0 7.56 162.80 174.14 -180.00 -179.54 -129.68 -6.69 30.10 
DOCKED: USER  keepresnum = 1 
DOCKED: USER  
DOCKED: REMARK  Name = 
DOCKED: REMARK  9 active torsions:
DOCKED: REMARK  status: ('A' for Active; 'I' for Inactive)
DOCKED: REMARK    1  A    between atoms: C_2  and  C_3
DOCKED: REMARK    2  A    between atoms: C_4  and  C_5
DOCKED: REMARK    3  A    between atoms: C_8  and  C_9
DOCKED: REMARK    4  A    between atoms: C_9  and  N_10
DOCKED: REMARK    5  A    between atoms: N_10  and  C_11
DOCKED: REMARK    6  A    between atoms: C_11  and  C_12
DOCKED: REMARK    7  A    between atoms: C_12  and  C_13
DOCKED: REMARK    8  A    between atoms: C_14  and  C_22
DOCKED: REMARK    9  A    between atoms: N_25  and  O_26
DOCKED: REMARK                            x       y       z     vdW  Elec       q    Type
DOCKED: REMARK                         _______ _______ _______ _____ _____    ______ ____
DOCKED: USER                              x       y       z     vdW  Elec       q    Type
DOCKED: USER                           _______ _______ _______ _____ _____    ______ ____
DOCKED: ROOT
DOCKED: ATOM      1  N   UNL     1      29.350 -15.262   0.640 -0.15 -0.00    +0.000 N 
DOCKED: ATOM      2  H   UNL     1      29.621 -15.714   1.514 -1.06 -0.00    +0.000 HD
DOCKED: ATOM      3  H   UNL     1      28.474 -14.749   0.741 -0.12 -0.00    +0.000 HD
DOCKED: ENDROOT
DOCKED: BRANCH   1   4
DOCKED: ATOM      4  C   UNL     1      29.149 -16.296  -0.383 -0.23 -0.00    +0.000 C 
DOCKED: BRANCH   4   8
DOCKED: ATOM      5  C   UNL     1      24.895 -16.881  -0.894 -0.55 -0.00    +0.000 A 
DOCKED: ATOM      6  C   UNL     1      25.553 -15.811  -1.533 -0.45 -0.00    +0.000 A 
DOCKED: ATOM      7  C   UNL     1      26.928 -15.627  -1.370 -0.32 -0.00    +0.000 A 
DOCKED: ATOM      8  C   UNL     1      27.676 -16.518  -0.586 -0.35 -0.00    +0.000 A 
DOCKED: ATOM      9  C   UNL     1      27.026 -17.584   0.051 -0.38 -0.00    +0.000 A 
DOCKED: ATOM     10  C   UNL     1      25.650 -17.770  -0.111 -0.54 -0.00    +0.000 A 
DOCKED: BRANCH   5  12
DOCKED: ATOM     11  C   UNL     1      22.884 -18.344  -0.981 -0.82 -0.00    +0.000 C 
DOCKED: ATOM     12  C   UNL     1      23.439 -17.126  -1.047 -0.68 -0.00    +0.000 C 
DOCKED: BRANCH  11  14
DOCKED: ATOM     13  O   UNL     1      20.627 -17.725  -0.711 -2.25 -0.00    +0.000 OA
DOCKED: ATOM     14  C   UNL     1      21.437 -18.583  -1.153 -0.68 -0.00    +0.000 C 
DOCKED: ATOM     15  N   UNL     1      20.931 -19.739  -1.835 -0.69 -0.00    +0.000 N 
DOCKED: ATOM     16  H   UNL     1      21.552 -20.358  -2.279 -0.54 -0.00    +0.000 HD
DOCKED: BRANCH  15  17
DOCKED: ATOM     17  O   UNL     1      19.598 -19.980  -1.870 -1.56 -0.00    +0.000 OA
DOCKED: ATOM     18  H   UNL     1      19.122 -19.223  -1.494 -0.52 -0.00    +0.000 HD
DOCKED: ENDBRANCH  15  17
DOCKED: ENDBRANCH  11  14
DOCKED: ENDBRANCH   5  12
DOCKED: ENDBRANCH   4   8
DOCKED: ENDBRANCH   1   4
DOCKED: BRANCH   1  19
DOCKED: ATOM     19  C   UNL     1      30.394 -14.297   0.263 -0.09 -0.00    +0.000 C 
DOCKED: BRANCH  19  20
DOCKED: ATOM     20  C   UNL     1      30.248 -12.954   0.999 -0.06 -0.00    +0.000 C 
DOCKED: BRANCH  20  21
DOCKED: ATOM     21  C   UNL     1      29.135 -13.028   2.005 -0.13 -0.00    +0.000 A 
DOCKED: ATOM     22  C   UNL     1      27.780 -12.769   1.794 -0.21 -0.00    +0.000 A 
DOCKED: ATOM     23  N   UNL     1      27.087 -12.871   2.953 -0.34 -0.00    +0.000 N 
DOCKED: ATOM     24  C   UNL     1      27.994 -13.172   3.898 -0.36 -0.00    +0.000 A 
DOCKED: ATOM     25  C   UNL     1      29.254 -13.270   3.361 -0.20 -0.00    +0.000 A 
DOCKED: ATOM     26  C   UNL     1      30.369 -13.550   4.150 -0.21 -0.00    +0.000 A 
DOCKED: ATOM     27  C   UNL     1      30.165 -13.742   5.530 -0.28 -0.00    +0.000 A 
DOCKED: ATOM     28  C   UNL     1      28.868 -13.646   6.082 -0.36 -0.00    +0.000 A 
DOCKED: ATOM     29  C   UNL     1      27.763 -13.355   5.260 -0.45 -0.00    +0.000 A 
DOCKED: ATOM     30  C   UNL     1      27.150 -12.430   0.480 -0.24 -0.00    +0.000 C 
DOCKED: ATOM     31  H   UNL     1      26.118 -12.748   3.077 -0.00 +0.00    +0.000 HD
DOCKED: ENDBRANCH  20  21
DOCKED: ENDBRANCH  19  20
DOCKED: ENDBRANCH   1  19
DOCKED: TORSDOF 8
DOCKED: TER
DOCKED: ENDMDL
________________________________________________________________________________


	BEGINNING GENETIC ALGORITHM DOCKING 64 of 100
Run: 64 Seed: 1894317665 335116083 [ Run 64 of 100 GA/GALS ]
Beginning LAMARCKIAN GENETIC ALGORITHM (LGA), with a maximum of 2500000 energy evaluations.

Final-Value: -15.288


	FINAL GENETIC ALGORITHM DOCKED STATE
	_______________________________________________


Detailed state:  trans 28.760 -15.430 -1.513 quatxyzw 0.224302 0.829898 -0.356653 0.365727 center 0.693 0.091 0.076 ntor 8 20.2355 -179.6113 175.5831 -177.1427 -73.4823 -179.8764 -140.3821 63.5996
State:	 28.760 -15.430  -1.513   0.241  0.892 -0.383 137.095     20.24 -179.61  175.58 -177.14  -73.48 -179.88 -140.38   63.60

DOCKED: MODEL       64
DOCKED: USER    Run = 64
DOCKED: USER    DPF = ligand_dock.biased.dpf
DOCKED: USER  
DOCKED: USER    Estimated Free Energy of Binding    =  -11.25 kcal/mol  [=(1)+(2)+(3)-(4)]
DOCKED: USER    Estimated Inhibition Constant, Ki   =    5.63 nM (nanomolar)  [Temperature = 298.15 K]
DOCKED: USER    
DOCKED: USER    (1) Final Intermolecular Energy     =  -13.64 kcal/mol
DOCKED: USER        vdW + Hbond + desolv Energy     =  -13.64 kcal/mol
DOCKED: USER        Electrostatic Energy            =   +0.00 kcal/mol
DOCKED: USER    (2) Final Total Internal Energy     =   -1.65 kcal/mol
DOCKED: USER    (3) Torsional Free Energy           =   +2.39 kcal/mol
DOCKED: USER    (4) Unbound System's Energy  [=(2)] =   -1.65 kcal/mol
DOCKED: USER    
DOCKED: USER    
DOCKED: USER    NEWDPF move ligand.pdbqt
DOCKED: USER    NEWDPF about 0.693000 0.091000 0.076000
DOCKED: USER    NEWDPF tran0 28.760093 -15.430334 -1.512764
DOCKED: USER    NEWDPF quaternion0 0.224302 0.829898 -0.356653 0.365727
DOCKED: USER    NEWDPF axisangle0 0.240998 0.891671 -0.383200 137.095327
DOCKED: USER    NEWDPF quat0 0.240998 0.891671 -0.383200 137.095327
DOCKED: USER    NEWDPF dihe0 20.24 -179.61 175.58 -177.14 -73.48 -179.88 -140.38 63.60 
DOCKED: USER  keepresnum = 1 
DOCKED: USER  
DOCKED: REMARK  Name = 
DOCKED: REMARK  9 active torsions:
DOCKED: REMARK  status: ('A' for Active; 'I' for Inactive)
DOCKED: REMARK    1  A    between atoms: C_2  and  C_3
DOCKED: REMARK    2  A    between atoms: C_4  and  C_5
DOCKED: REMARK    3  A    between atoms: C_8  and  C_9
DOCKED: REMARK    4  A    between atoms: C_9  and  N_10
DOCKED: REMARK    5  A    between atoms: N_10  and  C_11
DOCKED: REMARK    6  A    between atoms: C_11  and  C_12
DOCKED: REMARK    7  A    between atoms: C_12  and  C_13
DOCKED: REMARK    8  A    between atoms: C_14  and  C_22
DOCKED: REMARK    9  A    between atoms: N_25  and  O_26
DOCKED: REMARK                            x       y       z     vdW  Elec       q    Type
DOCKED: REMARK                         _______ _______ _______ _____ _____    ______ ____
DOCKED: USER                              x       y       z     vdW  Elec       q    Type
DOCKED: USER                           _______ _______ _______ _____ _____    ______ ____
DOCKED: ROOT
DOCKED: ATOM      1  N   UNL     1      29.552 -15.577  -2.422 -0.13 -0.00    +0.000 N 
DOCKED: ATOM      2  H   UNL     1      30.197 -14.797  -2.289 +0.00 -0.00    +0.000 HD
DOCKED: ATOM      3  H   UNL     1      28.717 -15.288  -2.932 +0.00 -0.00    +0.000 HD
DOCKED: ENDROOT
DOCKED: BRANCH   1   4
DOCKED: ATOM      4  C   UNL     1      29.126 -16.067  -1.105 -0.23 -0.00    +0.000 C 
DOCKED: BRANCH   4   8
DOCKED: ATOM      5  C   UNL     1      24.862 -16.786  -1.071 -0.56 -0.00    +0.000 A 
DOCKED: ATOM      6  C   UNL     1      25.376 -15.545  -1.499 -0.36 -0.00    +0.000 A 
DOCKED: ATOM      7  C   UNL     1      26.755 -15.318  -1.514 -0.32 -0.00    +0.000 A 
DOCKED: ATOM      8  C   UNL     1      27.645 -16.328  -1.124 -0.34 -0.00    +0.000 A 
DOCKED: ATOM      9  C   UNL     1      27.139 -17.564  -0.698 -0.45 -0.00    +0.000 A 
DOCKED: ATOM     10  C   UNL     1      25.760 -17.794  -0.683 -0.59 -0.00    +0.000 A 
DOCKED: BRANCH   5  12
DOCKED: ATOM     11  C   UNL     1      22.901 -18.313  -1.194 -0.78 -0.00    +0.000 C 
DOCKED: ATOM     12  C   UNL     1      23.408 -17.080  -1.051 -0.66 -0.00    +0.000 C 
DOCKED: BRANCH  11  14
DOCKED: ATOM     13  O   UNL     1      20.669 -17.732  -0.715 -2.25 -0.00    +0.000 OA
DOCKED: ATOM     14  C   UNL     1      21.452 -18.597  -1.192 -0.64 -0.00    +0.000 C 
DOCKED: ATOM     15  N   UNL     1      20.910 -19.804  -1.745 -0.63 -0.00    +0.000 N 
DOCKED: ATOM     16  H   UNL     1      21.499 -20.434  -2.217 -0.52 -0.00    +0.000 HD
DOCKED: BRANCH  15  17
DOCKED: ATOM     17  O   UNL     1      19.589 -20.079  -1.619 -1.44 -0.00    +0.000 OA
DOCKED: ATOM     18  H   UNL     1      19.105 -19.259  -1.432 -0.50 -0.00    +0.000 HD
DOCKED: ENDBRANCH  15  17
DOCKED: ENDBRANCH  11  14
DOCKED: ENDBRANCH   5  12
DOCKED: ENDBRANCH   4   8
DOCKED: ENDBRANCH   1   4
DOCKED: BRANCH   1  19
DOCKED: ATOM     19  C   UNL     1      30.225 -16.617  -3.215 -0.19 -0.00    +0.000 C 
DOCKED: BRANCH  19  20
DOCKED: ATOM     20  C   UNL     1      29.353 -17.129  -4.374 -0.05 -0.00    +0.000 C 
DOCKED: BRANCH  20  21
DOCKED: ATOM     21  C   UNL     1      29.926 -16.694  -5.692 -0.30 -0.00    +0.000 A 
DOCKED: ATOM     22  C   UNL     1      29.723 -15.478  -6.347 -0.32 -0.00    +0.000 A 
DOCKED: ATOM     23  N   UNL     1      30.347 -15.472  -7.549 -0.29 -0.00    +0.000 N 
DOCKED: ATOM     24  C   UNL     1      30.924 -16.680  -7.669 -0.26 -0.00    +0.000 A 
DOCKED: ATOM     25  C   UNL     1      30.685 -17.455  -6.561 -0.31 -0.00    +0.000 A 
DOCKED: ATOM     26  C   UNL     1      31.163 -18.762  -6.462 -0.28 -0.00    +0.000 A 
DOCKED: ATOM     27  C   UNL     1      31.914 -19.269  -7.538 -0.19 -0.00    +0.000 A 
DOCKED: ATOM     28  C   UNL     1      32.165 -18.471  -8.676 -0.20 -0.00    +0.000 A 
DOCKED: ATOM     29  C   UNL     1      31.664 -17.158  -8.750 -0.21 -0.00    +0.000 A 
DOCKED: ATOM     30  C   UNL     1      28.938 -14.321  -5.816 -0.31 -0.00    +0.000 C 
DOCKED: ATOM     31  H   UNL     1      30.371 -14.735  -8.201 -0.35 -0.00    +0.000 HD
DOCKED: ENDBRANCH  20  21
DOCKED: ENDBRANCH  19  20
DOCKED: ENDBRANCH   1  19
DOCKED: TORSDOF 8
DOCKED: TER
DOCKED: ENDMDL
________________________________________________________________________________


	BEGINNING GENETIC ALGORITHM DOCKING 65 of 100
Run: 65 Seed: 838406111 921093084 [ Run 65 of 100 GA/GALS ]
Beginning LAMARCKIAN GENETIC ALGORITHM (LGA), with a maximum of 2500000 energy evaluations.

Final-Value: -14.934


	FINAL GENETIC ALGORITHM DOCKED STATE
	_______________________________________________


Detailed state:  trans 28.442 -16.527 -0.741 quatxyzw -0.595990 -0.179656 -0.753970 -0.209877 center 0.693 0.091 0.076 ntor 8 18.8877 -33.5901 -56.1782 -64.4850 -28.4311 -108.1928 -44.9041 -74.0045
State:	 28.442 -16.527  -0.741  -0.610 -0.184 -0.771 -155.770     18.89  -33.59  -56.18  -64.48  -28.43 -108.19  -44.90  -74.00

DOCKED: MODEL       65
DOCKED: USER    Run = 65
DOCKED: USER    DPF = ligand_dock.biased.dpf
DOCKED: USER  
DOCKED: USER    Estimated Free Energy of Binding    =  -11.42 kcal/mol  [=(1)+(2)+(3)-(4)]
DOCKED: USER    Estimated Inhibition Constant, Ki   =    4.23 nM (nanomolar)  [Temperature = 298.15 K]
DOCKED: USER    
DOCKED: USER    (1) Final Intermolecular Energy     =  -13.81 kcal/mol
DOCKED: USER        vdW + Hbond + desolv Energy     =  -13.81 kcal/mol
DOCKED: USER        Electrostatic Energy            =   +0.00 kcal/mol
DOCKED: USER    (2) Final Total Internal Energy     =   -1.12 kcal/mol
DOCKED: USER    (3) Torsional Free Energy           =   +2.39 kcal/mol
DOCKED: USER    (4) Unbound System's Energy  [=(2)] =   -1.12 kcal/mol
DOCKED: USER    
DOCKED: USER    
DOCKED: USER    NEWDPF move ligand.pdbqt
DOCKED: USER    NEWDPF about 0.693000 0.091000 0.076000
DOCKED: USER    NEWDPF tran0 28.442040 -16.526957 -0.740636
DOCKED: USER    NEWDPF quaternion0 -0.595990 -0.179656 -0.753970 -0.209877
DOCKED: USER    NEWDPF axisangle0 -0.609567 -0.183748 -0.771145 -155.769766
DOCKED: USER    NEWDPF quat0 -0.609567 -0.183748 -0.771145 -155.769766
DOCKED: USER    NEWDPF dihe0 18.89 -33.59 -56.18 -64.48 -28.43 -108.19 -44.90 -74.00 
DOCKED: USER  keepresnum = 1 
DOCKED: USER  
DOCKED: REMARK  Name = 
DOCKED: REMARK  9 active torsions:
DOCKED: REMARK  status: ('A' for Active; 'I' for Inactive)
DOCKED: REMARK    1  A    between atoms: C_2  and  C_3
DOCKED: REMARK    2  A    between atoms: C_4  and  C_5
DOCKED: REMARK    3  A    between atoms: C_8  and  C_9
DOCKED: REMARK    4  A    between atoms: C_9  and  N_10
DOCKED: REMARK    5  A    between atoms: N_10  and  C_11
DOCKED: REMARK    6  A    between atoms: C_11  and  C_12
DOCKED: REMARK    7  A    between atoms: C_12  and  C_13
DOCKED: REMARK    8  A    between atoms: C_14  and  C_22
DOCKED: REMARK    9  A    between atoms: N_25  and  O_26
DOCKED: REMARK                            x       y       z     vdW  Elec       q    Type
DOCKED: REMARK                         _______ _______ _______ _____ _____    ______ ____
DOCKED: USER                              x       y       z     vdW  Elec       q    Type
DOCKED: USER                           _______ _______ _______ _____ _____    ______ ____
DOCKED: ROOT
DOCKED: ATOM      1  N   UNL     1      28.914 -17.059  -1.725 -0.28 -0.00    +0.000 N 
DOCKED: ATOM      2  H   UNL     1      28.402 -17.940  -1.774 -0.03 -0.00    +0.000 HD
DOCKED: ATOM      3  H   UNL     1      29.697 -17.118  -1.074 -0.02 -0.00    +0.000 HD
DOCKED: ENDROOT
DOCKED: BRANCH   1   4
DOCKED: ATOM      4  C   UNL     1      28.006 -16.012  -1.241 -0.31 -0.00    +0.000 C 
DOCKED: BRANCH   4   8
DOCKED: ATOM      5  C   UNL     1      24.087 -17.745  -0.661 -0.68 -0.00    +0.000 A 
DOCKED: ATOM      6  C   UNL     1      25.244 -18.432  -0.240 -0.56 -0.00    +0.000 A 
DOCKED: ATOM      7  C   UNL     1      26.509 -17.867  -0.423 -0.54 -0.00    +0.000 A 
DOCKED: ATOM      8  C   UNL     1      26.642 -16.600  -1.010 -0.43 -0.00    +0.000 A 
DOCKED: ATOM      9  C   UNL     1      25.494 -15.914  -1.431 -0.46 -0.00    +0.000 A 
DOCKED: ATOM     10  C   UNL     1      24.228 -16.477  -1.247 -0.38 -0.00    +0.000 A 
DOCKED: BRANCH   5  12
DOCKED: ATOM     11  C   UNL     1      22.182 -19.219  -1.283 -0.70 -0.00    +0.000 C 
DOCKED: ATOM     12  C   UNL     1      22.722 -18.297  -0.475 -0.83 -0.00    +0.000 C 
DOCKED: BRANCH  11  14
DOCKED: ATOM     13  O   UNL     1      20.029 -19.734  -2.089 -1.88 -0.00    +0.000 OA
DOCKED: ATOM     14  C   UNL     1      20.815 -19.751  -1.104 -0.77 -0.00    +0.000 C 
DOCKED: ATOM     15  N   UNL     1      20.372 -20.313   0.138 -0.69 -0.00    +0.000 N 
DOCKED: ATOM     16  H   UNL     1      21.009 -20.431   0.878 -0.57 -0.00    +0.000 HD
DOCKED: BRANCH  15  17
DOCKED: ATOM     17  O   UNL     1      19.078 -20.682   0.296 -0.79 -0.00    +0.000 OA
DOCKED: ATOM     18  H   UNL     1      18.663 -20.786  -0.575 -0.35 -0.00    +0.000 HD
DOCKED: ENDBRANCH  15  17
DOCKED: ENDBRANCH  11  14
DOCKED: ENDBRANCH   5  12
DOCKED: ENDBRANCH   4   8
DOCKED: ENDBRANCH   1   4
DOCKED: BRANCH   1  19
DOCKED: ATOM     19  C   UNL     1      29.460 -16.755  -3.057 -0.24 -0.00    +0.000 C 
DOCKED: BRANCH  19  20
DOCKED: ATOM     20  C   UNL     1      30.431 -17.838  -3.556 -0.19 -0.00    +0.000 C 
DOCKED: BRANCH  20  21
DOCKED: ATOM     21  C   UNL     1      30.505 -17.822  -5.056 -0.27 -0.00    +0.000 A 
DOCKED: ATOM     22  C   UNL     1      30.294 -16.735  -5.906 -0.29 -0.00    +0.000 A 
DOCKED: ATOM     23  N   UNL     1      30.377 -17.117  -7.202 -0.34 -0.00    +0.000 N 
DOCKED: ATOM     24  C   UNL     1      30.619 -18.439  -7.180 -0.31 -0.00    +0.000 A 
DOCKED: ATOM     25  C   UNL     1      30.696 -18.907  -5.891 -0.33 -0.00    +0.000 A 
DOCKED: ATOM     26  C   UNL     1      30.916 -20.255  -5.611 -0.32 -0.00    +0.000 A 
DOCKED: ATOM     27  C   UNL     1      31.067 -21.135  -6.699 -0.30 -0.00    +0.000 A 
DOCKED: ATOM     28  C   UNL     1      30.991 -20.655  -8.025 -0.28 -0.00    +0.000 A 
DOCKED: ATOM     29  C   UNL     1      30.763 -19.289  -8.276 -0.36 -0.00    +0.000 A 
DOCKED: ATOM     30  C   UNL     1      30.019 -15.330  -5.474 -0.25 -0.00    +0.000 C 
DOCKED: ATOM     31  H   UNL     1      30.280 -16.545  -7.997 -0.04 -0.00    +0.000 HD
DOCKED: ENDBRANCH  20  21
DOCKED: ENDBRANCH  19  20
DOCKED: ENDBRANCH   1  19
DOCKED: TORSDOF 8
DOCKED: TER
DOCKED: ENDMDL
________________________________________________________________________________


	BEGINNING GENETIC ALGORITHM DOCKING 66 of 100
Run: 66 Seed: 1370924698 1411046815 [ Run 66 of 100 GA/GALS ]
Beginning LAMARCKIAN GENETIC ALGORITHM (LGA), with a maximum of 2500000 energy evaluations.

Final-Value: -15.531


	FINAL GENETIC ALGORITHM DOCKED STATE
	_______________________________________________


Detailed state:  trans 27.905 -16.212 0.542 quatxyzw -0.456209 0.541087 0.535380 0.460941 center 0.693 0.091 0.076 ntor 8 7.4596 -166.4097 77.0347 153.5944 38.4468 147.2280 -168.1352 57.7289
State:	 27.905 -16.212   0.542  -0.514  0.610  0.603 125.104      7.46 -166.41   77.03  153.59   38.45  147.23 -168.14   57.73

DOCKED: MODEL       66
DOCKED: USER    Run = 66
DOCKED: USER    DPF = ligand_dock.biased.dpf
DOCKED: USER  
DOCKED: USER    Estimated Free Energy of Binding    =  -11.10 kcal/mol  [=(1)+(2)+(3)-(4)]
DOCKED: USER    Estimated Inhibition Constant, Ki   =    7.31 nM (nanomolar)  [Temperature = 298.15 K]
DOCKED: USER    
DOCKED: USER    (1) Final Intermolecular Energy     =  -13.49 kcal/mol
DOCKED: USER        vdW + Hbond + desolv Energy     =  -13.49 kcal/mol
DOCKED: USER        Electrostatic Energy            =   +0.00 kcal/mol
DOCKED: USER    (2) Final Total Internal Energy     =   -2.05 kcal/mol
DOCKED: USER    (3) Torsional Free Energy           =   +2.39 kcal/mol
DOCKED: USER    (4) Unbound System's Energy  [=(2)] =   -2.05 kcal/mol
DOCKED: USER    
DOCKED: USER    
DOCKED: USER    NEWDPF move ligand.pdbqt
DOCKED: USER    NEWDPF about 0.693000 0.091000 0.076000
DOCKED: USER    NEWDPF tran0 27.904577 -16.212037 0.542029
DOCKED: USER    NEWDPF quaternion0 -0.456209 0.541087 0.535380 0.460941
DOCKED: USER    NEWDPF axisangle0 -0.514078 0.609723 0.603292 125.104373
DOCKED: USER    NEWDPF quat0 -0.514078 0.609723 0.603292 125.104373
DOCKED: USER    NEWDPF dihe0 7.46 -166.41 77.03 153.59 38.45 147.23 -168.14 57.73 
DOCKED: USER  keepresnum = 1 
DOCKED: USER  
DOCKED: REMARK  Name = 
DOCKED: REMARK  9 active torsions:
DOCKED: REMARK  status: ('A' for Active; 'I' for Inactive)
DOCKED: REMARK    1  A    between atoms: C_2  and  C_3
DOCKED: REMARK    2  A    between atoms: C_4  and  C_5
DOCKED: REMARK    3  A    between atoms: C_8  and  C_9
DOCKED: REMARK    4  A    between atoms: C_9  and  N_10
DOCKED: REMARK    5  A    between atoms: N_10  and  C_11
DOCKED: REMARK    6  A    between atoms: C_11  and  C_12
DOCKED: REMARK    7  A    between atoms: C_12  and  C_13
DOCKED: REMARK    8  A    between atoms: C_14  and  C_22
DOCKED: REMARK    9  A    between atoms: N_25  and  O_26
DOCKED: REMARK                            x       y       z     vdW  Elec       q    Type
DOCKED: REMARK                         _______ _______ _______ _____ _____    ______ ____
DOCKED: USER                              x       y       z     vdW  Elec       q    Type
DOCKED: USER                           _______ _______ _______ _____ _____    ______ ____
DOCKED: ROOT
DOCKED: ATOM      1  N   UNL     1      28.172 -15.235   1.213 -0.14 -0.00    +0.000 N 
DOCKED: ATOM      2  H   UNL     1      29.029 -15.516   1.690 -1.35 -0.00    +0.000 HD
DOCKED: ATOM      3  H   UNL     1      27.345 -15.586   1.695 -0.31 -0.00    +0.000 HD
DOCKED: ENDROOT
DOCKED: BRANCH   1   4
DOCKED: ATOM      4  C   UNL     1      28.177 -15.805  -0.140 -0.28 -0.00    +0.000 C 
DOCKED: BRANCH   4   8
DOCKED: ATOM      5  C   UNL     1      24.433 -17.804  -0.967 -0.67 -0.00    +0.000 A 
DOCKED: ATOM      6  C   UNL     1      25.434 -18.444  -0.209 -0.55 -0.00    +0.000 A 
DOCKED: ATOM      7  C   UNL     1      26.641 -17.793   0.061 -0.49 -0.00    +0.000 A 
DOCKED: ATOM      8  C   UNL     1      26.863 -16.488  -0.400 -0.41 -0.00    +0.000 A 
DOCKED: ATOM      9  C   UNL     1      25.869 -15.848  -1.154 -0.43 -0.00    +0.000 A 
DOCKED: ATOM     10  C   UNL     1      24.661 -16.497  -1.425 -0.51 -0.00    +0.000 A 
DOCKED: BRANCH   5  12
DOCKED: ATOM     11  C   UNL     1      22.329 -18.969  -0.329 -0.80 -0.00    +0.000 C 
DOCKED: ATOM     12  C   UNL     1      23.130 -18.448  -1.268 -0.79 -0.00    +0.000 C 
DOCKED: BRANCH  11  14
DOCKED: ATOM     13  O   UNL     1      20.632 -19.619  -1.828 -1.59 -0.00    +0.000 OA
DOCKED: ATOM     14  C   UNL     1      21.041 -19.625  -0.637 -0.80 -0.00    +0.000 C 
DOCKED: ATOM     15  N   UNL     1      20.267 -20.294   0.367 -0.70 -0.00    +0.000 N 
DOCKED: ATOM     16  H   UNL     1      20.629 -20.401   1.276 -0.47 -0.00    +0.000 HD
DOCKED: BRANCH  15  17
DOCKED: ATOM     17  O   UNL     1      19.039 -20.782   0.068 -0.75 -0.00    +0.000 OA
DOCKED: ATOM     18  H   UNL     1      18.883 -20.702  -0.886 -0.46 -0.00    +0.000 HD
DOCKED: ENDBRANCH  15  17
DOCKED: ENDBRANCH  11  14
DOCKED: ENDBRANCH   5  12
DOCKED: ENDBRANCH   4   8
DOCKED: ENDBRANCH   1   4
DOCKED: BRANCH   1  19
DOCKED: ATOM     19  C   UNL     1      28.096 -13.766   1.201 -0.24 -0.00    +0.000 C 
DOCKED: BRANCH  19  20
DOCKED: ATOM     20  C   UNL     1      26.692 -13.253   0.840 -0.33 -0.00    +0.000 C 
DOCKED: BRANCH  20  21
DOCKED: ATOM     21  C   UNL     1      26.788 -12.101  -0.120 -0.13 -0.00    +0.000 A 
DOCKED: ATOM     22  C   UNL     1      26.426 -10.772   0.109 -0.16 +0.00    +0.000 A 
DOCKED: ATOM     23  N   UNL     1      26.590 -10.032  -1.013 -0.15 +0.00    +0.000 N 
DOCKED: ATOM     24  C   UNL     1      27.032 -10.883  -1.953 -0.06 -0.00    +0.000 A 
DOCKED: ATOM     25  C   UNL     1      27.160 -12.155  -1.450 -0.06 -0.00    +0.000 A 
DOCKED: ATOM     26  C   UNL     1      27.580 -13.221  -2.245 -0.14 -0.00    +0.000 A 
DOCKED: ATOM     27  C   UNL     1      27.884 -12.954  -3.593 -0.14 -0.00    +0.000 A 
DOCKED: ATOM     28  C   UNL     1      27.758 -11.646  -4.110 -0.11 -0.00    +0.000 A 
DOCKED: ATOM     29  C   UNL     1      27.325 -10.592  -3.285 -0.10 -0.00    +0.000 A 
DOCKED: ATOM     30  C   UNL     1      25.930 -10.214   1.405 -0.38 +0.00    +0.000 C 
DOCKED: ATOM     31  H   UNL     1      26.418  -9.068  -1.117 -0.01 +0.00    +0.000 HD
DOCKED: ENDBRANCH  20  21
DOCKED: ENDBRANCH  19  20
DOCKED: ENDBRANCH   1  19
DOCKED: TORSDOF 8
DOCKED: TER
DOCKED: ENDMDL
________________________________________________________________________________


	BEGINNING GENETIC ALGORITHM DOCKING 67 of 100
Run: 67 Seed: 1640334440 34784934 [ Run 67 of 100 GA/GALS ]
Beginning LAMARCKIAN GENETIC ALGORITHM (LGA), with a maximum of 2500000 energy evaluations.

Final-Value: -15.426


	FINAL GENETIC ALGORITHM DOCKED STATE
	_______________________________________________


Detailed state:  trans 28.952 -15.224 -0.792 quatxyzw -0.270677 -0.822264 0.202058 -0.458026 center 0.693 0.091 0.076 ntor 8 21.8238 161.0931 -124.0611 158.6801 -46.4800 171.7868 -170.6344 80.6292
State:	 28.952 -15.224  -0.792  -0.304 -0.925  0.227 -125.480     21.82  161.09 -124.06  158.68  -46.48  171.79 -170.63   80.63

DOCKED: MODEL       67
DOCKED: USER    Run = 67
DOCKED: USER    DPF = ligand_dock.biased.dpf
DOCKED: USER  
DOCKED: USER    Estimated Free Energy of Binding    =  -11.38 kcal/mol  [=(1)+(2)+(3)-(4)]
DOCKED: USER    Estimated Inhibition Constant, Ki   =    4.59 nM (nanomolar)  [Temperature = 298.15 K]
DOCKED: USER    
DOCKED: USER    (1) Final Intermolecular Energy     =  -13.76 kcal/mol
DOCKED: USER        vdW + Hbond + desolv Energy     =  -13.76 kcal/mol
DOCKED: USER        Electrostatic Energy            =   +0.00 kcal/mol
DOCKED: USER    (2) Final Total Internal Energy     =   -1.66 kcal/mol
DOCKED: USER    (3) Torsional Free Energy           =   +2.39 kcal/mol
DOCKED: USER    (4) Unbound System's Energy  [=(2)] =   -1.66 kcal/mol
DOCKED: USER    
DOCKED: USER    
DOCKED: USER    NEWDPF move ligand.pdbqt
DOCKED: USER    NEWDPF about 0.693000 0.091000 0.076000
DOCKED: USER    NEWDPF tran0 28.951695 -15.224340 -0.791595
DOCKED: USER    NEWDPF quaternion0 -0.270677 -0.822264 0.202058 -0.458026
DOCKED: USER    NEWDPF axisangle0 -0.304495 -0.924995 0.227303 -125.480376
DOCKED: USER    NEWDPF quat0 -0.304495 -0.924995 0.227303 -125.480376
DOCKED: USER    NEWDPF dihe0 21.82 161.09 -124.06 158.68 -46.48 171.79 -170.63 80.63 
DOCKED: USER  keepresnum = 1 
DOCKED: USER  
DOCKED: REMARK  Name = 
DOCKED: REMARK  9 active torsions:
DOCKED: REMARK  status: ('A' for Active; 'I' for Inactive)
DOCKED: REMARK    1  A    between atoms: C_2  and  C_3
DOCKED: REMARK    2  A    between atoms: C_4  and  C_5
DOCKED: REMARK    3  A    between atoms: C_8  and  C_9
DOCKED: REMARK    4  A    between atoms: C_9  and  N_10
DOCKED: REMARK    5  A    between atoms: N_10  and  C_11
DOCKED: REMARK    6  A    between atoms: C_11  and  C_12
DOCKED: REMARK    7  A    between atoms: C_12  and  C_13
DOCKED: REMARK    8  A    between atoms: C_14  and  C_22
DOCKED: REMARK    9  A    between atoms: N_25  and  O_26
DOCKED: REMARK                            x       y       z     vdW  Elec       q    Type
DOCKED: REMARK                         _______ _______ _______ _____ _____    ______ ____
DOCKED: USER                              x       y       z     vdW  Elec       q    Type
DOCKED: USER                           _______ _______ _______ _____ _____    ______ ____
DOCKED: ROOT
DOCKED: ATOM      1  N   UNL     1      29.658 -15.320  -1.776 -0.10 -0.00    +0.000 N 
DOCKED: ATOM      2  H   UNL     1      30.487 -14.787  -1.512 +0.00 -0.00    +0.000 HD
DOCKED: ATOM      3  H   UNL     1      28.917 -14.710  -2.122 +0.01 -0.00    +0.000 HD
DOCKED: ENDROOT
DOCKED: BRANCH   1   4
DOCKED: ATOM      4  C   UNL     1      29.147 -16.015  -0.588 -0.22 -0.00    +0.000 C 
DOCKED: BRANCH   4   8
DOCKED: ATOM      5  C   UNL     1      24.897 -16.730  -0.949 -0.54 -0.00    +0.000 A 
DOCKED: ATOM      6  C   UNL     1      25.379 -15.483  -0.502 -0.01 -0.00    +0.000 A 
DOCKED: ATOM      7  C   UNL     1      26.752 -15.253  -0.392 -0.31 -0.00    +0.000 A 
DOCKED: ATOM      8  C   UNL     1      27.670 -16.253  -0.744 -0.33 -0.00    +0.000 A 
DOCKED: ATOM      9  C   UNL     1      27.196 -17.495  -1.188 -0.36 -0.00    +0.000 A 
DOCKED: ATOM     10  C   UNL     1      25.822 -17.727  -1.301 -0.47 -0.00    +0.000 A 
DOCKED: BRANCH   5  12
DOCKED: ATOM     11  C   UNL     1      22.914 -18.232  -0.907 -0.83 -0.00    +0.000 C 
DOCKED: ATOM     12  C   UNL     1      23.449 -17.018  -1.096 -0.62 -0.00    +0.000 C 
DOCKED: BRANCH  11  14
DOCKED: ATOM     13  O   UNL     1      20.641 -17.644  -0.708 -2.20 +0.00    +0.000 OA
DOCKED: ATOM     14  C   UNL     1      21.474 -18.516  -1.074 -0.77 -0.00    +0.000 C 
DOCKED: ATOM     15  N   UNL     1      21.000 -19.731  -1.668 -0.71 -0.00    +0.000 N 
DOCKED: ATOM     16  H   UNL     1      21.639 -20.369  -2.057 -0.49 -0.00    +0.000 HD
DOCKED: BRANCH  15  17
DOCKED: ATOM     17  O   UNL     1      19.673 -20.004  -1.697 -1.57 -0.00    +0.000 OA
DOCKED: ATOM     18  H   UNL     1      19.171 -19.179  -1.607 -0.51 -0.00    +0.000 HD
DOCKED: ENDBRANCH  15  17
DOCKED: ENDBRANCH  11  14
DOCKED: ENDBRANCH   5  12
DOCKED: ENDBRANCH   4   8
DOCKED: ENDBRANCH   1   4
DOCKED: BRANCH   1  19
DOCKED: ATOM     19  C   UNL     1      30.017 -16.249  -2.858 -0.18 -0.00    +0.000 C 
DOCKED: BRANCH  19  20
DOCKED: ATOM     20  C   UNL     1      28.916 -16.361  -3.926 -0.25 -0.00    +0.000 C 
DOCKED: BRANCH  20  21
DOCKED: ATOM     21  C   UNL     1      29.522 -16.373  -5.301 -0.29 -0.00    +0.000 A 
DOCKED: ATOM     22  C   UNL     1      29.466 -15.362  -6.262 -0.33 -0.00    +0.000 A 
DOCKED: ATOM     23  N   UNL     1      30.069 -15.759  -7.409 -0.27 -0.00    +0.000 N 
DOCKED: ATOM     24  C   UNL     1      30.486 -17.017  -7.187 -0.25 -0.00    +0.000 A 
DOCKED: ATOM     25  C   UNL     1      30.166 -17.429  -5.917 -0.30 -0.00    +0.000 A 
DOCKED: ATOM     26  C   UNL     1      30.475 -18.710  -5.461 -0.32 -0.00    +0.000 A 
DOCKED: ATOM     27  C   UNL     1      31.141 -19.579  -6.345 -0.30 -0.00    +0.000 A 
DOCKED: ATOM     28  C   UNL     1      31.475 -19.155  -7.650 -0.27 -0.00    +0.000 A 
DOCKED: ATOM     29  C   UNL     1      31.144 -17.858  -8.084 -0.31 -0.00    +0.000 A 
DOCKED: ATOM     30  C   UNL     1      28.842 -14.016  -6.079 -0.31 -0.00    +0.000 C 
DOCKED: ATOM     31  H   UNL     1      30.177 -15.234  -8.234 -0.36 -0.00    +0.000 HD
DOCKED: ENDBRANCH  20  21
DOCKED: ENDBRANCH  19  20
DOCKED: ENDBRANCH   1  19
DOCKED: TORSDOF 8
DOCKED: TER
DOCKED: ENDMDL
________________________________________________________________________________


	BEGINNING GENETIC ALGORITHM DOCKING 68 of 100
Run: 68 Seed: 1432565289 1276777691 [ Run 68 of 100 GA/GALS ]
Beginning LAMARCKIAN GENETIC ALGORITHM (LGA), with a maximum of 2500000 energy evaluations.

Final-Value: -16.221


	FINAL GENETIC ALGORITHM DOCKED STATE
	_______________________________________________


Detailed state:  trans 28.869 -16.750 -0.477 quatxyzw 0.160864 -0.714864 -0.667236 -0.133747 center 0.693 0.091 0.076 ntor 8 -7.9420 169.3013 169.6351 173.8595 -168.7447 -177.7891 34.8882 20.1630
State:	 28.869 -16.750  -0.477   0.162 -0.721 -0.673 -164.628     -7.94  169.30  169.64  173.86 -168.74 -177.79   34.89   20.16

DOCKED: MODEL       68
DOCKED: USER    Run = 68
DOCKED: USER    DPF = ligand_dock.biased.dpf
DOCKED: USER  
DOCKED: USER    Estimated Free Energy of Binding    =  -11.76 kcal/mol  [=(1)+(2)+(3)-(4)]
DOCKED: USER    Estimated Inhibition Constant, Ki   =    2.39 nM (nanomolar)  [Temperature = 298.15 K]
DOCKED: USER    
DOCKED: USER    (1) Final Intermolecular Energy     =  -14.15 kcal/mol
DOCKED: USER        vdW + Hbond + desolv Energy     =  -14.15 kcal/mol
DOCKED: USER        Electrostatic Energy            =   +0.00 kcal/mol
DOCKED: USER    (2) Final Total Internal Energy     =   -2.07 kcal/mol
DOCKED: USER    (3) Torsional Free Energy           =   +2.39 kcal/mol
DOCKED: USER    (4) Unbound System's Energy  [=(2)] =   -2.07 kcal/mol
DOCKED: USER    
DOCKED: USER    
DOCKED: USER    NEWDPF move ligand.pdbqt
DOCKED: USER    NEWDPF about 0.693000 0.091000 0.076000
DOCKED: USER    NEWDPF tran0 28.869282 -16.750204 -0.477188
DOCKED: USER    NEWDPF quaternion0 0.160864 -0.714864 -0.667236 -0.133747
DOCKED: USER    NEWDPF axisangle0 0.162322 -0.721345 -0.673285 -164.627651
DOCKED: USER    NEWDPF quat0 0.162322 -0.721345 -0.673285 -164.627651
DOCKED: USER    NEWDPF dihe0 -7.94 169.30 169.64 173.86 -168.74 -177.79 34.89 20.16 
DOCKED: USER  keepresnum = 1 
DOCKED: USER  
DOCKED: REMARK  Name = 
DOCKED: REMARK  9 active torsions:
DOCKED: REMARK  status: ('A' for Active; 'I' for Inactive)
DOCKED: REMARK    1  A    between atoms: C_2  and  C_3
DOCKED: REMARK    2  A    between atoms: C_4  and  C_5
DOCKED: REMARK    3  A    between atoms: C_8  and  C_9
DOCKED: REMARK    4  A    between atoms: C_9  and  N_10
DOCKED: REMARK    5  A    between atoms: N_10  and  C_11
DOCKED: REMARK    6  A    between atoms: C_11  and  C_12
DOCKED: REMARK    7  A    between atoms: C_12  and  C_13
DOCKED: REMARK    8  A    between atoms: C_14  and  C_22
DOCKED: REMARK    9  A    between atoms: N_25  and  O_26
DOCKED: REMARK                            x       y       z     vdW  Elec       q    Type
DOCKED: REMARK                         _______ _______ _______ _____ _____    ______ ____
DOCKED: USER                              x       y       z     vdW  Elec       q    Type
DOCKED: USER                           _______ _______ _______ _____ _____    ______ ____
DOCKED: ROOT
DOCKED: ATOM      1  N   UNL     1      29.791 -16.403   0.233 -0.07 -0.00    +0.000 N 
DOCKED: ATOM      2  H   UNL     1      29.996 -17.247   0.768 -0.43 -0.00    +0.000 HD
DOCKED: ATOM      3  H   UNL     1      29.017 -15.880   0.643 -0.49 -0.00    +0.000 HD
DOCKED: ENDROOT
DOCKED: BRANCH   1   4
DOCKED: ATOM      4  C   UNL     1      29.399 -16.790  -1.128 -0.26 -0.00    +0.000 C 
DOCKED: BRANCH   4   8
DOCKED: ATOM      5  C   UNL     1      25.087 -17.076  -1.276 -0.58 -0.00    +0.000 A 
DOCKED: ATOM      6  C   UNL     1      25.778 -16.209  -2.146 -0.48 -0.00    +0.000 A 
DOCKED: ATOM      7  C   UNL     1      27.172 -16.123  -2.100 -0.33 -0.00    +0.000 A 
DOCKED: ATOM      8  C   UNL     1      27.902 -16.913  -1.201 -0.35 -0.00    +0.000 A 
DOCKED: ATOM      9  C   UNL     1      27.220 -17.777  -0.333 -0.39 -0.00    +0.000 A 
DOCKED: ATOM     10  C   UNL     1      25.825 -17.866  -0.379 -0.60 -0.00    +0.000 A 
DOCKED: BRANCH   5  12
DOCKED: ATOM     11  C   UNL     1      22.971 -18.365  -1.048 -0.82 -0.00    +0.000 C 
DOCKED: ATOM     12  C   UNL     1      23.609 -17.214  -1.296 -0.65 -0.00    +0.000 C 
DOCKED: BRANCH  11  14
DOCKED: ATOM     13  O   UNL     1      20.795 -17.493  -0.814 -2.07 -0.00    +0.000 OA
DOCKED: ATOM     14  C   UNL     1      21.500 -18.500  -1.089 -0.75 -0.00    +0.000 C 
DOCKED: ATOM     15  N   UNL     1      20.857 -19.725  -1.464 -0.78 -0.00    +0.000 N 
DOCKED: ATOM     16  H   UNL     1      21.395 -20.483  -1.786 -0.39 -0.00    +0.000 HD
DOCKED: BRANCH  15  17
DOCKED: ATOM     17  O   UNL     1      19.510 -19.842  -1.376 -1.46 -0.00    +0.000 OA
DOCKED: ATOM     18  H   UNL     1      19.146 -19.062  -0.929 -0.28 -0.00    +0.000 HD
DOCKED: ENDBRANCH  15  17
DOCKED: ENDBRANCH  11  14
DOCKED: ENDBRANCH   5  12
DOCKED: ENDBRANCH   4   8
DOCKED: ENDBRANCH   1   4
DOCKED: BRANCH   1  19
DOCKED: ATOM     19  C   UNL     1      30.978 -15.534   0.248 -0.12 -0.00    +0.000 C 
DOCKED: BRANCH  19  20
DOCKED: ATOM     20  C   UNL     1      30.643 -14.087   0.645 -0.08 -0.00    +0.000 C 
DOCKED: BRANCH  20  21
DOCKED: ATOM     21  C   UNL     1      29.282 -14.020   1.277 -0.14 -0.00    +0.000 A 
DOCKED: ATOM     22  C   UNL     1      28.067 -13.740   0.649 -0.18 -0.00    +0.000 A 
DOCKED: ATOM     23  N   UNL     1      27.059 -13.699   1.553 -0.31 -0.00    +0.000 N 
DOCKED: ATOM     24  C   UNL     1      27.629 -13.928   2.748 -0.31 -0.00    +0.000 A 
DOCKED: ATOM     25  C   UNL     1      28.983 -14.122   2.622 -0.22 -0.00    +0.000 A 
DOCKED: ATOM     26  C   UNL     1      29.798 -14.355   3.730 -0.29 -0.00    +0.000 A 
DOCKED: ATOM     27  C   UNL     1      29.187 -14.395   4.997 -0.34 -0.00    +0.000 A 
DOCKED: ATOM     28  C   UNL     1      27.794 -14.200   5.127 -0.40 -0.00    +0.000 A 
DOCKED: ATOM     29  C   UNL     1      26.999 -13.961   3.992 -0.37 -0.00    +0.000 A 
DOCKED: ATOM     30  C   UNL     1      27.872 -13.521  -0.817 -0.16 -0.00    +0.000 C 
DOCKED: ATOM     31  H   UNL     1      26.106 -13.532   1.372 -0.02 -0.00    +0.000 HD
DOCKED: ENDBRANCH  20  21
DOCKED: ENDBRANCH  19  20
DOCKED: ENDBRANCH   1  19
DOCKED: TORSDOF 8
DOCKED: TER
DOCKED: ENDMDL
________________________________________________________________________________


	BEGINNING GENETIC ALGORITHM DOCKING 69 of 100
Run: 69 Seed: 1154984366 1061470017 [ Run 69 of 100 GA/GALS ]
Beginning LAMARCKIAN GENETIC ALGORITHM (LGA), with a maximum of 2500000 energy evaluations.

Final-Value: -15.880


	FINAL GENETIC ALGORITHM DOCKED STATE
	_______________________________________________


Detailed state:  trans 29.228 -16.627 0.024 quatxyzw 0.444335 0.316036 0.835764 -0.064699 center 0.693 0.091 0.076 ntor 8 11.7433 151.3955 174.4940 167.5393 -154.1353 -178.3643 123.9579 -68.7892
State:	 29.228 -16.627   0.024   0.445  0.317  0.838 -172.581     11.74  151.40  174.49  167.54 -154.14 -178.36  123.96  -68.79

DOCKED: MODEL       69
DOCKED: USER    Run = 69
DOCKED: USER    DPF = ligand_dock.biased.dpf
DOCKED: USER  
DOCKED: USER    Estimated Free Energy of Binding    =  -11.83 kcal/mol  [=(1)+(2)+(3)-(4)]
DOCKED: USER    Estimated Inhibition Constant, Ki   =    2.13 nM (nanomolar)  [Temperature = 298.15 K]
DOCKED: USER    
DOCKED: USER    (1) Final Intermolecular Energy     =  -14.22 kcal/mol
DOCKED: USER        vdW + Hbond + desolv Energy     =  -14.22 kcal/mol
DOCKED: USER        Electrostatic Energy            =   +0.00 kcal/mol
DOCKED: USER    (2) Final Total Internal Energy     =   -1.66 kcal/mol
DOCKED: USER    (3) Torsional Free Energy           =   +2.39 kcal/mol
DOCKED: USER    (4) Unbound System's Energy  [=(2)] =   -1.66 kcal/mol
DOCKED: USER    
DOCKED: USER    
DOCKED: USER    NEWDPF move ligand.pdbqt
DOCKED: USER    NEWDPF about 0.693000 0.091000 0.076000
DOCKED: USER    NEWDPF tran0 29.227529 -16.627103 0.024107
DOCKED: USER    NEWDPF quaternion0 0.444335 0.316036 0.835764 -0.064699
DOCKED: USER    NEWDPF axisangle0 0.445268 0.316700 0.837519 -172.580821
DOCKED: USER    NEWDPF quat0 0.445268 0.316700 0.837519 -172.580821
DOCKED: USER    NEWDPF dihe0 11.74 151.40 174.49 167.54 -154.14 -178.36 123.96 -68.79 
DOCKED: USER  keepresnum = 1 
DOCKED: USER  
DOCKED: REMARK  Name = 
DOCKED: REMARK  9 active torsions:
DOCKED: REMARK  status: ('A' for Active; 'I' for Inactive)
DOCKED: REMARK    1  A    between atoms: C_2  and  C_3
DOCKED: REMARK    2  A    between atoms: C_4  and  C_5
DOCKED: REMARK    3  A    between atoms: C_8  and  C_9
DOCKED: REMARK    4  A    between atoms: C_9  and  N_10
DOCKED: REMARK    5  A    between atoms: N_10  and  C_11
DOCKED: REMARK    6  A    between atoms: C_11  and  C_12
DOCKED: REMARK    7  A    between atoms: C_12  and  C_13
DOCKED: REMARK    8  A    between atoms: C_14  and  C_22
DOCKED: REMARK    9  A    between atoms: N_25  and  O_26
DOCKED: REMARK                            x       y       z     vdW  Elec       q    Type
DOCKED: REMARK                         _______ _______ _______ _____ _____    ______ ____
DOCKED: USER                              x       y       z     vdW  Elec       q    Type
DOCKED: USER                           _______ _______ _______ _____ _____    ______ ____
DOCKED: ROOT
DOCKED: ATOM      1  N   UNL     1      29.856 -17.607  -0.323 -0.12 -0.00    +0.000 N 
DOCKED: ATOM      2  H   UNL     1      29.151 -18.346  -0.305 -0.62 -0.00    +0.000 HD
DOCKED: ATOM      3  H   UNL     1      30.246 -17.441   0.604 -0.31 -0.00    +0.000 HD
DOCKED: ENDROOT
DOCKED: BRANCH   1   4
DOCKED: ATOM      4  C   UNL     1      29.221 -16.362  -0.773 -0.24 -0.00    +0.000 C 
DOCKED: BRANCH   4   8
DOCKED: ATOM      5  C   UNL     1      24.958 -16.940  -1.207 -0.58 -0.00    +0.000 A 
DOCKED: ATOM      6  C   UNL     1      25.646 -16.033  -2.038 -0.48 -0.00    +0.000 A 
DOCKED: ATOM      7  C   UNL     1      27.025 -15.852  -1.899 -0.33 -0.00    +0.000 A 
DOCKED: ATOM      8  C   UNL     1      27.745 -16.586  -0.945 -0.35 -0.00    +0.000 A 
DOCKED: ATOM      9  C   UNL     1      27.064 -17.490  -0.117 -0.42 -0.00    +0.000 A 
DOCKED: ATOM     10  C   UNL     1      25.685 -17.673  -0.255 -0.56 -0.00    +0.000 A 
DOCKED: BRANCH   5  12
DOCKED: ATOM     11  C   UNL     1      22.911 -18.342  -1.019 -0.82 -0.00    +0.000 C 
DOCKED: ATOM     12  C   UNL     1      23.498 -17.177  -1.326 -0.59 -0.00    +0.000 C 
DOCKED: BRANCH  11  14
DOCKED: ATOM     13  O   UNL     1      20.663 -17.713  -0.707 -2.24 -0.00    +0.000 OA
DOCKED: ATOM     14  C   UNL     1      21.460 -18.578  -1.158 -0.68 -0.00    +0.000 C 
DOCKED: ATOM     15  N   UNL     1      20.935 -19.738  -1.817 -0.70 -0.00    +0.000 N 
DOCKED: ATOM     16  H   UNL     1      21.545 -20.364  -2.268 -0.54 -0.00    +0.000 HD
DOCKED: BRANCH  15  17
DOCKED: ATOM     17  O   UNL     1      19.601 -19.976  -1.820 -1.56 -0.00    +0.000 OA
DOCKED: ATOM     18  H   UNL     1      19.132 -19.188  -1.504 -0.53 -0.00    +0.000 HD
DOCKED: ENDBRANCH  15  17
DOCKED: ENDBRANCH  11  14
DOCKED: ENDBRANCH   5  12
DOCKED: ENDBRANCH   4   8
DOCKED: ENDBRANCH   1   4
DOCKED: BRANCH   1  19
DOCKED: ATOM     19  C   UNL     1      30.956 -18.025  -1.205 -0.19 -0.00    +0.000 C 
DOCKED: BRANCH  19  20
DOCKED: ATOM     20  C   UNL     1      32.336 -17.848  -0.548 -0.10 -0.00    +0.000 C 
DOCKED: BRANCH  20  21
DOCKED: ATOM     21  C   UNL     1      32.231 -18.017   0.940 -0.13 -0.00    +0.000 A 
DOCKED: ATOM     22  C   UNL     1      32.176 -17.012   1.908 -0.17 -0.00    +0.000 A 
DOCKED: ATOM     23  N   UNL     1      32.155 -17.546   3.152 -0.32 -0.00    +0.000 N 
DOCKED: ATOM     24  C   UNL     1      32.217 -18.878   2.981 -0.26 -0.00    +0.000 A 
DOCKED: ATOM     25  C   UNL     1      32.271 -19.204   1.648 -0.17 -0.00    +0.000 A 
DOCKED: ATOM     26  C   UNL     1      32.364 -20.528   1.219 -0.15 -0.00    +0.000 A 
DOCKED: ATOM     27  C   UNL     1      32.393 -21.535   2.201 -0.19 -0.00    +0.000 A 
DOCKED: ATOM     28  C   UNL     1      32.333 -21.201   3.572 -0.32 -0.00    +0.000 A 
DOCKED: ATOM     29  C   UNL     1      32.246 -19.856   3.974 -0.38 -0.00    +0.000 A 
DOCKED: ATOM     30  C   UNL     1      32.138 -15.542   1.637 -0.13 -0.00    +0.000 C 
DOCKED: ATOM     31  H   UNL     1      32.107 -17.059   4.006 -0.04 -0.00    +0.000 HD
DOCKED: ENDBRANCH  20  21
DOCKED: ENDBRANCH  19  20
DOCKED: ENDBRANCH   1  19
DOCKED: TORSDOF 8
DOCKED: TER
DOCKED: ENDMDL
________________________________________________________________________________


	BEGINNING GENETIC ALGORITHM DOCKING 70 of 100
Run: 70 Seed: 109365937 1678103138 [ Run 70 of 100 GA/GALS ]
Beginning LAMARCKIAN GENETIC ALGORITHM (LGA), with a maximum of 2500000 energy evaluations.

Final-Value: -15.616


	FINAL GENETIC ALGORITHM DOCKED STATE
	_______________________________________________


Detailed state:  trans 27.955 -16.543 -0.347 quatxyzw 0.130250 -0.893100 -0.410705 -0.129337 center 0.693 0.091 0.076 ntor 8 -6.4718 -28.2318 156.7086 7.2376 139.2942 -179.3523 -28.5233 12.1666
State:	 27.955 -16.543  -0.347   0.131 -0.901 -0.414 -165.137     -6.47  -28.23  156.71    7.24  139.29 -179.35  -28.52   12.17

DOCKED: MODEL       70
DOCKED: USER    Run = 70
DOCKED: USER    DPF = ligand_dock.biased.dpf
DOCKED: USER  
DOCKED: USER    Estimated Free Energy of Binding    =  -10.80 kcal/mol  [=(1)+(2)+(3)-(4)]
DOCKED: USER    Estimated Inhibition Constant, Ki   =   12.14 nM (nanomolar)  [Temperature = 298.15 K]
DOCKED: USER    
DOCKED: USER    (1) Final Intermolecular Energy     =  -13.19 kcal/mol
DOCKED: USER        vdW + Hbond + desolv Energy     =  -13.19 kcal/mol
DOCKED: USER        Electrostatic Energy            =   +0.00 kcal/mol
DOCKED: USER    (2) Final Total Internal Energy     =   -2.43 kcal/mol
DOCKED: USER    (3) Torsional Free Energy           =   +2.39 kcal/mol
DOCKED: USER    (4) Unbound System's Energy  [=(2)] =   -2.43 kcal/mol
DOCKED: USER    
DOCKED: USER    
DOCKED: USER    NEWDPF move ligand.pdbqt
DOCKED: USER    NEWDPF about 0.693000 0.091000 0.076000
DOCKED: USER    NEWDPF tran0 27.954809 -16.543033 -0.346752
DOCKED: USER    NEWDPF quaternion0 0.130250 -0.893100 -0.410705 -0.129337
DOCKED: USER    NEWDPF axisangle0 0.131353 -0.900665 -0.414184 -165.137398
DOCKED: USER    NEWDPF quat0 0.131353 -0.900665 -0.414184 -165.137398
DOCKED: USER    NEWDPF dihe0 -6.47 -28.23 156.71 7.24 139.29 -179.35 -28.52 12.17 
DOCKED: USER  keepresnum = 1 
DOCKED: USER  
DOCKED: REMARK  Name = 
DOCKED: REMARK  9 active torsions:
DOCKED: REMARK  status: ('A' for Active; 'I' for Inactive)
DOCKED: REMARK    1  A    between atoms: C_2  and  C_3
DOCKED: REMARK    2  A    between atoms: C_4  and  C_5
DOCKED: REMARK    3  A    between atoms: C_8  and  C_9
DOCKED: REMARK    4  A    between atoms: C_9  and  N_10
DOCKED: REMARK    5  A    between atoms: N_10  and  C_11
DOCKED: REMARK    6  A    between atoms: C_11  and  C_12
DOCKED: REMARK    7  A    between atoms: C_12  and  C_13
DOCKED: REMARK    8  A    between atoms: C_14  and  C_22
DOCKED: REMARK    9  A    between atoms: N_25  and  O_26
DOCKED: REMARK                            x       y       z     vdW  Elec       q    Type
DOCKED: REMARK                         _______ _______ _______ _____ _____    ______ ____
DOCKED: USER                              x       y       z     vdW  Elec       q    Type
DOCKED: USER                           _______ _______ _______ _____ _____    ______ ____
DOCKED: ROOT
DOCKED: ATOM      1  N   UNL     1      28.839 -15.853   0.121 -0.20 -0.00    +0.000 N 
DOCKED: ATOM      2  H   UNL     1      28.944 -16.229   1.064 -0.74 -0.00    +0.000 HD
DOCKED: ATOM      3  H   UNL     1      28.071 -15.184   0.070 -0.02 -0.00    +0.000 HD
DOCKED: ENDROOT
DOCKED: BRANCH   1   4
DOCKED: ATOM      4  C   UNL     1      28.531 -16.958  -0.795 -0.33 -0.00    +0.000 C 
DOCKED: BRANCH   4   8
DOCKED: ATOM      5  C   UNL     1      24.268 -17.677  -0.680 -0.67 -0.00    +0.000 A 
DOCKED: ATOM      6  C   UNL     1      24.772 -16.420  -1.070 -0.50 -0.00    +0.000 A 
DOCKED: ATOM      7  C   UNL     1      26.151 -16.192  -1.112 -0.43 -0.00    +0.000 A 
DOCKED: ATOM      8  C   UNL     1      27.050 -17.218  -0.786 -0.45 -0.00    +0.000 A 
DOCKED: ATOM      9  C   UNL     1      26.553 -18.470  -0.398 -0.48 -0.00    +0.000 A 
DOCKED: ATOM     10  C   UNL     1      25.174 -18.700  -0.357 -0.41 -0.00    +0.000 A 
DOCKED: BRANCH   5  12
DOCKED: ATOM     11  C   UNL     1      22.268 -19.077  -1.160 -0.78 -0.00    +0.000 C 
DOCKED: ATOM     12  C   UNL     1      22.815 -17.972  -0.634 -0.82 -0.00    +0.000 C 
DOCKED: BRANCH  11  14
DOCKED: ATOM     13  O   UNL     1      20.255 -19.744  -2.186 -1.88 -0.00    +0.000 OA
DOCKED: ATOM     14  C   UNL     1      20.817 -19.356  -1.128 -0.88 -0.00    +0.000 C 
DOCKED: ATOM     15  N   UNL     1      20.043 -19.231   0.072 -0.71 -0.00    +0.000 N 
DOCKED: ATOM     16  H   UNL     1      20.490 -19.036   0.926 -0.13 -0.00    +0.000 HD
DOCKED: BRANCH  15  17
DOCKED: ATOM     17  O   UNL     1      18.697 -19.383   0.034 -0.78 -0.00    +0.000 OA
DOCKED: ATOM     18  H   UNL     1      18.408 -19.468  -0.888 -0.51 -0.00    +0.000 HD
DOCKED: ENDBRANCH  15  17
DOCKED: ENDBRANCH  11  14
DOCKED: ENDBRANCH   5  12
DOCKED: ENDBRANCH   4   8
DOCKED: ENDBRANCH   1   4
DOCKED: BRANCH   1  19
DOCKED: ATOM     19  C   UNL     1      30.075 -15.148  -0.248 -0.13 -0.00    +0.000 C 
DOCKED: BRANCH  19  20
DOCKED: ATOM     20  C   UNL     1      29.803 -13.752  -0.836 -0.06 -0.00    +0.000 C 
DOCKED: BRANCH  20  21
DOCKED: ATOM     21  C   UNL     1      28.554 -13.771  -1.670 -0.09 -0.00    +0.000 A 
DOCKED: ATOM     22  C   UNL     1      27.277 -13.348  -1.298 -0.17 -0.00    +0.000 A 
DOCKED: ATOM     23  N   UNL     1      26.387 -13.583  -2.291 -0.20 -0.00    +0.000 N 
DOCKED: ATOM     24  C   UNL     1      27.085 -14.168  -3.279 -0.26 -0.00    +0.000 A 
DOCKED: ATOM     25  C   UNL     1      28.407 -14.306  -2.936 -0.13 -0.00    +0.000 A 
DOCKED: ATOM     26  C   UNL     1      29.328 -14.910  -3.792 -0.14 -0.00    +0.000 A 
DOCKED: ATOM     27  C   UNL     1      28.863 -15.372  -5.037 -0.30 -0.00    +0.000 A 
DOCKED: ATOM     28  C   UNL     1      27.504 -15.226  -5.392 -0.36 +0.00    +0.000 A 
DOCKED: ATOM     29  C   UNL     1      26.596 -14.619  -4.505 -0.44 -0.00    +0.000 A 
DOCKED: ATOM     30  C   UNL     1      26.914 -12.714   0.007 -0.23 -0.00    +0.000 C 
DOCKED: ATOM     31  H   UNL     1      25.426 -13.370  -2.288 +0.05 -0.00    +0.000 HD
DOCKED: ENDBRANCH  20  21
DOCKED: ENDBRANCH  19  20
DOCKED: ENDBRANCH   1  19
DOCKED: TORSDOF 8
DOCKED: TER
DOCKED: ENDMDL
________________________________________________________________________________


	BEGINNING GENETIC ALGORITHM DOCKING 71 of 100
Run: 71 Seed: 293863507 1432104352 [ Run 71 of 100 GA/GALS ]
Beginning LAMARCKIAN GENETIC ALGORITHM (LGA), with a maximum of 2500000 energy evaluations.

Final-Value: -14.927


	FINAL GENETIC ALGORITHM DOCKED STATE
	_______________________________________________


Detailed state:  trans 27.738 -14.934 -0.975 quatxyzw 0.315853 0.759727 -0.256041 0.507439 center 0.693 0.091 0.076 ntor 8 5.6320 161.7758 116.9951 27.8406 146.6089 -103.0232 36.2464 111.4058
State:	 27.738 -14.934  -0.975   0.367  0.882 -0.297 119.013      5.63  161.78  117.00   27.84  146.61 -103.02   36.25  111.41

DOCKED: MODEL       71
DOCKED: USER    Run = 71
DOCKED: USER    DPF = ligand_dock.biased.dpf
DOCKED: USER  
DOCKED: USER    Estimated Free Energy of Binding    =  -10.32 kcal/mol  [=(1)+(2)+(3)-(4)]
DOCKED: USER    Estimated Inhibition Constant, Ki   =   27.18 nM (nanomolar)  [Temperature = 298.15 K]
DOCKED: USER    
DOCKED: USER    (1) Final Intermolecular Energy     =  -12.71 kcal/mol
DOCKED: USER        vdW + Hbond + desolv Energy     =  -12.71 kcal/mol
DOCKED: USER        Electrostatic Energy            =   +0.00 kcal/mol
DOCKED: USER    (2) Final Total Internal Energy     =   -2.22 kcal/mol
DOCKED: USER    (3) Torsional Free Energy           =   +2.39 kcal/mol
DOCKED: USER    (4) Unbound System's Energy  [=(2)] =   -2.22 kcal/mol
DOCKED: USER    
DOCKED: USER    
DOCKED: USER    NEWDPF move ligand.pdbqt
DOCKED: USER    NEWDPF about 0.693000 0.091000 0.076000
DOCKED: USER    NEWDPF tran0 27.738250 -14.933517 -0.974812
DOCKED: USER    NEWDPF quaternion0 0.315853 0.759727 -0.256041 0.507439
DOCKED: USER    NEWDPF axisangle0 0.366551 0.881674 -0.297139 119.013208
DOCKED: USER    NEWDPF quat0 0.366551 0.881674 -0.297139 119.013208
DOCKED: USER    NEWDPF dihe0 5.63 161.78 117.00 27.84 146.61 -103.02 36.25 111.41 
DOCKED: USER  keepresnum = 1 
DOCKED: USER  
DOCKED: REMARK  Name = 
DOCKED: REMARK  9 active torsions:
DOCKED: REMARK  status: ('A' for Active; 'I' for Inactive)
DOCKED: REMARK    1  A    between atoms: C_2  and  C_3
DOCKED: REMARK    2  A    between atoms: C_4  and  C_5
DOCKED: REMARK    3  A    between atoms: C_8  and  C_9
DOCKED: REMARK    4  A    between atoms: C_9  and  N_10
DOCKED: REMARK    5  A    between atoms: N_10  and  C_11
DOCKED: REMARK    6  A    between atoms: C_11  and  C_12
DOCKED: REMARK    7  A    between atoms: C_12  and  C_13
DOCKED: REMARK    8  A    between atoms: C_14  and  C_22
DOCKED: REMARK    9  A    between atoms: N_25  and  O_26
DOCKED: REMARK                            x       y       z     vdW  Elec       q    Type
DOCKED: REMARK                         _______ _______ _______ _____ _____    ______ ____
DOCKED: USER                              x       y       z     vdW  Elec       q    Type
DOCKED: USER                           _______ _______ _______ _____ _____    ______ ____
DOCKED: ROOT
DOCKED: ATOM      1  N   UNL     1      28.276 -15.210  -2.028 -0.18 -0.00    +0.000 N 
DOCKED: ATOM      2  H   UNL     1      29.171 -14.724  -1.960 +0.01 -0.00    +0.000 HD
DOCKED: ATOM      3  H   UNL     1      27.535 -14.584  -2.343 +0.01 -0.00    +0.000 HD
DOCKED: ENDROOT
DOCKED: BRANCH   1   4
DOCKED: ATOM      4  C   UNL     1      27.907 -15.708  -0.697 -0.31 -0.00    +0.000 C 
DOCKED: BRANCH   4   8
DOCKED: ATOM      5  C   UNL     1      24.309 -18.075  -1.073 -0.69 -0.00    +0.000 A 
DOCKED: ATOM      6  C   UNL     1      25.472 -18.626  -0.498 -0.50 -0.00    +0.000 A 
DOCKED: ATOM      7  C   UNL     1      26.631 -17.857  -0.373 -0.53 -0.00    +0.000 A 
DOCKED: ATOM      8  C   UNL     1      26.647 -16.521  -0.799 -0.43 -0.00    +0.000 A 
DOCKED: ATOM      9  C   UNL     1      25.492 -15.969  -1.371 -0.47 -0.00    +0.000 A 
DOCKED: ATOM     10  C   UNL     1      24.330 -16.736  -1.496 -0.55 -0.00    +0.000 A 
DOCKED: BRANCH   5  12
DOCKED: ATOM     11  C   UNL     1      22.067 -18.831  -0.304 -0.82 -0.00    +0.000 C 
DOCKED: ATOM     12  C   UNL     1      23.049 -18.847  -1.215 -0.80 -0.00    +0.000 C 
DOCKED: BRANCH  11  14
DOCKED: ATOM     13  O   UNL     1      20.320 -19.752  -1.588 -1.69 -0.00    +0.000 OA
DOCKED: ATOM     14  C   UNL     1      20.823 -19.617  -0.441 -0.84 -0.00    +0.000 C 
DOCKED: ATOM     15  N   UNL     1      20.196 -20.254   0.679 -0.69 -0.00    +0.000 N 
DOCKED: ATOM     16  H   UNL     1      20.637 -20.248   1.558 -0.51 -0.00    +0.000 HD
DOCKED: BRANCH  15  17
DOCKED: ATOM     17  O   UNL     1      18.996 -20.866   0.531 -0.79 -0.00    +0.000 OA
DOCKED: ATOM     18  H   UNL     1      18.743 -20.860  -0.405 -0.33 -0.00    +0.000 HD
DOCKED: ENDBRANCH  15  17
DOCKED: ENDBRANCH  11  14
DOCKED: ENDBRANCH   5  12
DOCKED: ENDBRANCH   4   8
DOCKED: ENDBRANCH   1   4
DOCKED: BRANCH   1  19
DOCKED: ATOM     19  C   UNL     1      28.400 -16.292  -3.016 -0.26 -0.00    +0.000 C 
DOCKED: BRANCH  19  20
DOCKED: ATOM     20  C   UNL     1      28.885 -15.786  -4.385 -0.30 -0.00    +0.000 C 
DOCKED: BRANCH  20  21
DOCKED: ATOM     21  C   UNL     1      28.453 -14.363  -4.600 -0.22 -0.00    +0.000 A 
DOCKED: ATOM     22  C   UNL     1      29.268 -13.251  -4.817 -0.10 -0.00    +0.000 A 
DOCKED: ATOM     23  N   UNL     1      28.525 -12.122  -4.898 -0.10 -0.00    +0.000 N 
DOCKED: ATOM     24  C   UNL     1      27.250 -12.507  -4.714 -0.20 -0.00    +0.000 A 
DOCKED: ATOM     25  C   UNL     1      27.166 -13.865  -4.522 -0.30 -0.00    +0.000 A 
DOCKED: ATOM     26  C   UNL     1      25.947 -14.499  -4.285 -0.47 -0.00    +0.000 A 
DOCKED: ATOM     27  C   UNL     1      24.788 -13.702  -4.256 -0.13 -0.00    +0.000 A 
DOCKED: ATOM     28  C   UNL     1      24.872 -12.306  -4.457 -0.19 -0.00    +0.000 A 
DOCKED: ATOM     29  C   UNL     1      26.118 -11.694  -4.688 -0.27 -0.00    +0.000 A 
DOCKED: ATOM     30  C   UNL     1      30.757 -13.273  -4.953 -0.05 -0.00    +0.000 C 
DOCKED: ATOM     31  H   UNL     1      28.851 -11.207  -5.057 +0.00 -0.00    +0.000 HD
DOCKED: ENDBRANCH  20  21
DOCKED: ENDBRANCH  19  20
DOCKED: ENDBRANCH   1  19
DOCKED: TORSDOF 8
DOCKED: TER
DOCKED: ENDMDL
________________________________________________________________________________


	BEGINNING GENETIC ALGORITHM DOCKING 72 of 100
Run: 72 Seed: 1167556105 1034553125 [ Run 72 of 100 GA/GALS ]
Beginning LAMARCKIAN GENETIC ALGORITHM (LGA), with a maximum of 2500000 energy evaluations.

Final-Value: -16.325


	FINAL GENETIC ALGORITHM DOCKED STATE
	_______________________________________________


Detailed state:  trans 27.634 -15.883 -0.028 quatxyzw 0.049909 -0.537956 -0.818699 -0.194535 center 0.693 0.091 0.076 ntor 8 8.0240 48.7888 -133.2068 -180.0000 -142.1029 159.8281 -125.9192 -13.9448
State:	 27.634 -15.883  -0.028   0.051 -0.548 -0.835 -157.565      8.02   48.79 -133.21 -180.00 -142.10  159.83 -125.92  -13.94

DOCKED: MODEL       72
DOCKED: USER    Run = 72
DOCKED: USER    DPF = ligand_dock.biased.dpf
DOCKED: USER  
DOCKED: USER    Estimated Free Energy of Binding    =  -12.14 kcal/mol  [=(1)+(2)+(3)-(4)]
DOCKED: USER    Estimated Inhibition Constant, Ki   =    1.26 nM (nanomolar)  [Temperature = 298.15 K]
DOCKED: USER    
DOCKED: USER    (1) Final Intermolecular Energy     =  -14.53 kcal/mol
DOCKED: USER        vdW + Hbond + desolv Energy     =  -14.53 kcal/mol
DOCKED: USER        Electrostatic Energy            =   +0.00 kcal/mol
DOCKED: USER    (2) Final Total Internal Energy     =   -1.80 kcal/mol
DOCKED: USER    (3) Torsional Free Energy           =   +2.39 kcal/mol
DOCKED: USER    (4) Unbound System's Energy  [=(2)] =   -1.80 kcal/mol
DOCKED: USER    
DOCKED: USER    
DOCKED: USER    NEWDPF move ligand.pdbqt
DOCKED: USER    NEWDPF about 0.693000 0.091000 0.076000
DOCKED: USER    NEWDPF tran0 27.633784 -15.883302 -0.028066
DOCKED: USER    NEWDPF quaternion0 0.049909 -0.537956 -0.818699 -0.194535
DOCKED: USER    NEWDPF axisangle0 0.050881 -0.548433 -0.834645 -157.564881
DOCKED: USER    NEWDPF quat0 0.050881 -0.548433 -0.834645 -157.564881
DOCKED: USER    NEWDPF dihe0 8.02 48.79 -133.21 -180.00 -142.10 159.83 -125.92 -13.94 
DOCKED: USER  keepresnum = 1 
DOCKED: USER  
DOCKED: REMARK  Name = 
DOCKED: REMARK  9 active torsions:
DOCKED: REMARK  status: ('A' for Active; 'I' for Inactive)
DOCKED: REMARK    1  A    between atoms: C_2  and  C_3
DOCKED: REMARK    2  A    between atoms: C_4  and  C_5
DOCKED: REMARK    3  A    between atoms: C_8  and  C_9
DOCKED: REMARK    4  A    between atoms: C_9  and  N_10
DOCKED: REMARK    5  A    between atoms: N_10  and  C_11
DOCKED: REMARK    6  A    between atoms: C_11  and  C_12
DOCKED: REMARK    7  A    between atoms: C_12  and  C_13
DOCKED: REMARK    8  A    between atoms: C_14  and  C_22
DOCKED: REMARK    9  A    between atoms: N_25  and  O_26
DOCKED: REMARK                            x       y       z     vdW  Elec       q    Type
DOCKED: REMARK                         _______ _______ _______ _____ _____    ______ ____
DOCKED: USER                              x       y       z     vdW  Elec       q    Type
DOCKED: USER                           _______ _______ _______ _____ _____    ______ ____
DOCKED: ROOT
DOCKED: ATOM      1  N   UNL     1      28.765 -15.841   0.412 -0.14 -0.00    +0.000 N 
DOCKED: ATOM      2  H   UNL     1      29.016 -16.828   0.486 -0.54 -0.00    +0.000 HD
DOCKED: ATOM      3  H   UNL     1      28.227 -15.532   1.221 -0.65 -0.00    +0.000 HD
DOCKED: ENDROOT
DOCKED: BRANCH   1   4
DOCKED: ATOM      4  C   UNL     1      27.929 -15.656  -0.781 -0.30 -0.00    +0.000 C 
DOCKED: BRANCH   4   8
DOCKED: ATOM      5  C   UNL     1      24.399 -18.141  -0.529 -0.68 -0.00    +0.000 A 
DOCKED: ATOM      6  C   UNL     1      25.642 -18.612  -0.059 -0.46 -0.00    +0.000 A 
DOCKED: ATOM      7  C   UNL     1      26.780 -17.804  -0.137 -0.47 -0.00    +0.000 A 
DOCKED: ATOM      8  C   UNL     1      26.695 -16.507  -0.664 -0.43 -0.00    +0.000 A 
DOCKED: ATOM      9  C   UNL     1      25.461 -16.035  -1.132 -0.46 -0.00    +0.000 A 
DOCKED: ATOM     10  C   UNL     1      24.322 -16.841  -1.054 -0.57 -0.00    +0.000 A 
DOCKED: BRANCH   5  12
DOCKED: ATOM     11  C   UNL     1      22.099 -18.758  -1.248 -0.73 -0.00    +0.000 C 
DOCKED: ATOM     12  C   UNL     1      23.160 -18.955  -0.455 -0.76 -0.00    +0.000 C 
DOCKED: BRANCH  11  14
DOCKED: ATOM     13  O   UNL     1      20.184 -19.743  -2.204 -1.88 -0.00    +0.000 OA
DOCKED: ATOM     14  C   UNL     1      20.861 -19.559  -1.157 -0.81 -0.00    +0.000 C 
DOCKED: ATOM     15  N   UNL     1      20.429 -20.159   0.071 -0.71 -0.00    +0.000 N 
DOCKED: ATOM     16  H   UNL     1      21.004 -20.115   0.867 -0.53 -0.00    +0.000 HD
DOCKED: BRANCH  15  17
DOCKED: ATOM     17  O   UNL     1      19.230 -20.787   0.139 -0.76 -0.00    +0.000 OA
DOCKED: ATOM     18  H   UNL     1      18.849 -20.853  -0.751 -0.44 -0.00    +0.000 HD
DOCKED: ENDBRANCH  15  17
DOCKED: ENDBRANCH  11  14
DOCKED: ENDBRANCH   5  12
DOCKED: ENDBRANCH   4   8
DOCKED: ENDBRANCH   1   4
DOCKED: BRANCH   1  19
DOCKED: ATOM     19  C   UNL     1      29.999 -15.042   0.360 -0.14 -0.00    +0.000 C 
DOCKED: BRANCH  19  20
DOCKED: ATOM     20  C   UNL     1      29.801 -13.619   0.911 -0.10 -0.00    +0.000 C 
DOCKED: BRANCH  20  21
DOCKED: ATOM     21  C   UNL     1      28.968 -13.654   2.160 -0.18 -0.00    +0.000 A 
DOCKED: ATOM     22  C   UNL     1      27.576 -13.608   2.254 -0.28 -0.00    +0.000 A 
DOCKED: ATOM     23  N   UNL     1      27.184 -13.590   3.550 -0.44 -0.00    +0.000 N 
DOCKED: ATOM     24  C   UNL     1      28.315 -13.603   4.276 -0.41 -0.00    +0.000 A 
DOCKED: ATOM     25  C   UNL     1      29.423 -13.635   3.465 -0.23 -0.00    +0.000 A 
DOCKED: ATOM     26  C   UNL     1      30.716 -13.629   3.987 -0.19 -0.00    +0.000 A 
DOCKED: ATOM     27  C   UNL     1      30.858 -13.598   5.387 -0.20 -0.00    +0.000 A 
DOCKED: ATOM     28  C   UNL     1      29.719 -13.569   6.222 -0.29 -0.00    +0.000 A 
DOCKED: ATOM     29  C   UNL     1      28.427 -13.570   5.665 -0.41 -0.00    +0.000 A 
DOCKED: ATOM     30  C   UNL     1      26.623 -13.589   1.101 -0.27 -0.00    +0.000 C 
DOCKED: ATOM     31  H   UNL     1      26.261 -13.570   3.890 -0.03 +0.00    +0.000 HD
DOCKED: ENDBRANCH  20  21
DOCKED: ENDBRANCH  19  20
DOCKED: ENDBRANCH   1  19
DOCKED: TORSDOF 8
DOCKED: TER
DOCKED: ENDMDL
________________________________________________________________________________


	BEGINNING GENETIC ALGORITHM DOCKING 73 of 100
Run: 73 Seed: 367124351 1558614071 [ Run 73 of 100 GA/GALS ]
Beginning LAMARCKIAN GENETIC ALGORITHM (LGA), with a maximum of 2500000 energy evaluations.

Final-Value: -16.558


	FINAL GENETIC ALGORITHM DOCKED STATE
	_______________________________________________


Detailed state:  trans 28.477 -16.755 -0.649 quatxyzw 0.134455 -0.656153 -0.731065 -0.130112 center 0.693 0.091 0.076 ntor 8 6.0702 -179.8495 -170.1112 167.1011 -155.8818 165.8122 54.4257 12.0421
State:	 28.477 -16.755  -0.649   0.136 -0.662 -0.737 -165.048      6.07 -179.85 -170.11  167.10 -155.88  165.81   54.43   12.04

DOCKED: MODEL       73
DOCKED: USER    Run = 73
DOCKED: USER    DPF = ligand_dock.biased.dpf
DOCKED: USER  
DOCKED: USER    Estimated Free Energy of Binding    =  -11.91 kcal/mol  [=(1)+(2)+(3)-(4)]
DOCKED: USER    Estimated Inhibition Constant, Ki   =    1.87 nM (nanomolar)  [Temperature = 298.15 K]
DOCKED: USER    
DOCKED: USER    (1) Final Intermolecular Energy     =  -14.29 kcal/mol
DOCKED: USER        vdW + Hbond + desolv Energy     =  -14.29 kcal/mol
DOCKED: USER        Electrostatic Energy            =   +0.00 kcal/mol
DOCKED: USER    (2) Final Total Internal Energy     =   -2.26 kcal/mol
DOCKED: USER    (3) Torsional Free Energy           =   +2.39 kcal/mol
DOCKED: USER    (4) Unbound System's Energy  [=(2)] =   -2.26 kcal/mol
DOCKED: USER    
DOCKED: USER    
DOCKED: USER    NEWDPF move ligand.pdbqt
DOCKED: USER    NEWDPF about 0.693000 0.091000 0.076000
DOCKED: USER    NEWDPF tran0 28.477126 -16.755459 -0.648923
DOCKED: USER    NEWDPF quaternion0 0.134455 -0.656153 -0.731065 -0.130112
DOCKED: USER    NEWDPF axisangle0 0.135607 -0.661779 -0.737333 -165.047819
DOCKED: USER    NEWDPF quat0 0.135607 -0.661779 -0.737333 -165.047819
DOCKED: USER    NEWDPF dihe0 6.07 -179.85 -170.11 167.10 -155.88 165.81 54.43 12.04 
DOCKED: USER  keepresnum = 1 
DOCKED: USER  
DOCKED: REMARK  Name = 
DOCKED: REMARK  9 active torsions:
DOCKED: REMARK  status: ('A' for Active; 'I' for Inactive)
DOCKED: REMARK    1  A    between atoms: C_2  and  C_3
DOCKED: REMARK    2  A    between atoms: C_4  and  C_5
DOCKED: REMARK    3  A    between atoms: C_8  and  C_9
DOCKED: REMARK    4  A    between atoms: C_9  and  N_10
DOCKED: REMARK    5  A    between atoms: N_10  and  C_11
DOCKED: REMARK    6  A    between atoms: C_11  and  C_12
DOCKED: REMARK    7  A    between atoms: C_12  and  C_13
DOCKED: REMARK    8  A    between atoms: C_14  and  C_22
DOCKED: REMARK    9  A    between atoms: N_25  and  O_26
DOCKED: REMARK                            x       y       z     vdW  Elec       q    Type
DOCKED: REMARK                         _______ _______ _______ _____ _____    ______ ____
DOCKED: USER                              x       y       z     vdW  Elec       q    Type
DOCKED: USER                           _______ _______ _______ _____ _____    ______ ____
DOCKED: ROOT
DOCKED: ATOM      1  N   UNL     1      29.457 -16.562   0.043 -0.16 -0.00    +0.000 N 
DOCKED: ATOM      2  H   UNL     1      29.655 -17.490   0.419 -0.53 -0.00    +0.000 HD
DOCKED: ATOM      3  H   UNL     1      28.735 -16.087   0.585 -0.47 -0.00    +0.000 HD
DOCKED: ENDROOT
DOCKED: BRANCH   1   4
DOCKED: ATOM      4  C   UNL     1      28.963 -16.706  -1.332 -0.29 -0.00    +0.000 C 
DOCKED: BRANCH   4   8
DOCKED: ATOM      5  C   UNL     1      24.691 -17.368  -1.207 -0.62 -0.00    +0.000 A 
DOCKED: ATOM      6  C   UNL     1      25.263 -16.570  -2.218 -0.52 -0.00    +0.000 A 
DOCKED: ATOM      7  C   UNL     1      26.645 -16.362  -2.260 -0.38 -0.00    +0.000 A 
DOCKED: ATOM      8  C   UNL     1      27.481 -16.962  -1.307 -0.38 -0.00    +0.000 A 
DOCKED: ATOM      9  C   UNL     1      26.917 -17.757  -0.299 -0.47 -0.00    +0.000 A 
DOCKED: ATOM     10  C   UNL     1      25.535 -17.966  -0.257 -0.60 -0.00    +0.000 A 
DOCKED: BRANCH   5  12
DOCKED: ATOM     11  C   UNL     1      22.693 -18.586  -0.362 -0.83 -0.00    +0.000 C 
DOCKED: ATOM     12  C   UNL     1      23.233 -17.629  -1.129 -0.73 -0.00    +0.000 C 
DOCKED: BRANCH  11  14
DOCKED: ATOM     13  O   UNL     1      20.448 -17.964  -0.710 -2.26 -0.00    +0.000 OA
DOCKED: ATOM     14  C   UNL     1      21.242 -18.854  -0.303 -0.82 -0.00    +0.000 C 
DOCKED: ATOM     15  N   UNL     1      20.715 -20.102   0.167 -0.67 -0.00    +0.000 N 
DOCKED: ATOM     16  H   UNL     1      21.325 -20.842   0.383 -0.57 -0.00    +0.000 HD
DOCKED: BRANCH  15  17
DOCKED: ATOM     17  O   UNL     1      19.378 -20.265   0.314 -0.81 -0.00    +0.000 OA
DOCKED: ATOM     18  H   UNL     1      18.917 -19.483  -0.029 -0.06 -0.00    +0.000 HD
DOCKED: ENDBRANCH  15  17
DOCKED: ENDBRANCH  11  14
DOCKED: ENDBRANCH   5  12
DOCKED: ENDBRANCH   4   8
DOCKED: ENDBRANCH   1   4
DOCKED: BRANCH   1  19
DOCKED: ATOM     19  C   UNL     1      30.681 -15.750   0.116 -0.14 -0.00    +0.000 C 
DOCKED: BRANCH  19  20
DOCKED: ATOM     20  C   UNL     1      30.386 -14.264   0.378 -0.10 -0.00    +0.000 C 
DOCKED: BRANCH  20  21
DOCKED: ATOM     21  C   UNL     1      29.108 -14.113   1.152 -0.16 -0.00    +0.000 A 
DOCKED: ATOM     22  C   UNL     1      27.849 -13.771   0.655 -0.20 -0.00    +0.000 A 
DOCKED: ATOM     23  N   UNL     1      26.950 -13.663   1.662 -0.31 -0.00    +0.000 N 
DOCKED: ATOM     24  C   UNL     1      27.633 -13.913   2.792 -0.32 -0.00    +0.000 A 
DOCKED: ATOM     25  C   UNL     1      28.952 -14.185   2.523 -0.20 -0.00    +0.000 A 
DOCKED: ATOM     26  C   UNL     1      29.869 -14.453   3.540 -0.27 -0.00    +0.000 A 
DOCKED: ATOM     27  C   UNL     1      29.398 -14.445   4.866 -0.34 -0.00    +0.000 A 
DOCKED: ATOM     28  C   UNL     1      28.041 -14.170   5.143 -0.46 -0.00    +0.000 A 
DOCKED: ATOM     29  C   UNL     1      27.141 -13.898   4.096 -0.42 -0.00    +0.000 A 
DOCKED: ATOM     30  C   UNL     1      27.509 -13.555  -0.785 -0.19 -0.00    +0.000 C 
DOCKED: ATOM     31  H   UNL     1      25.994 -13.444   1.582 -0.02 -0.00    +0.000 HD
DOCKED: ENDBRANCH  20  21
DOCKED: ENDBRANCH  19  20
DOCKED: ENDBRANCH   1  19
DOCKED: TORSDOF 8
DOCKED: TER
DOCKED: ENDMDL
________________________________________________________________________________


	BEGINNING GENETIC ALGORITHM DOCKING 74 of 100
Run: 74 Seed: 1285631353 1985795081 [ Run 74 of 100 GA/GALS ]
Beginning LAMARCKIAN GENETIC ALGORITHM (LGA), with a maximum of 2500000 energy evaluations.

Final-Value: -15.848


	FINAL GENETIC ALGORITHM DOCKED STATE
	_______________________________________________


Detailed state:  trans 28.085 -16.729 -0.441 quatxyzw -0.105137 0.942126 0.314091 0.051882 center 0.693 0.091 0.076 ntor 8 17.3212 -176.5701 -177.2571 0.5574 155.2498 -172.5280 2.2780 10.0455
State:	 28.085 -16.729  -0.441  -0.105  0.943  0.315 174.052     17.32 -176.57 -177.26    0.56  155.25 -172.53    2.28   10.05

DOCKED: MODEL       74
DOCKED: USER    Run = 74
DOCKED: USER    DPF = ligand_dock.biased.dpf
DOCKED: USER  
DOCKED: USER    Estimated Free Energy of Binding    =  -11.00 kcal/mol  [=(1)+(2)+(3)-(4)]
DOCKED: USER    Estimated Inhibition Constant, Ki   =    8.68 nM (nanomolar)  [Temperature = 298.15 K]
DOCKED: USER    
DOCKED: USER    (1) Final Intermolecular Energy     =  -13.38 kcal/mol
DOCKED: USER        vdW + Hbond + desolv Energy     =  -13.38 kcal/mol
DOCKED: USER        Electrostatic Energy            =   +0.00 kcal/mol
DOCKED: USER    (2) Final Total Internal Energy     =   -2.46 kcal/mol
DOCKED: USER    (3) Torsional Free Energy           =   +2.39 kcal/mol
DOCKED: USER    (4) Unbound System's Energy  [=(2)] =   -2.46 kcal/mol
DOCKED: USER    
DOCKED: USER    
DOCKED: USER    NEWDPF move ligand.pdbqt
DOCKED: USER    NEWDPF about 0.693000 0.091000 0.076000
DOCKED: USER    NEWDPF tran0 28.085341 -16.729210 -0.440995
DOCKED: USER    NEWDPF quaternion0 -0.105137 0.942126 0.314091 0.051882
DOCKED: USER    NEWDPF axisangle0 -0.105279 0.943396 0.314515 174.052069
DOCKED: USER    NEWDPF quat0 -0.105279 0.943396 0.314515 174.052069
DOCKED: USER    NEWDPF dihe0 17.32 -176.57 -177.26 0.56 155.25 -172.53 2.28 10.05 
DOCKED: USER  keepresnum = 1 
DOCKED: USER  
DOCKED: REMARK  Name = 
DOCKED: REMARK  9 active torsions:
DOCKED: REMARK  status: ('A' for Active; 'I' for Inactive)
DOCKED: REMARK    1  A    between atoms: C_2  and  C_3
DOCKED: REMARK    2  A    between atoms: C_4  and  C_5
DOCKED: REMARK    3  A    between atoms: C_8  and  C_9
DOCKED: REMARK    4  A    between atoms: C_9  and  N_10
DOCKED: REMARK    5  A    between atoms: N_10  and  C_11
DOCKED: REMARK    6  A    between atoms: C_11  and  C_12
DOCKED: REMARK    7  A    between atoms: C_12  and  C_13
DOCKED: REMARK    8  A    between atoms: C_14  and  C_22
DOCKED: REMARK    9  A    between atoms: N_25  and  O_26
DOCKED: REMARK                            x       y       z     vdW  Elec       q    Type
DOCKED: REMARK                         _______ _______ _______ _____ _____    ______ ____
DOCKED: USER                              x       y       z     vdW  Elec       q    Type
DOCKED: USER                           _______ _______ _______ _____ _____    ______ ____
DOCKED: ROOT
DOCKED: ATOM      1  N   UNL     1      28.963 -16.031   0.025 -0.21 -0.00    +0.000 N 
DOCKED: ATOM      2  H   UNL     1      28.889 -16.213   1.027 -0.73 -0.00    +0.000 HD
DOCKED: ATOM      3  H   UNL     1      28.290 -15.327  -0.276 -0.01 -0.00    +0.000 HD
DOCKED: ENDROOT
DOCKED: BRANCH   1   4
DOCKED: ATOM      4  C   UNL     1      28.670 -17.272  -0.702 -0.29 -0.00    +0.000 C 
DOCKED: BRANCH   4   8
DOCKED: ATOM      5  C   UNL     1      24.377 -17.650  -1.056 -0.66 -0.00    +0.000 A 
DOCKED: ATOM      6  C   UNL     1      25.122 -16.983  -2.049 -0.55 -0.00    +0.000 A 
DOCKED: ATOM      7  C   UNL     1      26.510 -16.867  -1.935 -0.36 -0.00    +0.000 A 
DOCKED: ATOM      8  C   UNL     1      27.182 -17.431  -0.841 -0.44 -0.00    +0.000 A 
DOCKED: ATOM      9  C   UNL     1      26.445 -18.096   0.149 -0.49 -0.00    +0.000 A 
DOCKED: ATOM     10  C   UNL     1      25.057 -18.214   0.037 -0.59 -0.00    +0.000 A 
DOCKED: BRANCH   5  12
DOCKED: ATOM     11  C   UNL     1      22.226 -18.755  -0.472 -0.83 -0.00    +0.000 C 
DOCKED: ATOM     12  C   UNL     1      22.905 -17.812  -1.139 -0.73 -0.00    +0.000 C 
DOCKED: BRANCH  11  14
DOCKED: ATOM     13  O   UNL     1      20.082 -17.990  -1.080 -1.98 -0.00    +0.000 OA
DOCKED: ATOM     14  C   UNL     1      20.762 -18.923  -0.574 -0.85 -0.00    +0.000 C 
DOCKED: ATOM     15  N   UNL     1      20.100 -20.121  -0.149 -0.74 -0.00    +0.000 N 
DOCKED: ATOM     16  H   UNL     1      20.629 -20.896   0.145 -0.12 -0.00    +0.000 HD
DOCKED: BRANCH  15  17
DOCKED: ATOM     17  O   UNL     1      18.746 -20.190  -0.151 -0.85 -0.00    +0.000 OA
DOCKED: ATOM     18  H   UNL     1      18.387 -19.481  -0.708 -0.51 -0.00    +0.000 HD
DOCKED: ENDBRANCH  15  17
DOCKED: ENDBRANCH  11  14
DOCKED: ENDBRANCH   5  12
DOCKED: ENDBRANCH   4   8
DOCKED: ENDBRANCH   1   4
DOCKED: BRANCH   1  19
DOCKED: ATOM     19  C   UNL     1      30.311 -15.517  -0.263 -0.14 -0.00    +0.000 C 
DOCKED: BRANCH  19  20
DOCKED: ATOM     20  C   UNL     1      30.280 -14.166  -0.998 -0.05 -0.00    +0.000 C 
DOCKED: BRANCH  20  21
DOCKED: ATOM     21  C   UNL     1      28.946 -13.959  -1.657 -0.08 -0.00    +0.000 A 
DOCKED: ATOM     22  C   UNL     1      27.831 -13.304  -1.130 -0.13 -0.00    +0.000 A 
DOCKED: ATOM     23  N   UNL     1      26.785 -13.377  -1.987 -0.20 -0.00    +0.000 N 
DOCKED: ATOM     24  C   UNL     1      27.221 -14.090  -3.040 -0.23 -0.00    +0.000 A 
DOCKED: ATOM     25  C   UNL     1      28.531 -14.468  -2.873 -0.13 -0.00    +0.000 A 
DOCKED: ATOM     26  C   UNL     1      29.200 -15.238  -3.824 -0.17 -0.00    +0.000 A 
DOCKED: ATOM     27  C   UNL     1      28.491 -15.616  -4.979 -0.33 -0.00    +0.000 A 
DOCKED: ATOM     28  C   UNL     1      27.145 -15.223  -5.154 -0.43 -0.00    +0.000 A 
DOCKED: ATOM     29  C   UNL     1      26.495 -14.451  -4.174 -0.42 -0.00    +0.000 A 
DOCKED: ATOM     30  C   UNL     1      27.772 -12.603   0.189 -0.16 -0.00    +0.000 C 
DOCKED: ATOM     31  H   UNL     1      25.888 -12.990  -1.863 +0.03 -0.00    +0.000 HD
DOCKED: ENDBRANCH  20  21
DOCKED: ENDBRANCH  19  20
DOCKED: ENDBRANCH   1  19
DOCKED: TORSDOF 8
DOCKED: TER
DOCKED: ENDMDL
________________________________________________________________________________


	BEGINNING GENETIC ALGORITHM DOCKING 75 of 100
Run: 75 Seed: 342855517 565664781 [ Run 75 of 100 GA/GALS ]
Beginning LAMARCKIAN GENETIC ALGORITHM (LGA), with a maximum of 2500000 energy evaluations.

Final-Value: -16.189


	FINAL GENETIC ALGORITHM DOCKED STATE
	_______________________________________________


Detailed state:  trans 27.860 -16.299 -0.238 quatxyzw -0.040093 -0.492446 -0.853979 -0.163123 center 0.693 0.091 0.076 ntor 8 13.5580 72.3585 172.7225 -17.2038 -113.8390 153.4352 -84.8459 -22.2457
State:	 27.860 -16.299  -0.238  -0.041 -0.499 -0.866 -161.224     13.56   72.36  172.72  -17.20 -113.84  153.44  -84.85  -22.25

DOCKED: MODEL       75
DOCKED: USER    Run = 75
DOCKED: USER    DPF = ligand_dock.biased.dpf
DOCKED: USER  
DOCKED: USER    Estimated Free Energy of Binding    =  -11.94 kcal/mol  [=(1)+(2)+(3)-(4)]
DOCKED: USER    Estimated Inhibition Constant, Ki   =    1.77 nM (nanomolar)  [Temperature = 298.15 K]
DOCKED: USER    
DOCKED: USER    (1) Final Intermolecular Energy     =  -14.32 kcal/mol
DOCKED: USER        vdW + Hbond + desolv Energy     =  -14.32 kcal/mol
DOCKED: USER        Electrostatic Energy            =   +0.00 kcal/mol
DOCKED: USER    (2) Final Total Internal Energy     =   -1.86 kcal/mol
DOCKED: USER    (3) Torsional Free Energy           =   +2.39 kcal/mol
DOCKED: USER    (4) Unbound System's Energy  [=(2)] =   -1.86 kcal/mol
DOCKED: USER    
DOCKED: USER    
DOCKED: USER    NEWDPF move ligand.pdbqt
DOCKED: USER    NEWDPF about 0.693000 0.091000 0.076000
DOCKED: USER    NEWDPF tran0 27.859952 -16.298841 -0.237574
DOCKED: USER    NEWDPF quaternion0 -0.040093 -0.492446 -0.853979 -0.163123
DOCKED: USER    NEWDPF axisangle0 -0.040637 -0.499132 -0.865573 -161.223630
DOCKED: USER    NEWDPF quat0 -0.040637 -0.499132 -0.865573 -161.223630
DOCKED: USER    NEWDPF dihe0 13.56 72.36 172.72 -17.20 -113.84 153.44 -84.85 -22.25 
DOCKED: USER  keepresnum = 1 
DOCKED: USER  
DOCKED: REMARK  Name = 
DOCKED: REMARK  9 active torsions:
DOCKED: REMARK  status: ('A' for Active; 'I' for Inactive)
DOCKED: REMARK    1  A    between atoms: C_2  and  C_3
DOCKED: REMARK    2  A    between atoms: C_4  and  C_5
DOCKED: REMARK    3  A    between atoms: C_8  and  C_9
DOCKED: REMARK    4  A    between atoms: C_9  and  N_10
DOCKED: REMARK    5  A    between atoms: N_10  and  C_11
DOCKED: REMARK    6  A    between atoms: C_11  and  C_12
DOCKED: REMARK    7  A    between atoms: C_12  and  C_13
DOCKED: REMARK    8  A    between atoms: C_14  and  C_22
DOCKED: REMARK    9  A    between atoms: N_25  and  O_26
DOCKED: REMARK                            x       y       z     vdW  Elec       q    Type
DOCKED: REMARK                         _______ _______ _______ _____ _____    ______ ____
DOCKED: USER                              x       y       z     vdW  Elec       q    Type
DOCKED: USER                           _______ _______ _______ _____ _____    ______ ____
DOCKED: ROOT
DOCKED: ATOM      1  N   UNL     1      29.030 -16.468   0.041 -0.18 -0.00    +0.000 N 
DOCKED: ATOM      2  H   UNL     1      29.126 -17.484   0.010 -0.48 -0.00    +0.000 HD
DOCKED: ATOM      3  H   UNL     1      28.657 -16.156   0.937 -0.68 -0.00    +0.000 HD
DOCKED: ENDROOT
DOCKED: BRANCH   1   4
DOCKED: ATOM      4  C   UNL     1      28.089 -16.051  -1.006 -0.32 -0.00    +0.000 C 
DOCKED: BRANCH   4   8
DOCKED: ATOM      5  C   UNL     1      24.503 -18.453  -0.752 -0.67 -0.00    +0.000 A 
DOCKED: ATOM      6  C   UNL     1      25.537 -18.607   0.193 -0.32 -0.00    +0.000 A 
DOCKED: ATOM      7  C   UNL     1      26.693 -17.826   0.112 -0.44 -0.00    +0.000 A 
DOCKED: ATOM      8  C   UNL     1      26.829 -16.864  -0.899 -0.44 -0.00    +0.000 A 
DOCKED: ATOM      9  C   UNL     1      25.803 -16.706  -1.841 -0.50 -0.00    +0.000 A 
DOCKED: ATOM     10  C   UNL     1      24.645 -17.487  -1.761 -0.59 -0.00    +0.000 A 
DOCKED: BRANCH   5  12
DOCKED: ATOM     11  C   UNL     1      22.065 -18.789  -1.119 -0.80 -0.00    +0.000 C 
DOCKED: ATOM     12  C   UNL     1      23.251 -19.249  -0.699 -0.73 -0.00    +0.000 C 
DOCKED: BRANCH  11  14
DOCKED: ATOM     13  O   UNL     1      20.142 -19.734  -2.097 -1.88 -0.00    +0.000 OA
DOCKED: ATOM     14  C   UNL     1      20.819 -19.579  -1.046 -0.84 -0.00    +0.000 C 
DOCKED: ATOM     15  N   UNL     1      20.379 -20.199   0.169 -0.70 -0.00    +0.000 N 
DOCKED: ATOM     16  H   UNL     1      20.954 -20.177   0.967 -0.51 -0.00    +0.000 HD
DOCKED: BRANCH  15  17
DOCKED: ATOM     17  O   UNL     1      19.174 -20.817   0.222 -0.76 -0.00    +0.000 OA
DOCKED: ATOM     18  H   UNL     1      18.833 -20.938  -0.678 -0.41 -0.00    +0.000 HD
DOCKED: ENDBRANCH  15  17
DOCKED: ENDBRANCH  11  14
DOCKED: ENDBRANCH   5  12
DOCKED: ENDBRANCH   4   8
DOCKED: ENDBRANCH   1   4
DOCKED: BRANCH   1  19
DOCKED: ATOM     19  C   UNL     1      30.360 -15.863  -0.128 -0.15 -0.00    +0.000 C 
DOCKED: BRANCH  19  20
DOCKED: ATOM     20  C   UNL     1      30.422 -14.421   0.405 -0.10 -0.00    +0.000 C 
DOCKED: BRANCH  20  21
DOCKED: ATOM     21  C   UNL     1      30.352 -14.415   1.905 -0.13 -0.00    +0.000 A 
DOCKED: ATOM     22  C   UNL     1      31.364 -14.760   2.803 -0.18 -0.00    +0.000 A 
DOCKED: ATOM     23  N   UNL     1      30.911 -14.699   4.079 -0.29 -0.00    +0.000 N 
DOCKED: ATOM     24  C   UNL     1      29.620 -14.338   3.993 -0.32 -0.00    +0.000 A 
DOCKED: ATOM     25  C   UNL     1      29.240 -14.162   2.685 -0.20 -0.00    +0.000 A 
DOCKED: ATOM     26  C   UNL     1      27.936 -13.810   2.340 -0.28 -0.00    +0.000 A 
DOCKED: ATOM     27  C   UNL     1      27.008 -13.628   3.382 -0.34 -0.00    +0.000 A 
DOCKED: ATOM     28  C   UNL     1      27.398 -13.804   4.728 -0.48 -0.00    +0.000 A 
DOCKED: ATOM     29  C   UNL     1      28.720 -14.166   5.045 -0.44 -0.00    +0.000 A 
DOCKED: ATOM     30  C   UNL     1      32.763 -15.141   2.439 -0.13 -0.00    +0.000 C 
DOCKED: ATOM     31  H   UNL     1      31.424 -14.882   4.899 -0.01 -0.00    +0.000 HD
DOCKED: ENDBRANCH  20  21
DOCKED: ENDBRANCH  19  20
DOCKED: ENDBRANCH   1  19
DOCKED: TORSDOF 8
DOCKED: TER
DOCKED: ENDMDL
________________________________________________________________________________


	BEGINNING GENETIC ALGORITHM DOCKING 76 of 100
Run: 76 Seed: 1117817499 9939874 [ Run 76 of 100 GA/GALS ]
Beginning LAMARCKIAN GENETIC ALGORITHM (LGA), with a maximum of 2500000 energy evaluations.

Final-Value: -15.919


	FINAL GENETIC ALGORITHM DOCKED STATE
	_______________________________________________


Detailed state:  trans 28.345 -16.064 0.096 quatxyzw 0.220698 -0.914697 -0.324312 -0.097178 center 0.693 0.091 0.076 ntor 8 17.8044 90.5667 -131.9769 -163.5179 100.2924 175.9557 -6.5483 23.1729
State:	 28.345 -16.064   0.096   0.222 -0.919 -0.326 -168.847     17.80   90.57 -131.98 -163.52  100.29  175.96   -6.55   23.17

DOCKED: MODEL       76
DOCKED: USER    Run = 76
DOCKED: USER    DPF = ligand_dock.biased.dpf
DOCKED: USER  
DOCKED: USER    Estimated Free Energy of Binding    =  -11.20 kcal/mol  [=(1)+(2)+(3)-(4)]
DOCKED: USER    Estimated Inhibition Constant, Ki   =    6.22 nM (nanomolar)  [Temperature = 298.15 K]
DOCKED: USER    
DOCKED: USER    (1) Final Intermolecular Energy     =  -13.58 kcal/mol
DOCKED: USER        vdW + Hbond + desolv Energy     =  -13.58 kcal/mol
DOCKED: USER        Electrostatic Energy            =   +0.00 kcal/mol
DOCKED: USER    (2) Final Total Internal Energy     =   -2.34 kcal/mol
DOCKED: USER    (3) Torsional Free Energy           =   +2.39 kcal/mol
DOCKED: USER    (4) Unbound System's Energy  [=(2)] =   -2.34 kcal/mol
DOCKED: USER    
DOCKED: USER    
DOCKED: USER    NEWDPF move ligand.pdbqt
DOCKED: USER    NEWDPF about 0.693000 0.091000 0.076000
DOCKED: USER    NEWDPF tran0 28.344941 -16.063885 0.095758
DOCKED: USER    NEWDPF quaternion0 0.220698 -0.914697 -0.324312 -0.097178
DOCKED: USER    NEWDPF axisangle0 0.221748 -0.919047 -0.325855 -168.846576
DOCKED: USER    NEWDPF quat0 0.221748 -0.919047 -0.325855 -168.846576
DOCKED: USER    NEWDPF dihe0 17.80 90.57 -131.98 -163.52 100.29 175.96 -6.55 23.17 
DOCKED: USER  keepresnum = 1 
DOCKED: USER  
DOCKED: REMARK  Name = 
DOCKED: REMARK  9 active torsions:
DOCKED: REMARK  status: ('A' for Active; 'I' for Inactive)
DOCKED: REMARK    1  A    between atoms: C_2  and  C_3
DOCKED: REMARK    2  A    between atoms: C_4  and  C_5
DOCKED: REMARK    3  A    between atoms: C_8  and  C_9
DOCKED: REMARK    4  A    between atoms: C_9  and  N_10
DOCKED: REMARK    5  A    between atoms: N_10  and  C_11
DOCKED: REMARK    6  A    between atoms: C_11  and  C_12
DOCKED: REMARK    7  A    between atoms: C_12  and  C_13
DOCKED: REMARK    8  A    between atoms: C_14  and  C_22
DOCKED: REMARK    9  A    between atoms: N_25  and  O_26
DOCKED: REMARK                            x       y       z     vdW  Elec       q    Type
DOCKED: REMARK                         _______ _______ _______ _____ _____    ______ ____
DOCKED: USER                              x       y       z     vdW  Elec       q    Type
DOCKED: USER                           _______ _______ _______ _____ _____    ______ ____
DOCKED: ROOT
DOCKED: ATOM      1  N   UNL     1      29.032 -15.186   0.579 -0.18 -0.00    +0.000 N 
DOCKED: ATOM      2  H   UNL     1      29.028 -15.417   1.573 -1.24 -0.00    +0.000 HD
DOCKED: ATOM      3  H   UNL     1      28.198 -14.662   0.315 -0.03 -0.00    +0.000 HD
DOCKED: ENDROOT
DOCKED: BRANCH   1   4
DOCKED: ATOM      4  C   UNL     1      29.041 -16.434  -0.195 -0.16 -0.00    +0.000 C 
DOCKED: BRANCH   4   8
DOCKED: ATOM      5  C   UNL     1      24.965 -17.370  -1.295 -0.60 -0.00    +0.000 A 
DOCKED: ATOM      6  C   UNL     1      25.712 -16.436  -2.041 -0.49 -0.00    +0.000 A 
DOCKED: ATOM      7  C   UNL     1      27.031 -16.140  -1.687 -0.35 -0.00    +0.000 A 
DOCKED: ATOM      8  C   UNL     1      27.634 -16.783  -0.596 -0.37 -0.00    +0.000 A 
DOCKED: ATOM      9  C   UNL     1      26.895 -17.713   0.148 -0.32 -0.00    +0.000 A 
DOCKED: ATOM     10  C   UNL     1      25.576 -18.012  -0.206 -0.60 -0.00    +0.000 A 
DOCKED: BRANCH   5  12
DOCKED: ATOM     11  C   UNL     1      22.689 -18.218  -0.754 -0.83 -0.00    +0.000 C 
DOCKED: ATOM     12  C   UNL     1      23.567 -17.729  -1.641 -0.56 -0.00    +0.000 C 
DOCKED: BRANCH  11  14
DOCKED: ATOM     13  O   UNL     1      20.362 -17.857  -0.709 -2.24 -0.00    +0.000 OA
DOCKED: ATOM     14  C   UNL     1      21.304 -18.591  -1.109 -0.75 -0.00    +0.000 C 
DOCKED: ATOM     15  N   UNL     1      21.006 -19.737  -1.918 -0.61 -0.00    +0.000 N 
DOCKED: ATOM     16  H   UNL     1      21.737 -20.253  -2.326 -0.57 -0.00    +0.000 HD
DOCKED: BRANCH  15  17
DOCKED: ATOM     17  O   UNL     1      19.720 -20.111  -2.123 -1.60 -0.00    +0.000 OA
DOCKED: ATOM     18  H   UNL     1      19.130 -19.371  -1.906 -0.52 -0.00    +0.000 HD
DOCKED: ENDBRANCH  15  17
DOCKED: ENDBRANCH  11  14
DOCKED: ENDBRANCH   5  12
DOCKED: ENDBRANCH   4   8
DOCKED: ENDBRANCH   1   4
DOCKED: BRANCH   1  19
DOCKED: ATOM     19  C   UNL     1      30.202 -14.343   0.295 -0.10 -0.00    +0.000 C 
DOCKED: BRANCH  19  20
DOCKED: ATOM     20  C   UNL     1      29.864 -13.159  -0.627 -0.04 -0.00    +0.000 C 
DOCKED: BRANCH  20  21
DOCKED: ATOM     21  C   UNL     1      29.694 -13.630  -2.043 -0.04 -0.00    +0.000 A 
DOCKED: ATOM     22  C   UNL     1      30.689 -14.074  -2.915 -0.03 -0.00    +0.000 A 
DOCKED: ATOM     23  N   UNL     1      30.168 -14.352  -4.134 -0.07 -0.00    +0.000 N 
DOCKED: ATOM     24  C   UNL     1      28.857 -14.068  -4.046 -0.13 -0.00    +0.000 A 
DOCKED: ATOM     25  C   UNL     1      28.531 -13.619  -2.789 -0.10 -0.00    +0.000 A 
DOCKED: ATOM     26  C   UNL     1      27.231 -13.237  -2.460 -0.16 -0.00    +0.000 A 
DOCKED: ATOM     27  C   UNL     1      26.246 -13.333  -3.461 -0.27 -0.00    +0.000 A 
DOCKED: ATOM     28  C   UNL     1      26.579 -13.799  -4.752 -0.31 -0.00    +0.000 A 
DOCKED: ATOM     29  C   UNL     1      27.901 -14.171  -5.056 -0.30 -0.00    +0.000 A 
DOCKED: ATOM     30  C   UNL     1      32.137 -14.238  -2.578 -0.01 -0.00    +0.000 C 
DOCKED: ATOM     31  H   UNL     1      30.650 -14.690  -4.923 +0.00 -0.00    +0.000 HD
DOCKED: ENDBRANCH  20  21
DOCKED: ENDBRANCH  19  20
DOCKED: ENDBRANCH   1  19
DOCKED: TORSDOF 8
DOCKED: TER
DOCKED: ENDMDL
________________________________________________________________________________


	BEGINNING GENETIC ALGORITHM DOCKING 77 of 100
Run: 77 Seed: 1971932826 1738467700 [ Run 77 of 100 GA/GALS ]
Beginning LAMARCKIAN GENETIC ALGORITHM (LGA), with a maximum of 2500000 energy evaluations.

Final-Value: -15.604


	FINAL GENETIC ALGORITHM DOCKED STATE
	_______________________________________________


Detailed state:  trans 28.154 -16.690 -0.481 quatxyzw -0.104444 0.734518 0.629189 0.231725 center 0.693 0.091 0.076 ntor 8 24.4412 -75.4576 -98.6588 178.2438 179.8999 -161.8961 -149.2663 15.0053
State:	 28.154 -16.690  -0.481  -0.107  0.755  0.647 153.203     24.44  -75.46  -98.66  178.24  179.90 -161.90 -149.27   15.01

DOCKED: MODEL       77
DOCKED: USER    Run = 77
DOCKED: USER    DPF = ligand_dock.biased.dpf
DOCKED: USER  
DOCKED: USER    Estimated Free Energy of Binding    =  -11.20 kcal/mol  [=(1)+(2)+(3)-(4)]
DOCKED: USER    Estimated Inhibition Constant, Ki   =    6.16 nM (nanomolar)  [Temperature = 298.15 K]
DOCKED: USER    
DOCKED: USER    (1) Final Intermolecular Energy     =  -13.59 kcal/mol
DOCKED: USER        vdW + Hbond + desolv Energy     =  -13.59 kcal/mol
DOCKED: USER        Electrostatic Energy            =   +0.00 kcal/mol
DOCKED: USER    (2) Final Total Internal Energy     =   -2.02 kcal/mol
DOCKED: USER    (3) Torsional Free Energy           =   +2.39 kcal/mol
DOCKED: USER    (4) Unbound System's Energy  [=(2)] =   -2.02 kcal/mol
DOCKED: USER    
DOCKED: USER    
DOCKED: USER    NEWDPF move ligand.pdbqt
DOCKED: USER    NEWDPF about 0.693000 0.091000 0.076000
DOCKED: USER    NEWDPF tran0 28.154046 -16.689656 -0.481116
DOCKED: USER    NEWDPF quaternion0 -0.104444 0.734518 0.629189 0.231725
DOCKED: USER    NEWDPF axisangle0 -0.107366 0.755070 0.646794 153.202736
DOCKED: USER    NEWDPF quat0 -0.107366 0.755070 0.646794 153.202736
DOCKED: USER    NEWDPF dihe0 24.44 -75.46 -98.66 178.24 179.90 -161.90 -149.27 15.01 
DOCKED: USER  keepresnum = 1 
DOCKED: USER  
DOCKED: REMARK  Name = 
DOCKED: REMARK  9 active torsions:
DOCKED: REMARK  status: ('A' for Active; 'I' for Inactive)
DOCKED: REMARK    1  A    between atoms: C_2  and  C_3
DOCKED: REMARK    2  A    between atoms: C_4  and  C_5
DOCKED: REMARK    3  A    between atoms: C_8  and  C_9
DOCKED: REMARK    4  A    between atoms: C_9  and  N_10
DOCKED: REMARK    5  A    between atoms: N_10  and  C_11
DOCKED: REMARK    6  A    between atoms: C_11  and  C_12
DOCKED: REMARK    7  A    between atoms: C_12  and  C_13
DOCKED: REMARK    8  A    between atoms: C_14  and  C_22
DOCKED: REMARK    9  A    between atoms: N_25  and  O_26
DOCKED: REMARK                            x       y       z     vdW  Elec       q    Type
DOCKED: REMARK                         _______ _______ _______ _____ _____    ______ ____
DOCKED: USER                              x       y       z     vdW  Elec       q    Type
DOCKED: USER                           _______ _______ _______ _____ _____    ______ ____
DOCKED: ROOT
DOCKED: ATOM      1  N   UNL     1      29.171 -16.214  -0.017 -0.20 -0.00    +0.000 N 
DOCKED: ATOM      2  H   UNL     1      29.530 -16.972   0.565 -0.50 -0.00    +0.000 HD
DOCKED: ATOM      3  H   UNL     1      28.458 -15.674   0.474 -0.21 -0.00    +0.000 HD
DOCKED: ENDROOT
DOCKED: BRANCH   1   4
DOCKED: ATOM      4  C   UNL     1      28.550 -16.793  -1.215 -0.33 -0.00    +0.000 C 
DOCKED: BRANCH   4   8
DOCKED: ATOM      5  C   UNL     1      24.402 -17.754  -0.458 -0.64 -0.00    +0.000 A 
DOCKED: ATOM      6  C   UNL     1      25.428 -18.369   0.288 -0.38 -0.00    +0.000 A 
DOCKED: ATOM      7  C   UNL     1      26.767 -18.053   0.045 -0.41 -0.00    +0.000 A 
DOCKED: ATOM      8  C   UNL     1      27.107 -17.103  -0.930 -0.44 -0.00    +0.000 A 
DOCKED: ATOM      9  C   UNL     1      26.090 -16.488  -1.674 -0.46 -0.00    +0.000 A 
DOCKED: ATOM     10  C   UNL     1      24.749 -16.803  -1.431 -0.57 -0.00    +0.000 A 
DOCKED: BRANCH   5  12
DOCKED: ATOM     11  C   UNL     1      22.142 -18.500  -1.181 -0.72 -0.00    +0.000 C 
DOCKED: ATOM     12  C   UNL     1      22.966 -18.046  -0.227 -0.79 -0.00    +0.000 C 
DOCKED: BRANCH  11  14
DOCKED: ATOM     13  O   UNL     1      19.889 -17.821  -1.070 -1.76 -0.00    +0.000 OA
DOCKED: ATOM     14  C   UNL     1      20.708 -18.771  -0.951 -0.84 -0.00    +0.000 C 
DOCKED: ATOM     15  N   UNL     1      20.221 -20.081  -0.632 -0.76 -0.00    +0.000 N 
DOCKED: ATOM     16  H   UNL     1      20.835 -20.849  -0.644 -0.06 -0.00    +0.000 HD
DOCKED: BRANCH  15  17
DOCKED: ATOM     17  O   UNL     1      18.917 -20.265  -0.313 -0.85 -0.00    +0.000 OA
DOCKED: ATOM     18  H   UNL     1      18.386 -19.553  -0.703 -0.48 -0.00    +0.000 HD
DOCKED: ENDBRANCH  15  17
DOCKED: ENDBRANCH  11  14
DOCKED: ENDBRANCH   5  12
DOCKED: ENDBRANCH   4   8
DOCKED: ENDBRANCH   1   4
DOCKED: BRANCH   1  19
DOCKED: ATOM     19  C   UNL     1      30.278 -15.304  -0.344 -0.13 -0.00    +0.000 C 
DOCKED: BRANCH  19  20
DOCKED: ATOM     20  C   UNL     1      30.098 -13.910   0.281 -0.09 -0.00    +0.000 C 
DOCKED: BRANCH  20  21
DOCKED: ATOM     21  C   UNL     1      28.877 -13.883   1.155 -0.16 -0.00    +0.000 A 
DOCKED: ATOM     22  C   UNL     1      27.570 -13.567   0.780 -0.22 -0.00    +0.000 A 
DOCKED: ATOM     23  N   UNL     1      26.747 -13.581   1.855 -0.29 -0.00    +0.000 N 
DOCKED: ATOM     24  C   UNL     1      27.525 -13.882   2.909 -0.33 -0.00    +0.000 A 
DOCKED: ATOM     25  C   UNL     1      28.830 -14.067   2.524 -0.23 -0.00    +0.000 A 
DOCKED: ATOM     26  C   UNL     1      29.833 -14.364   3.447 -0.25 -0.00    +0.000 A 
DOCKED: ATOM     27  C   UNL     1      29.465 -14.481   4.800 -0.34 -0.00    +0.000 A 
DOCKED: ATOM     28  C   UNL     1      28.122 -14.297   5.196 -0.45 -0.00    +0.000 A 
DOCKED: ATOM     29  C   UNL     1      27.134 -13.991   4.243 -0.45 -0.00    +0.000 A 
DOCKED: ATOM     30  C   UNL     1      27.111 -13.260  -0.610 -0.22 -0.00    +0.000 C 
DOCKED: ATOM     31  H   UNL     1      25.778 -13.406   1.863 -0.03 -0.00    +0.000 HD
DOCKED: ENDBRANCH  20  21
DOCKED: ENDBRANCH  19  20
DOCKED: ENDBRANCH   1  19
DOCKED: TORSDOF 8
DOCKED: TER
DOCKED: ENDMDL
________________________________________________________________________________


	BEGINNING GENETIC ALGORITHM DOCKING 78 of 100
Run: 78 Seed: 918097951 562255854 [ Run 78 of 100 GA/GALS ]
Beginning LAMARCKIAN GENETIC ALGORITHM (LGA), with a maximum of 2500000 energy evaluations.

Final-Value: -16.414


	FINAL GENETIC ALGORITHM DOCKED STATE
	_______________________________________________


Detailed state:  trans 28.660 -16.117 -0.273 quatxyzw 0.052009 -0.639120 -0.766554 -0.034867 center 0.693 0.091 0.076 ntor 8 16.1596 -166.1909 132.2395 -5.6260 -116.4323 172.1986 53.3680 -4.5353
State:	 28.660 -16.117  -0.273   0.052 -0.640 -0.767 -176.004     16.16 -166.19  132.24   -5.63 -116.43  172.20   53.37   -4.54

DOCKED: MODEL       78
DOCKED: USER    Run = 78
DOCKED: USER    DPF = ligand_dock.biased.dpf
DOCKED: USER  
DOCKED: USER    Estimated Free Energy of Binding    =  -12.05 kcal/mol  [=(1)+(2)+(3)-(4)]
DOCKED: USER    Estimated Inhibition Constant, Ki   =    1.48 nM (nanomolar)  [Temperature = 298.15 K]
DOCKED: USER    
DOCKED: USER    (1) Final Intermolecular Energy     =  -14.43 kcal/mol
DOCKED: USER        vdW + Hbond + desolv Energy     =  -14.43 kcal/mol
DOCKED: USER        Electrostatic Energy            =   +0.00 kcal/mol
DOCKED: USER    (2) Final Total Internal Energy     =   -1.98 kcal/mol
DOCKED: USER    (3) Torsional Free Energy           =   +2.39 kcal/mol
DOCKED: USER    (4) Unbound System's Energy  [=(2)] =   -1.98 kcal/mol
DOCKED: USER    
DOCKED: USER    
DOCKED: USER    NEWDPF move ligand.pdbqt
DOCKED: USER    NEWDPF about 0.693000 0.091000 0.076000
DOCKED: USER    NEWDPF tran0 28.659591 -16.116986 -0.273283
DOCKED: USER    NEWDPF quaternion0 0.052009 -0.639120 -0.766554 -0.034867
DOCKED: USER    NEWDPF axisangle0 0.052041 -0.639509 -0.767020 -176.003676
DOCKED: USER    NEWDPF quat0 0.052041 -0.639509 -0.767020 -176.003676
DOCKED: USER    NEWDPF dihe0 16.16 -166.19 132.24 -5.63 -116.43 172.20 53.37 -4.54 
DOCKED: USER  keepresnum = 1 
DOCKED: USER  
DOCKED: REMARK  Name = 
DOCKED: REMARK  9 active torsions:
DOCKED: REMARK  status: ('A' for Active; 'I' for Inactive)
DOCKED: REMARK    1  A    between atoms: C_2  and  C_3
DOCKED: REMARK    2  A    between atoms: C_4  and  C_5
DOCKED: REMARK    3  A    between atoms: C_8  and  C_9
DOCKED: REMARK    4  A    between atoms: C_9  and  N_10
DOCKED: REMARK    5  A    between atoms: N_10  and  C_11
DOCKED: REMARK    6  A    between atoms: C_11  and  C_12
DOCKED: REMARK    7  A    between atoms: C_12  and  C_13
DOCKED: REMARK    8  A    between atoms: C_14  and  C_22
DOCKED: REMARK    9  A    between atoms: N_25  and  O_26
DOCKED: REMARK                            x       y       z     vdW  Elec       q    Type
DOCKED: REMARK                         _______ _______ _______ _____ _____    ______ ____
DOCKED: USER                              x       y       z     vdW  Elec       q    Type
DOCKED: USER                           _______ _______ _______ _____ _____    ______ ____
DOCKED: ROOT
DOCKED: ATOM      1  N   UNL     1      29.657 -16.227   0.412 -0.01 -0.00    +0.000 N 
DOCKED: ATOM      2  H   UNL     1      29.616 -17.201   0.715 -0.47 -0.00    +0.000 HD
DOCKED: ATOM      3  H   UNL     1      29.077 -15.630   1.001 -0.74 -0.00    +0.000 HD
DOCKED: ENDROOT
DOCKED: BRANCH   1   4
DOCKED: ATOM      4  C   UNL     1      29.142 -16.138  -0.960 -0.23 -0.00    +0.000 C 
DOCKED: BRANCH   4   8
DOCKED: ATOM      5  C   UNL     1      24.886 -16.898  -0.894 -0.56 -0.00    +0.000 A 
DOCKED: ATOM      6  C   UNL     1      25.424 -15.909  -1.742 -0.47 -0.00    +0.000 A 
DOCKED: ATOM      7  C   UNL     1      26.800 -15.669  -1.765 -0.34 -0.00    +0.000 A 
DOCKED: ATOM      8  C   UNL     1      27.666 -16.425  -0.961 -0.34 -0.00    +0.000 A 
DOCKED: ATOM      9  C   UNL     1      27.135 -17.410  -0.116 -0.39 -0.00    +0.000 A 
DOCKED: ATOM     10  C   UNL     1      25.758 -17.652  -0.092 -0.51 -0.00    +0.000 A 
DOCKED: BRANCH   5  12
DOCKED: ATOM     11  C   UNL     1      22.893 -18.319  -1.345 -0.74 -0.00    +0.000 C 
DOCKED: ATOM     12  C   UNL     1      23.434 -17.200  -0.845 -0.71 -0.00    +0.000 C 
DOCKED: BRANCH  11  14
DOCKED: ATOM     13  O   UNL     1      20.687 -17.799  -0.706 -2.28 -0.00    +0.000 OA
DOCKED: ATOM     14  C   UNL     1      21.444 -18.604  -1.309 -0.48 -0.00    +0.000 C 
DOCKED: ATOM     15  N   UNL     1      20.875 -19.744  -1.967 -0.63 -0.00    +0.000 N 
DOCKED: ATOM     16  H   UNL     1      21.440 -20.317  -2.532 -0.57 -0.00    +0.000 HD
DOCKED: BRANCH  15  17
DOCKED: ATOM     17  O   UNL     1      19.560 -20.034  -1.813 -1.49 -0.00    +0.000 OA
DOCKED: ATOM     18  H   UNL     1      19.099 -19.260  -1.454 -0.51 -0.00    +0.000 HD
DOCKED: ENDBRANCH  15  17
DOCKED: ENDBRANCH  11  14
DOCKED: ENDBRANCH   5  12
DOCKED: ENDBRANCH   4   8
DOCKED: ENDBRANCH   1   4
DOCKED: BRANCH   1  19
DOCKED: ATOM     19  C   UNL     1      31.045 -15.755   0.521 -0.13 -0.00    +0.000 C 
DOCKED: BRANCH  19  20
DOCKED: ATOM     20  C   UNL     1      31.136 -14.313   1.049 -0.09 -0.00    +0.000 C 
DOCKED: BRANCH  20  21
DOCKED: ATOM     21  C   UNL     1      30.699 -14.254   2.485 -0.15 -0.00    +0.000 A 
DOCKED: ATOM     22  C   UNL     1      31.482 -14.469   3.621 -0.20 -0.00    +0.000 A 
DOCKED: ATOM     23  N   UNL     1      30.726 -14.400   4.743 -0.28 -0.00    +0.000 N 
DOCKED: ATOM     24  C   UNL     1      29.470 -14.164   4.326 -0.35 -0.00    +0.000 A 
DOCKED: ATOM     25  C   UNL     1      29.412 -14.075   2.956 -0.23 -0.00    +0.000 A 
DOCKED: ATOM     26  C   UNL     1      28.209 -13.858   2.285 -0.26 -0.00    +0.000 A 
DOCKED: ATOM     27  C   UNL     1      27.041 -13.722   3.059 -0.31 -0.00    +0.000 A 
DOCKED: ATOM     28  C   UNL     1      27.101 -13.809   4.467 -0.39 -0.00    +0.000 A 
DOCKED: ATOM     29  C   UNL     1      28.329 -14.034   5.116 -0.48 -0.00    +0.000 A 
DOCKED: ATOM     30  C   UNL     1      32.953 -14.733   3.630 -0.10 -0.00    +0.000 C 
DOCKED: ATOM     31  H   UNL     1      31.033 -14.503   5.672 -0.03 -0.00    +0.000 HD
DOCKED: ENDBRANCH  20  21
DOCKED: ENDBRANCH  19  20
DOCKED: ENDBRANCH   1  19
DOCKED: TORSDOF 8
DOCKED: TER
DOCKED: ENDMDL
________________________________________________________________________________


	BEGINNING GENETIC ALGORITHM DOCKING 79 of 100
Run: 79 Seed: 1295545356 884491971 [ Run 79 of 100 GA/GALS ]
Beginning LAMARCKIAN GENETIC ALGORITHM (LGA), with a maximum of 2500000 energy evaluations.

Final-Value: -16.649


	FINAL GENETIC ALGORITHM DOCKED STATE
	_______________________________________________


Detailed state:  trans 28.885 -16.596 -0.538 quatxyzw 0.117127 -0.628175 -0.757463 -0.133892 center 0.693 0.091 0.076 ntor 8 15.4836 -179.8267 -43.5304 177.4413 -173.6851 170.4850 -118.5278 14.3756
State:	 28.885 -16.596  -0.538   0.118 -0.634 -0.764 -164.611     15.48 -179.83  -43.53  177.44 -173.69  170.48 -118.53   14.38

DOCKED: MODEL       79
DOCKED: USER    Run = 79
DOCKED: USER    DPF = ligand_dock.biased.dpf
DOCKED: USER  
DOCKED: USER    Estimated Free Energy of Binding    =  -12.04 kcal/mol  [=(1)+(2)+(3)-(4)]
DOCKED: USER    Estimated Inhibition Constant, Ki   =    1.50 nM (nanomolar)  [Temperature = 298.15 K]
DOCKED: USER    
DOCKED: USER    (1) Final Intermolecular Energy     =  -14.42 kcal/mol
DOCKED: USER        vdW + Hbond + desolv Energy     =  -14.42 kcal/mol
DOCKED: USER        Electrostatic Energy            =   +0.00 kcal/mol
DOCKED: USER    (2) Final Total Internal Energy     =   -2.23 kcal/mol
DOCKED: USER    (3) Torsional Free Energy           =   +2.39 kcal/mol
DOCKED: USER    (4) Unbound System's Energy  [=(2)] =   -2.23 kcal/mol
DOCKED: USER    
DOCKED: USER    
DOCKED: USER    NEWDPF move ligand.pdbqt
DOCKED: USER    NEWDPF about 0.693000 0.091000 0.076000
DOCKED: USER    NEWDPF tran0 28.885424 -16.595988 -0.538118
DOCKED: USER    NEWDPF quaternion0 0.117127 -0.628175 -0.757463 -0.133892
DOCKED: USER    NEWDPF axisangle0 0.118192 -0.633882 -0.764346 -164.610893
DOCKED: USER    NEWDPF quat0 0.118192 -0.633882 -0.764346 -164.610893
DOCKED: USER    NEWDPF dihe0 15.48 -179.83 -43.53 177.44 -173.69 170.48 -118.53 14.38 
DOCKED: USER  keepresnum = 1 
DOCKED: USER  
DOCKED: REMARK  Name = 
DOCKED: REMARK  9 active torsions:
DOCKED: REMARK  status: ('A' for Active; 'I' for Inactive)
DOCKED: REMARK    1  A    between atoms: C_2  and  C_3
DOCKED: REMARK    2  A    between atoms: C_4  and  C_5
DOCKED: REMARK    3  A    between atoms: C_8  and  C_9
DOCKED: REMARK    4  A    between atoms: C_9  and  N_10
DOCKED: REMARK    5  A    between atoms: N_10  and  C_11
DOCKED: REMARK    6  A    between atoms: C_11  and  C_12
DOCKED: REMARK    7  A    between atoms: C_12  and  C_13
DOCKED: REMARK    8  A    between atoms: C_14  and  C_22
DOCKED: REMARK    9  A    between atoms: N_25  and  O_26
DOCKED: REMARK                            x       y       z     vdW  Elec       q    Type
DOCKED: REMARK                         _______ _______ _______ _____ _____    ______ ____
DOCKED: USER                              x       y       z     vdW  Elec       q    Type
DOCKED: USER                           _______ _______ _______ _____ _____    ______ ____
DOCKED: ROOT
DOCKED: ATOM      1  N   UNL     1      29.898 -16.466   0.120 -0.13 -0.00    +0.000 N 
DOCKED: ATOM      2  H   UNL     1      30.096 -17.421   0.421 -0.36 -0.00    +0.000 HD
DOCKED: ATOM      3  H   UNL     1      29.210 -16.020   0.726 -0.63 -0.00    +0.000 HD
DOCKED: ENDROOT
DOCKED: BRANCH   1   4
DOCKED: ATOM      4  C   UNL     1      29.341 -16.506  -1.238 -0.24 -0.00    +0.000 C 
DOCKED: BRANCH   4   8
DOCKED: ATOM      5  C   UNL     1      25.061 -17.096  -1.069 -0.58 -0.00    +0.000 A 
DOCKED: ATOM      6  C   UNL     1      25.897 -17.626  -0.066 -0.50 -0.00    +0.000 A 
DOCKED: ATOM      7  C   UNL     1      27.279 -17.429  -0.120 -0.33 -0.00    +0.000 A 
DOCKED: ATOM      8  C   UNL     1      27.850 -16.684  -1.162 -0.34 -0.00    +0.000 A 
DOCKED: ATOM      9  C   UNL     1      27.022 -16.155  -2.162 -0.34 -0.00    +0.000 A 
DOCKED: ATOM     10  C   UNL     1      25.639 -16.350  -2.109 -0.50 -0.00    +0.000 A 
DOCKED: BRANCH   5  12
DOCKED: ATOM     11  C   UNL     1      22.977 -18.447  -1.215 -0.79 -0.00    +0.000 C 
DOCKED: ATOM     12  C   UNL     1      23.587 -17.266  -1.048 -0.72 -0.00    +0.000 C 
DOCKED: BRANCH  11  14
DOCKED: ATOM     13  O   UNL     1      20.804 -17.691  -0.710 -2.18 -0.00    +0.000 OA
DOCKED: ATOM     14  C   UNL     1      21.508 -18.607  -1.212 -0.63 -0.00    +0.000 C 
DOCKED: ATOM     15  N   UNL     1      20.864 -19.750  -1.790 -0.71 -0.00    +0.000 N 
DOCKED: ATOM     16  H   UNL     1      21.395 -20.416  -2.281 -0.52 -0.00    +0.000 HD
DOCKED: BRANCH  15  17
DOCKED: ATOM     17  O   UNL     1      19.525 -19.914  -1.664 -1.51 -0.00    +0.000 OA
DOCKED: ATOM     18  H   UNL     1      19.122 -19.078  -1.381 -0.51 -0.00    +0.000 HD
DOCKED: ENDBRANCH  15  17
DOCKED: ENDBRANCH  11  14
DOCKED: ENDBRANCH   5  12
DOCKED: ENDBRANCH   4   8
DOCKED: ENDBRANCH   1   4
DOCKED: BRANCH   1  19
DOCKED: ATOM     19  C   UNL     1      31.139 -15.680   0.194 -0.12 -0.00    +0.000 C 
DOCKED: BRANCH  19  20
DOCKED: ATOM     20  C   UNL     1      30.896 -14.242   0.683 -0.08 -0.00    +0.000 C 
DOCKED: BRANCH  20  21
DOCKED: ATOM     21  C   UNL     1      29.495 -14.098   1.205 -0.14 -0.00    +0.000 A 
DOCKED: ATOM     22  C   UNL     1      28.356 -13.725   0.490 -0.15 -0.00    +0.000 A 
DOCKED: ATOM     23  N   UNL     1      27.283 -13.634   1.311 -0.28 -0.00    +0.000 N 
DOCKED: ATOM     24  C   UNL     1      27.737 -13.926   2.542 -0.31 -0.00    +0.000 A 
DOCKED: ATOM     25  C   UNL     1      29.082 -14.208   2.519 -0.19 -0.00    +0.000 A 
DOCKED: ATOM     26  C   UNL     1      29.786 -14.517   3.683 -0.27 -0.00    +0.000 A 
DOCKED: ATOM     27  C   UNL     1      29.073 -14.542   4.895 -0.36 -0.00    +0.000 A 
DOCKED: ATOM     28  C   UNL     1      27.690 -14.257   4.919 -0.51 -0.00    +0.000 A 
DOCKED: ATOM     29  C   UNL     1      27.007 -13.942   3.729 -0.33 -0.00    +0.000 A 
DOCKED: ATOM     30  C   UNL     1      28.296 -13.462  -0.981 -0.13 -0.00    +0.000 C 
DOCKED: ATOM     31  H   UNL     1      26.361 -13.401   1.059 -0.02 -0.00    +0.000 HD
DOCKED: ENDBRANCH  20  21
DOCKED: ENDBRANCH  19  20
DOCKED: ENDBRANCH   1  19
DOCKED: TORSDOF 8
DOCKED: TER
DOCKED: ENDMDL
________________________________________________________________________________


	BEGINNING GENETIC ALGORITHM DOCKING 80 of 100
Run: 80 Seed: 1529817316 891225568 [ Run 80 of 100 GA/GALS ]
Beginning LAMARCKIAN GENETIC ALGORITHM (LGA), with a maximum of 2500000 energy evaluations.

Final-Value: -15.109


	FINAL GENETIC ALGORITHM DOCKED STATE
	_______________________________________________


Detailed state:  trans 27.496 -16.456 0.027 quatxyzw -0.105943 0.893235 0.154919 0.408542 center 0.693 0.091 0.076 ntor 8 -3.3633 -81.9252 172.2230 -162.7410 -46.0501 95.0299 -48.4444 54.6358
State:	 27.496 -16.456   0.027  -0.116  0.979  0.170 131.773     -3.36  -81.93  172.22 -162.74  -46.05   95.03  -48.44   54.64

DOCKED: MODEL       80
DOCKED: USER    Run = 80
DOCKED: USER    DPF = ligand_dock.biased.dpf
DOCKED: USER  
DOCKED: USER    Estimated Free Energy of Binding    =  -10.96 kcal/mol  [=(1)+(2)+(3)-(4)]
DOCKED: USER    Estimated Inhibition Constant, Ki   =    9.23 nM (nanomolar)  [Temperature = 298.15 K]
DOCKED: USER    
DOCKED: USER    (1) Final Intermolecular Energy     =  -13.35 kcal/mol
DOCKED: USER        vdW + Hbond + desolv Energy     =  -13.35 kcal/mol
DOCKED: USER        Electrostatic Energy            =   +0.00 kcal/mol
DOCKED: USER    (2) Final Total Internal Energy     =   -1.76 kcal/mol
DOCKED: USER    (3) Torsional Free Energy           =   +2.39 kcal/mol
DOCKED: USER    (4) Unbound System's Energy  [=(2)] =   -1.76 kcal/mol
DOCKED: USER    
DOCKED: USER    
DOCKED: USER    NEWDPF move ligand.pdbqt
DOCKED: USER    NEWDPF about 0.693000 0.091000 0.076000
DOCKED: USER    NEWDPF tran0 27.496312 -16.456262 0.027443
DOCKED: USER    NEWDPF quaternion0 -0.105943 0.893235 0.154919 0.408542
DOCKED: USER    NEWDPF axisangle0 -0.116071 0.978631 0.169730 131.773443
DOCKED: USER    NEWDPF quat0 -0.116071 0.978631 0.169730 131.773443
DOCKED: USER    NEWDPF dihe0 -3.36 -81.93 172.22 -162.74 -46.05 95.03 -48.44 54.64 
DOCKED: USER  keepresnum = 1 
DOCKED: USER  
DOCKED: REMARK  Name = 
DOCKED: REMARK  9 active torsions:
DOCKED: REMARK  status: ('A' for Active; 'I' for Inactive)
DOCKED: REMARK    1  A    between atoms: C_2  and  C_3
DOCKED: REMARK    2  A    between atoms: C_4  and  C_5
DOCKED: REMARK    3  A    between atoms: C_8  and  C_9
DOCKED: REMARK    4  A    between atoms: C_9  and  N_10
DOCKED: REMARK    5  A    between atoms: N_10  and  C_11
DOCKED: REMARK    6  A    between atoms: C_11  and  C_12
DOCKED: REMARK    7  A    between atoms: C_12  and  C_13
DOCKED: REMARK    8  A    between atoms: C_14  and  C_22
DOCKED: REMARK    9  A    between atoms: N_25  and  O_26
DOCKED: REMARK                            x       y       z     vdW  Elec       q    Type
DOCKED: REMARK                         _______ _______ _______ _____ _____    ______ ____
DOCKED: USER                              x       y       z     vdW  Elec       q    Type
DOCKED: USER                           _______ _______ _______ _____ _____    ______ ____
DOCKED: ROOT
DOCKED: ATOM      1  N   UNL     1      28.181 -15.528  -0.354 -0.24 -0.00    +0.000 N 
DOCKED: ATOM      2  H   UNL     1      28.738 -15.303   0.471 -0.15 -0.00    +0.000 HD
DOCKED: ATOM      3  H   UNL     1      27.261 -15.091  -0.313 -0.00 -0.00    +0.000 HD
DOCKED: ENDROOT
DOCKED: BRANCH   1   4
DOCKED: ATOM      4  C   UNL     1      27.985 -16.982  -0.408 -0.35 -0.00    +0.000 C 
DOCKED: BRANCH   4   8
DOCKED: ATOM      5  C   UNL     1      23.751 -17.794  -0.748 -0.70 -0.00    +0.000 A 
DOCKED: ATOM      6  C   UNL     1      24.334 -16.722  -1.454 -0.55 -0.00    +0.000 A 
DOCKED: ATOM      7  C   UNL     1      25.703 -16.466  -1.347 -0.49 -0.00    +0.000 A 
DOCKED: ATOM      8  C   UNL     1      26.519 -17.284  -0.552 -0.50 -0.00    +0.000 A 
DOCKED: ATOM      9  C   UNL     1      25.943 -18.351   0.153 -0.53 -0.00    +0.000 A 
DOCKED: ATOM     10  C   UNL     1      24.573 -18.610   0.046 -0.36 -0.00    +0.000 A 
DOCKED: BRANCH   5  12
DOCKED: ATOM     11  C   UNL     1      21.816 -19.358  -0.740 -0.80 -0.00    +0.000 C 
DOCKED: ATOM     12  C   UNL     1      22.305 -18.115  -0.841 -0.81 -0.00    +0.000 C 
DOCKED: BRANCH  11  14
DOCKED: ATOM     13  O   UNL     1      19.863 -19.740  -2.000 -1.88 -0.00    +0.000 OA
DOCKED: ATOM     14  C   UNL     1      20.377 -19.674  -0.852 -0.88 -0.00    +0.000 C 
DOCKED: ATOM     15  N   UNL     1      19.563 -19.939   0.298 -0.74 -0.00    +0.000 N 
DOCKED: ATOM     16  H   UNL     1      19.976 -19.998   1.188 -0.05 -0.00    +0.000 HD
DOCKED: BRANCH  15  17
DOCKED: ATOM     17  O   UNL     1      18.225 -20.109   0.161 -0.77 -0.00    +0.000 OA
DOCKED: ATOM     18  H   UNL     1      17.975 -19.968  -0.765 -0.42 -0.00    +0.000 HD
DOCKED: ENDBRANCH  15  17
DOCKED: ENDBRANCH  11  14
DOCKED: ENDBRANCH   5  12
DOCKED: ENDBRANCH   4   8
DOCKED: ENDBRANCH   1   4
DOCKED: BRANCH   1  19
DOCKED: ATOM     19  C   UNL     1      28.872 -15.012  -1.545 -0.16 -0.00    +0.000 C 
DOCKED: BRANCH  19  20
DOCKED: ATOM     20  C   UNL     1      28.738 -15.951  -2.756 -0.25 -0.00    +0.000 C 
DOCKED: BRANCH  20  21
DOCKED: ATOM     21  C   UNL     1      28.486 -15.159  -4.007 -0.24 -0.00    +0.000 A 
DOCKED: ATOM     22  C   UNL     1      27.325 -14.464  -4.353 -0.33 -0.00    +0.000 A 
DOCKED: ATOM     23  N   UNL     1      27.441 -13.926  -5.590 -0.32 -0.00    +0.000 N 
DOCKED: ATOM     24  C   UNL     1      28.654 -14.292  -6.038 -0.31 -0.00    +0.000 A 
DOCKED: ATOM     25  C   UNL     1      29.318 -15.049  -5.104 -0.24 -0.00    +0.000 A 
DOCKED: ATOM     26  C   UNL     1      30.590 -15.568  -5.350 -0.16 -0.00    +0.000 A 
DOCKED: ATOM     27  C   UNL     1      31.186 -15.283  -6.592 -0.18 -0.00    +0.000 A 
DOCKED: ATOM     28  C   UNL     1      30.506 -14.501  -7.551 -0.18 -0.00    +0.000 A 
DOCKED: ATOM     29  C   UNL     1      29.221 -13.996  -7.277 -0.28 -0.00    +0.000 A 
DOCKED: ATOM     30  C   UNL     1      26.111 -14.310  -3.494 -0.46 -0.00    +0.000 C 
DOCKED: ATOM     31  H   UNL     1      26.773 -13.381  -6.065 -0.01 -0.00    +0.000 HD
DOCKED: ENDBRANCH  20  21
DOCKED: ENDBRANCH  19  20
DOCKED: ENDBRANCH   1  19
DOCKED: TORSDOF 8
DOCKED: TER
DOCKED: ENDMDL
________________________________________________________________________________


	BEGINNING GENETIC ALGORITHM DOCKING 81 of 100
Run: 81 Seed: 506657168 895707263 [ Run 81 of 100 GA/GALS ]
Beginning LAMARCKIAN GENETIC ALGORITHM (LGA), with a maximum of 2500000 energy evaluations.

Final-Value: -15.037


	FINAL GENETIC ALGORITHM DOCKED STATE
	_______________________________________________


Detailed state:  trans 27.857 -16.732 -0.545 quatxyzw -0.155048 0.443311 0.848424 0.244156 center 0.693 0.091 0.076 ntor 8 10.1317 -15.2030 109.1767 168.9463 -170.2145 -20.5528 51.3965 14.8992
State:	 27.857 -16.732  -0.545  -0.160  0.457  0.875 151.736     10.13  -15.20  109.18  168.95 -170.21  -20.55   51.40   14.90

DOCKED: MODEL       81
DOCKED: USER    Run = 81
DOCKED: USER    DPF = ligand_dock.biased.dpf
DOCKED: USER  
DOCKED: USER    Estimated Free Energy of Binding    =  -10.67 kcal/mol  [=(1)+(2)+(3)-(4)]
DOCKED: USER    Estimated Inhibition Constant, Ki   =   15.14 nM (nanomolar)  [Temperature = 298.15 K]
DOCKED: USER    
DOCKED: USER    (1) Final Intermolecular Energy     =  -13.05 kcal/mol
DOCKED: USER        vdW + Hbond + desolv Energy     =  -13.05 kcal/mol
DOCKED: USER        Electrostatic Energy            =   +0.00 kcal/mol
DOCKED: USER    (2) Final Total Internal Energy     =   -1.98 kcal/mol
DOCKED: USER    (3) Torsional Free Energy           =   +2.39 kcal/mol
DOCKED: USER    (4) Unbound System's Energy  [=(2)] =   -1.98 kcal/mol
DOCKED: USER    
DOCKED: USER    
DOCKED: USER    NEWDPF move ligand.pdbqt
DOCKED: USER    NEWDPF about 0.693000 0.091000 0.076000
DOCKED: USER    NEWDPF tran0 27.856535 -16.732415 -0.545336
DOCKED: USER    NEWDPF quaternion0 -0.155048 0.443311 0.848424 0.244156
DOCKED: USER    NEWDPF axisangle0 -0.159887 0.457146 0.874902 151.736116
DOCKED: USER    NEWDPF quat0 -0.159887 0.457146 0.874902 151.736116
DOCKED: USER    NEWDPF dihe0 10.13 -15.20 109.18 168.95 -170.21 -20.55 51.40 14.90 
DOCKED: USER  keepresnum = 1 
DOCKED: USER  
DOCKED: REMARK  Name = 
DOCKED: REMARK  9 active torsions:
DOCKED: REMARK  status: ('A' for Active; 'I' for Inactive)
DOCKED: REMARK    1  A    between atoms: C_2  and  C_3
DOCKED: REMARK    2  A    between atoms: C_4  and  C_5
DOCKED: REMARK    3  A    between atoms: C_8  and  C_9
DOCKED: REMARK    4  A    between atoms: C_9  and  N_10
DOCKED: REMARK    5  A    between atoms: N_10  and  C_11
DOCKED: REMARK    6  A    between atoms: C_11  and  C_12
DOCKED: REMARK    7  A    between atoms: C_12  and  C_13
DOCKED: REMARK    8  A    between atoms: C_14  and  C_22
DOCKED: REMARK    9  A    between atoms: N_25  and  O_26
DOCKED: REMARK                            x       y       z     vdW  Elec       q    Type
DOCKED: REMARK                         _______ _______ _______ _____ _____    ______ ____
DOCKED: USER                              x       y       z     vdW  Elec       q    Type
DOCKED: USER                           _______ _______ _______ _____ _____    ______ ____
DOCKED: ROOT
DOCKED: ATOM      1  N   UNL     1      28.931 -16.587   0.004 -0.18 -0.00    +0.000 N 
DOCKED: ATOM      2  H   UNL     1      29.368 -17.502  -0.109 -0.38 -0.00    +0.000 HD
DOCKED: ATOM      3  H   UNL     1      28.296 -16.573   0.802 -0.56 -0.00    +0.000 HD
DOCKED: ENDROOT
DOCKED: BRANCH   1   4
DOCKED: ATOM      4  C   UNL     1      28.143 -16.290  -1.199 -0.33 -0.00    +0.000 C 
DOCKED: BRANCH   4   8
DOCKED: ATOM      5  C   UNL     1      24.147 -17.852  -0.654 -0.69 -0.00    +0.000 A 
DOCKED: ATOM      6  C   UNL     1      24.349 -16.592  -1.255 -0.49 -0.00    +0.000 A 
DOCKED: ATOM      7  C   UNL     1      25.641 -16.092  -1.434 -0.47 -0.00    +0.000 A 
DOCKED: ATOM      8  C   UNL     1      26.755 -16.847  -1.039 -0.44 -0.00    +0.000 A 
DOCKED: ATOM      9  C   UNL     1      26.560 -18.100  -0.442 -0.52 -0.00    +0.000 A 
DOCKED: ATOM     10  C   UNL     1      25.267 -18.602  -0.262 -0.51 -0.00    +0.000 A 
DOCKED: BRANCH   5  12
DOCKED: ATOM     11  C   UNL     1      22.145 -19.129  -1.395 -0.69 -0.00    +0.000 C 
DOCKED: ATOM     12  C   UNL     1      22.796 -18.431  -0.455 -0.83 -0.00    +0.000 C 
DOCKED: BRANCH  11  14
DOCKED: ATOM     13  O   UNL     1      20.012 -19.742  -2.186 -1.89 -0.00    +0.000 OA
DOCKED: ATOM     14  C   UNL     1      20.792 -19.688  -1.198 -0.79 -0.00    +0.000 C 
DOCKED: ATOM     15  N   UNL     1      20.355 -20.198   0.069 -0.71 -0.00    +0.000 N 
DOCKED: ATOM     16  H   UNL     1      20.989 -20.262   0.817 -0.54 -0.00    +0.000 HD
DOCKED: BRANCH  15  17
DOCKED: ATOM     17  O   UNL     1      19.070 -20.593   0.238 -0.80 -0.00    +0.000 OA
DOCKED: ATOM     18  H   UNL     1      18.624 -20.619  -0.623 -0.32 -0.00    +0.000 HD
DOCKED: ENDBRANCH  15  17
DOCKED: ENDBRANCH  11  14
DOCKED: ENDBRANCH   5  12
DOCKED: ENDBRANCH   4   8
DOCKED: ENDBRANCH   1   4
DOCKED: BRANCH   1  19
DOCKED: ATOM     19  C   UNL     1      29.981 -15.587   0.246 -0.14 -0.00    +0.000 C 
DOCKED: BRANCH  19  20
DOCKED: ATOM     20  C   UNL     1      31.331 -15.992  -0.371 -0.11 -0.00    +0.000 C 
DOCKED: BRANCH  20  21
DOCKED: ATOM     21  C   UNL     1      31.144 -17.120  -1.344 -0.13 -0.00    +0.000 A 
DOCKED: ATOM     22  C   UNL     1      31.357 -18.481  -1.118 -0.15 -0.00    +0.000 A 
DOCKED: ATOM     23  N   UNL     1      31.151 -19.192  -2.253 -0.16 -0.00    +0.000 N 
DOCKED: ATOM     24  C   UNL     1      30.830 -18.291  -3.197 -0.13 -0.00    +0.000 A 
DOCKED: ATOM     25  C   UNL     1      30.822 -17.017  -2.684 -0.13 -0.00    +0.000 A 
DOCKED: ATOM     26  C   UNL     1      30.540 -15.907  -3.480 -0.11 -0.00    +0.000 A 
DOCKED: ATOM     27  C   UNL     1      30.252 -16.130  -4.839 -0.20 -0.00    +0.000 A 
DOCKED: ATOM     28  C   UNL     1      30.256 -17.440  -5.367 -0.29 -0.00    +0.000 A 
DOCKED: ATOM     29  C   UNL     1      30.550 -18.541  -4.540 -0.20 -0.00    +0.000 A 
DOCKED: ATOM     30  C   UNL     1      31.751 -19.098   0.185 -0.16 -0.00    +0.000 C 
DOCKED: ATOM     31  H   UNL     1      31.223 -20.167  -2.362 -0.01 -0.00    +0.000 HD
DOCKED: ENDBRANCH  20  21
DOCKED: ENDBRANCH  19  20
DOCKED: ENDBRANCH   1  19
DOCKED: TORSDOF 8
DOCKED: TER
DOCKED: ENDMDL
________________________________________________________________________________


	BEGINNING GENETIC ALGORITHM DOCKING 82 of 100
Run: 82 Seed: 795942700 882720714 [ Run 82 of 100 GA/GALS ]
Beginning LAMARCKIAN GENETIC ALGORITHM (LGA), with a maximum of 2500000 energy evaluations.

Final-Value: -15.958


	FINAL GENETIC ALGORITHM DOCKED STATE
	_______________________________________________


Detailed state:  trans 29.337 -15.226 -1.373 quatxyzw -0.392933 -0.707853 0.255917 -0.528255 center 0.693 0.091 0.076 ntor 8 29.0314 -173.1589 180.0000 26.0516 141.0077 -122.8886 -173.0771 97.6604
State:	 29.337 -15.226  -1.373  -0.463 -0.834  0.301 -116.225     29.03 -173.16  180.00   26.05  141.01 -122.89 -173.08   97.66

DOCKED: MODEL       82
DOCKED: USER    Run = 82
DOCKED: USER    DPF = ligand_dock.biased.dpf
DOCKED: USER  
DOCKED: USER    Estimated Free Energy of Binding    =  -11.04 kcal/mol  [=(1)+(2)+(3)-(4)]
DOCKED: USER    Estimated Inhibition Constant, Ki   =    8.08 nM (nanomolar)  [Temperature = 298.15 K]
DOCKED: USER    
DOCKED: USER    (1) Final Intermolecular Energy     =  -13.43 kcal/mol
DOCKED: USER        vdW + Hbond + desolv Energy     =  -13.43 kcal/mol
DOCKED: USER        Electrostatic Energy            =   +0.00 kcal/mol
DOCKED: USER    (2) Final Total Internal Energy     =   -2.53 kcal/mol
DOCKED: USER    (3) Torsional Free Energy           =   +2.39 kcal/mol
DOCKED: USER    (4) Unbound System's Energy  [=(2)] =   -2.53 kcal/mol
DOCKED: USER    
DOCKED: USER    
DOCKED: USER    NEWDPF move ligand.pdbqt
DOCKED: USER    NEWDPF about 0.693000 0.091000 0.076000
DOCKED: USER    NEWDPF tran0 29.337416 -15.226245 -1.372620
DOCKED: USER    NEWDPF quaternion0 -0.392933 -0.707853 0.255917 -0.528255
DOCKED: USER    NEWDPF axisangle0 -0.462772 -0.833666 0.301403 -116.224698
DOCKED: USER    NEWDPF quat0 -0.462772 -0.833666 0.301403 -116.224698
DOCKED: USER    NEWDPF dihe0 29.03 -173.16 180.00 26.05 141.01 -122.89 -173.08 97.66 
DOCKED: USER  keepresnum = 1 
DOCKED: USER  
DOCKED: REMARK  Name = 
DOCKED: REMARK  9 active torsions:
DOCKED: REMARK  status: ('A' for Active; 'I' for Inactive)
DOCKED: REMARK    1  A    between atoms: C_2  and  C_3
DOCKED: REMARK    2  A    between atoms: C_4  and  C_5
DOCKED: REMARK    3  A    between atoms: C_8  and  C_9
DOCKED: REMARK    4  A    between atoms: C_9  and  N_10
DOCKED: REMARK    5  A    between atoms: N_10  and  C_11
DOCKED: REMARK    6  A    between atoms: C_11  and  C_12
DOCKED: REMARK    7  A    between atoms: C_12  and  C_13
DOCKED: REMARK    8  A    between atoms: C_14  and  C_22
DOCKED: REMARK    9  A    between atoms: N_25  and  O_26
DOCKED: REMARK                            x       y       z     vdW  Elec       q    Type
DOCKED: REMARK                         _______ _______ _______ _____ _____    ______ ____
DOCKED: USER                              x       y       z     vdW  Elec       q    Type
DOCKED: USER                           _______ _______ _______ _____ _____    ______ ____
DOCKED: ROOT
DOCKED: ATOM      1  N   UNL     1      29.770 -15.677  -2.415 -0.12 -0.00    +0.000 N 
DOCKED: ATOM      2  H   UNL     1      30.732 -15.338  -2.426 +0.00 -0.00    +0.000 HD
DOCKED: ATOM      3  H   UNL     1      29.121 -14.969  -2.759 +0.01 -0.00    +0.000 HD
DOCKED: ENDROOT
DOCKED: BRANCH   1   4
DOCKED: ATOM      4  C   UNL     1      29.396 -15.990  -1.030 -0.20 -0.00    +0.000 C 
DOCKED: BRANCH   4   8
DOCKED: ATOM      5  C   UNL     1      25.161 -16.810  -0.738 -0.52 -0.00    +0.000 A 
DOCKED: ATOM      6  C   UNL     1      25.640 -15.485  -0.680 -0.30 -0.00    +0.000 A 
DOCKED: ATOM      7  C   UNL     1      27.009 -15.223  -0.780 -0.29 -0.00    +0.000 A 
DOCKED: ATOM      8  C   UNL     1      27.921 -16.273  -0.960 -0.31 -0.00    +0.000 A 
DOCKED: ATOM      9  C   UNL     1      27.449 -17.591  -1.020 -0.34 -0.00    +0.000 A 
DOCKED: ATOM     10  C   UNL     1      26.079 -17.856  -0.921 -0.52 -0.00    +0.000 A 
DOCKED: BRANCH   5  12
DOCKED: ATOM     11  C   UNL     1      23.182 -18.261  -1.149 -0.80 -0.00    +0.000 C 
DOCKED: ATOM     12  C   UNL     1      23.716 -17.137  -0.651 -0.68 -0.00    +0.000 C 
DOCKED: BRANCH  11  14
DOCKED: ATOM     13  O   UNL     1      21.007 -17.865  -0.334 -1.94 +0.00    +0.000 OA
DOCKED: ATOM     14  C   UNL     1      21.740 -18.573  -1.076 -0.80 -0.00    +0.000 C 
DOCKED: ATOM     15  N   UNL     1      21.148 -19.627  -1.846 -0.59 -0.00    +0.000 N 
DOCKED: ATOM     16  H   UNL     1      21.687 -20.113  -2.509 -0.61 -0.00    +0.000 HD
DOCKED: BRANCH  15  17
DOCKED: ATOM     17  O   UNL     1      19.846 -19.956  -1.664 -1.70 -0.00    +0.000 OA
DOCKED: ATOM     18  H   UNL     1      19.352 -19.174  -1.372 -0.32 -0.00    +0.000 HD
DOCKED: ENDBRANCH  15  17
DOCKED: ENDBRANCH  11  14
DOCKED: ENDBRANCH   5  12
DOCKED: ENDBRANCH   4   8
DOCKED: ENDBRANCH   1   4
DOCKED: BRANCH   1  19
DOCKED: ATOM     19  C   UNL     1      29.670 -16.847  -3.300 -0.24 -0.00    +0.000 C 
DOCKED: BRANCH  19  20
DOCKED: ATOM     20  C   UNL     1      29.678 -16.461  -4.789 -0.30 -0.00    +0.000 C 
DOCKED: BRANCH  20  21
DOCKED: ATOM     21  C   UNL     1      28.973 -15.151  -4.992 -0.27 -0.00    +0.000 A 
DOCKED: ATOM     22  C   UNL     1      29.512 -13.965  -5.496 -0.16 -0.00    +0.000 A 
DOCKED: ATOM     23  N   UNL     1      28.592 -12.972  -5.469 -0.16 -0.00    +0.000 N 
DOCKED: ATOM     24  C   UNL     1      27.484 -13.513  -4.935 -0.26 -0.00    +0.000 A 
DOCKED: ATOM     25  C   UNL     1      27.679 -14.837  -4.625 -0.35 -0.00    +0.000 A 
DOCKED: ATOM     26  C   UNL     1      26.678 -15.608  -4.035 -0.40 -0.00    +0.000 A 
DOCKED: ATOM     27  C   UNL     1      25.443 -14.988  -3.769 -0.47 -0.00    +0.000 A 
DOCKED: ATOM     28  C   UNL     1      25.240 -13.628  -4.092 -0.40 -0.00    +0.000 A 
DOCKED: ATOM     29  C   UNL     1      26.271 -12.874  -4.681 -0.27 -0.00    +0.000 A 
DOCKED: ATOM     30  C   UNL     1      30.906 -13.789  -6.009 -0.10 -0.00    +0.000 C 
DOCKED: ATOM     31  H   UNL     1      28.712 -12.045  -5.777 +0.00 -0.00    +0.000 HD
DOCKED: ENDBRANCH  20  21
DOCKED: ENDBRANCH  19  20
DOCKED: ENDBRANCH   1  19
DOCKED: TORSDOF 8
DOCKED: TER
DOCKED: ENDMDL
________________________________________________________________________________


	BEGINNING GENETIC ALGORITHM DOCKING 83 of 100
Run: 83 Seed: 1351087393 1114938730 [ Run 83 of 100 GA/GALS ]
Beginning LAMARCKIAN GENETIC ALGORITHM (LGA), with a maximum of 2500000 energy evaluations.

Final-Value: -15.299


	FINAL GENETIC ALGORITHM DOCKED STATE
	_______________________________________________


Detailed state:  trans 28.505 -16.716 -0.887 quatxyzw -0.574051 -0.095129 -0.770864 -0.259201 center 0.693 0.091 0.076 ntor 8 25.1533 -6.0186 78.8567 -41.8209 -49.4745 -126.9186 167.1306 -71.0922
State:	 28.505 -16.716  -0.887  -0.594 -0.098 -0.798 -149.955     25.15   -6.02   78.86  -41.82  -49.47 -126.92  167.13  -71.09

DOCKED: MODEL       83
DOCKED: USER    Run = 83
DOCKED: USER    DPF = ligand_dock.biased.dpf
DOCKED: USER  
DOCKED: USER    Estimated Free Energy of Binding    =  -11.55 kcal/mol  [=(1)+(2)+(3)-(4)]
DOCKED: USER    Estimated Inhibition Constant, Ki   =    3.43 nM (nanomolar)  [Temperature = 298.15 K]
DOCKED: USER    
DOCKED: USER    (1) Final Intermolecular Energy     =  -13.93 kcal/mol
DOCKED: USER        vdW + Hbond + desolv Energy     =  -13.93 kcal/mol
DOCKED: USER        Electrostatic Energy            =   +0.00 kcal/mol
DOCKED: USER    (2) Final Total Internal Energy     =   -1.36 kcal/mol
DOCKED: USER    (3) Torsional Free Energy           =   +2.39 kcal/mol
DOCKED: USER    (4) Unbound System's Energy  [=(2)] =   -1.36 kcal/mol
DOCKED: USER    
DOCKED: USER    
DOCKED: USER    NEWDPF move ligand.pdbqt
DOCKED: USER    NEWDPF about 0.693000 0.091000 0.076000
DOCKED: USER    NEWDPF tran0 28.504867 -16.715524 -0.887102
DOCKED: USER    NEWDPF quaternion0 -0.574051 -0.095129 -0.770864 -0.259201
DOCKED: USER    NEWDPF axisangle0 -0.594365 -0.098495 -0.798141 -149.954739
DOCKED: USER    NEWDPF quat0 -0.594365 -0.098495 -0.798141 -149.954739
DOCKED: USER    NEWDPF dihe0 25.15 -6.02 78.86 -41.82 -49.47 -126.92 167.13 -71.09 
DOCKED: USER  keepresnum = 1 
DOCKED: USER  
DOCKED: REMARK  Name = 
DOCKED: REMARK  9 active torsions:
DOCKED: REMARK  status: ('A' for Active; 'I' for Inactive)
DOCKED: REMARK    1  A    between atoms: C_2  and  C_3
DOCKED: REMARK    2  A    between atoms: C_4  and  C_5
DOCKED: REMARK    3  A    between atoms: C_8  and  C_9
DOCKED: REMARK    4  A    between atoms: C_9  and  N_10
DOCKED: REMARK    5  A    between atoms: N_10  and  C_11
DOCKED: REMARK    6  A    between atoms: C_11  and  C_12
DOCKED: REMARK    7  A    between atoms: C_12  and  C_13
DOCKED: REMARK    8  A    between atoms: C_14  and  C_22
DOCKED: REMARK    9  A    between atoms: N_25  and  O_26
DOCKED: REMARK                            x       y       z     vdW  Elec       q    Type
DOCKED: REMARK                         _______ _______ _______ _____ _____    ______ ____
DOCKED: USER                              x       y       z     vdW  Elec       q    Type
DOCKED: USER                           _______ _______ _______ _____ _____    ______ ____
DOCKED: ROOT
DOCKED: ATOM      1  N   UNL     1      28.966 -17.051  -1.960 -0.27 -0.00    +0.000 N 
DOCKED: ATOM      2  H   UNL     1      28.432 -17.892  -2.183 -0.00 -0.00    +0.000 HD
DOCKED: ATOM      3  H   UNL     1      29.745 -17.260  -1.335 -0.02 -0.00    +0.000 HD
DOCKED: ENDROOT
DOCKED: BRANCH   1   4
DOCKED: ATOM      4  C   UNL     1      28.084 -16.100  -1.273 -0.32 -0.00    +0.000 C 
DOCKED: BRANCH   4   8
DOCKED: ATOM      5  C   UNL     1      24.150 -17.805  -0.708 -0.69 -0.00    +0.000 A 
DOCKED: ATOM      6  C   UNL     1      24.370 -16.822  -1.694 -0.53 -0.00    +0.000 A 
DOCKED: ATOM      7  C   UNL     1      25.643 -16.277  -1.878 -0.49 -0.00    +0.000 A 
DOCKED: ATOM      8  C   UNL     1      26.723 -16.716  -1.098 -0.43 -0.00    +0.000 A 
DOCKED: ATOM      9  C   UNL     1      26.509 -17.693  -0.116 -0.52 -0.00    +0.000 A 
DOCKED: ATOM     10  C   UNL     1      25.236 -18.241   0.069 -0.57 -0.00    +0.000 A 
DOCKED: BRANCH   5  12
DOCKED: ATOM     11  C   UNL     1      22.112 -19.024  -1.451 -0.70 -0.00    +0.000 C 
DOCKED: ATOM     12  C   UNL     1      22.820 -18.424  -0.484 -0.83 -0.00    +0.000 C 
DOCKED: BRANCH  11  14
DOCKED: ATOM     13  O   UNL     1      19.999 -19.737  -2.208 -1.89 -0.00    +0.000 OA
DOCKED: ATOM     14  C   UNL     1      20.780 -19.622  -1.226 -0.80 -0.00    +0.000 C 
DOCKED: ATOM     15  N   UNL     1      20.367 -20.103   0.059 -0.72 -0.00    +0.000 N 
DOCKED: ATOM     16  H   UNL     1      21.007 -20.119   0.806 -0.53 -0.00    +0.000 HD
DOCKED: BRANCH  15  17
DOCKED: ATOM     17  O   UNL     1      19.098 -20.537   0.249 -0.81 -0.00    +0.000 OA
DOCKED: ATOM     18  H   UNL     1      18.727 -20.833  -0.597 -0.38 -0.00    +0.000 HD
DOCKED: ENDBRANCH  15  17
DOCKED: ENDBRANCH  11  14
DOCKED: ENDBRANCH   5  12
DOCKED: ENDBRANCH   4   8
DOCKED: ENDBRANCH   1   4
DOCKED: BRANCH   1  19
DOCKED: ATOM     19  C   UNL     1      29.522 -16.500  -3.204 -0.24 -0.00    +0.000 C 
DOCKED: BRANCH  19  20
DOCKED: ATOM     20  C   UNL     1      30.782 -17.251  -3.669 -0.19 -0.00    +0.000 C 
DOCKED: BRANCH  20  21
DOCKED: ATOM     21  C   UNL     1      30.713 -17.526  -5.144 -0.24 -0.00    +0.000 A 
DOCKED: ATOM     22  C   UNL     1      30.432 -16.616  -6.165 -0.29 -0.00    +0.000 A 
DOCKED: ATOM     23  N   UNL     1      30.388 -17.242  -7.365 -0.33 -0.00    +0.000 N 
DOCKED: ATOM     24  C   UNL     1      30.617 -18.541  -7.110 -0.32 -0.00    +0.000 A 
DOCKED: ATOM     25  C   UNL     1      30.813 -18.755  -5.767 -0.30 -0.00    +0.000 A 
DOCKED: ATOM     26  C   UNL     1      31.046 -20.030  -5.253 -0.28 -0.00    +0.000 A 
DOCKED: ATOM     27  C   UNL     1      31.083 -21.106  -6.159 -0.31 -0.00    +0.000 A 
DOCKED: ATOM     28  C   UNL     1      30.887 -20.887  -7.540 -0.30 -0.00    +0.000 A 
DOCKED: ATOM     29  C   UNL     1      30.648 -19.589  -8.029 -0.35 -0.00    +0.000 A 
DOCKED: ATOM     30  C   UNL     1      30.214 -15.147  -5.989 -0.25 -0.00    +0.000 C 
DOCKED: ATOM     31  H   UNL     1      30.221 -16.830  -8.243 -0.03 -0.00    +0.000 HD
DOCKED: ENDBRANCH  20  21
DOCKED: ENDBRANCH  19  20
DOCKED: ENDBRANCH   1  19
DOCKED: TORSDOF 8
DOCKED: TER
DOCKED: ENDMDL
________________________________________________________________________________


	BEGINNING GENETIC ALGORITHM DOCKING 84 of 100
Run: 84 Seed: 993802177 1616956890 [ Run 84 of 100 GA/GALS ]
Beginning LAMARCKIAN GENETIC ALGORITHM (LGA), with a maximum of 2500000 energy evaluations.

Final-Value: -15.028


	FINAL GENETIC ALGORITHM DOCKED STATE
	_______________________________________________


Detailed state:  trans 28.397 -16.462 -0.260 quatxyzw 0.026821 -0.873816 -0.115983 -0.471460 center 0.693 0.091 0.076 ntor 8 18.1425 179.9563 -158.1737 -174.3425 -27.4060 88.9367 -48.7591 64.6717
State:	 28.397 -16.462  -0.260   0.030 -0.991 -0.132 -123.742     18.14  179.96 -158.17 -174.34  -27.41   88.94  -48.76   64.67

DOCKED: MODEL       84
DOCKED: USER    Run = 84
DOCKED: USER    DPF = ligand_dock.biased.dpf
DOCKED: USER  
DOCKED: USER    Estimated Free Energy of Binding    =  -10.93 kcal/mol  [=(1)+(2)+(3)-(4)]
DOCKED: USER    Estimated Inhibition Constant, Ki   =    9.75 nM (nanomolar)  [Temperature = 298.15 K]
DOCKED: USER    
DOCKED: USER    (1) Final Intermolecular Energy     =  -13.32 kcal/mol
DOCKED: USER        vdW + Hbond + desolv Energy     =  -13.32 kcal/mol
DOCKED: USER        Electrostatic Energy            =   +0.00 kcal/mol
DOCKED: USER    (2) Final Total Internal Energy     =   -1.71 kcal/mol
DOCKED: USER    (3) Torsional Free Energy           =   +2.39 kcal/mol
DOCKED: USER    (4) Unbound System's Energy  [=(2)] =   -1.71 kcal/mol
DOCKED: USER    
DOCKED: USER    
DOCKED: USER    NEWDPF move ligand.pdbqt
DOCKED: USER    NEWDPF about 0.693000 0.091000 0.076000
DOCKED: USER    NEWDPF tran0 28.397108 -16.462066 -0.259810
DOCKED: USER    NEWDPF quaternion0 0.026821 -0.873816 -0.115983 -0.471460
DOCKED: USER    NEWDPF axisangle0 0.030413 -0.990847 -0.131516 -123.741722
DOCKED: USER    NEWDPF quat0 0.030413 -0.990847 -0.131516 -123.741722
DOCKED: USER    NEWDPF dihe0 18.14 179.96 -158.17 -174.34 -27.41 88.94 -48.76 64.67 
DOCKED: USER  keepresnum = 1 
DOCKED: USER  
DOCKED: REMARK  Name = 
DOCKED: REMARK  9 active torsions:
DOCKED: REMARK  status: ('A' for Active; 'I' for Inactive)
DOCKED: REMARK    1  A    between atoms: C_2  and  C_3
DOCKED: REMARK    2  A    between atoms: C_4  and  C_5
DOCKED: REMARK    3  A    between atoms: C_8  and  C_9
DOCKED: REMARK    4  A    between atoms: C_9  and  N_10
DOCKED: REMARK    5  A    between atoms: N_10  and  C_11
DOCKED: REMARK    6  A    between atoms: C_11  and  C_12
DOCKED: REMARK    7  A    between atoms: C_12  and  C_13
DOCKED: REMARK    8  A    between atoms: C_14  and  C_22
DOCKED: REMARK    9  A    between atoms: N_25  and  O_26
DOCKED: REMARK                            x       y       z     vdW  Elec       q    Type
DOCKED: REMARK                         _______ _______ _______ _____ _____    ______ ____
DOCKED: USER                              x       y       z     vdW  Elec       q    Type
DOCKED: USER                           _______ _______ _______ _____ _____    ______ ____
DOCKED: ROOT
DOCKED: ATOM      1  N   UNL     1      29.085 -15.664  -0.864 -0.17 -0.00    +0.000 N 
DOCKED: ATOM      2  H   UNL     1      29.774 -15.384  -0.165 -0.02 -0.00    +0.000 HD
DOCKED: ATOM      3  H   UNL     1      28.216 -15.139  -0.762 +0.00 -0.00    +0.000 HD
DOCKED: ENDROOT
DOCKED: BRANCH   1   4
DOCKED: ATOM      4  C   UNL     1      28.774 -17.086  -0.677 -0.29 -0.00    +0.000 C 
DOCKED: BRANCH   4   8
DOCKED: ATOM      5  C   UNL     1      24.497 -17.623  -1.017 -0.65 -0.00    +0.000 A 
DOCKED: ATOM      6  C   UNL     1      25.177 -16.731  -1.871 -0.55 -0.00    +0.000 A 
DOCKED: ATOM      7  C   UNL     1      26.560 -16.564  -1.763 -0.41 -0.00    +0.000 A 
DOCKED: ATOM      8  C   UNL     1      27.292 -17.297  -0.816 -0.42 -0.00    +0.000 A 
DOCKED: ATOM      9  C   UNL     1      26.619 -18.185   0.035 -0.50 -0.00    +0.000 A 
DOCKED: ATOM     10  C   UNL     1      25.235 -18.354  -0.073 -0.55 -0.00    +0.000 A 
DOCKED: BRANCH   5  12
DOCKED: ATOM     11  C   UNL     1      22.371 -18.719  -0.332 -0.83 -0.00    +0.000 C 
DOCKED: ATOM     12  C   UNL     1      23.032 -17.846  -1.104 -0.76 -0.00    +0.000 C 
DOCKED: BRANCH  11  14
DOCKED: ATOM     13  O   UNL     1      20.207 -18.081  -1.011 -2.09 -0.00    +0.000 OA
DOCKED: ATOM     14  C   UNL     1      20.915 -18.950  -0.436 -0.84 -0.00    +0.000 C 
DOCKED: ATOM     15  N   UNL     1      20.294 -20.141   0.065 -0.72 -0.00    +0.000 N 
DOCKED: ATOM     16  H   UNL     1      20.849 -20.873   0.416 -0.35 -0.00    +0.000 HD
DOCKED: BRANCH  15  17
DOCKED: ATOM     17  O   UNL     1      18.945 -20.263   0.055 -0.84 -0.00    +0.000 OA
DOCKED: ATOM     18  H   UNL     1      18.567 -19.617  -0.562 -0.30 -0.00    +0.000 HD
DOCKED: ENDBRANCH  15  17
DOCKED: ENDBRANCH  11  14
DOCKED: ENDBRANCH   5  12
DOCKED: ENDBRANCH   4   8
DOCKED: ENDBRANCH   1   4
DOCKED: BRANCH   1  19
DOCKED: ATOM     19  C   UNL     1      29.626 -15.380  -2.202 -0.13 -0.00    +0.000 C 
DOCKED: BRANCH  19  20
DOCKED: ATOM     20  C   UNL     1      29.371 -16.527  -3.194 -0.25 -0.00    +0.000 C 
DOCKED: BRANCH  20  21
DOCKED: ATOM     21  C   UNL     1      29.413 -16.016  -4.606 -0.26 -0.00    +0.000 A 
DOCKED: ATOM     22  C   UNL     1      28.388 -15.382  -5.311 -0.34 -0.00    +0.000 A 
DOCKED: ATOM     23  N   UNL     1      28.771 -15.126  -6.584 -0.38 -0.00    +0.000 N 
DOCKED: ATOM     24  C   UNL     1      30.019 -15.610  -6.697 -0.30 -0.00    +0.000 A 
DOCKED: ATOM     25  C   UNL     1      30.443 -16.166  -5.515 -0.23 -0.00    +0.000 A 
DOCKED: ATOM     26  C   UNL     1      31.700 -16.757  -5.390 -0.11 -0.00    +0.000 A 
DOCKED: ATOM     27  C   UNL     1      32.538 -16.761  -6.521 -0.08 -0.00    +0.000 A 
DOCKED: ATOM     28  C   UNL     1      32.105 -16.185  -7.736 -0.18 -0.00    +0.000 A 
DOCKED: ATOM     29  C   UNL     1      30.829 -15.602  -7.832 -0.19 -0.00    +0.000 A 
DOCKED: ATOM     30  C   UNL     1      27.046 -15.018  -4.761 -0.49 -0.00    +0.000 C 
DOCKED: ATOM     31  H   UNL     1      28.242 -14.679  -7.284 -0.07 -0.00    +0.000 HD
DOCKED: ENDBRANCH  20  21
DOCKED: ENDBRANCH  19  20
DOCKED: ENDBRANCH   1  19
DOCKED: TORSDOF 8
DOCKED: TER
DOCKED: ENDMDL
________________________________________________________________________________


	BEGINNING GENETIC ALGORITHM DOCKING 85 of 100
Run: 85 Seed: 72831234 1932503346 [ Run 85 of 100 GA/GALS ]
Beginning LAMARCKIAN GENETIC ALGORITHM (LGA), with a maximum of 2500000 energy evaluations.

Final-Value: -16.431


	FINAL GENETIC ALGORITHM DOCKED STATE
	_______________________________________________


Detailed state:  trans 27.634 -15.871 0.568 quatxyzw 0.451794 -0.546751 -0.547797 -0.443692 center 0.693 0.091 0.076 ntor 8 6.0995 118.1119 168.1491 -150.9932 72.5588 -54.0154 -179.6467 43.8863
State:	 27.634 -15.871   0.568   0.504 -0.610 -0.611 -127.321      6.10  118.11  168.15 -150.99   72.56  -54.02 -179.65   43.89

DOCKED: MODEL       85
DOCKED: USER    Run = 85
DOCKED: USER    DPF = ligand_dock.biased.dpf
DOCKED: USER  
DOCKED: USER    Estimated Free Energy of Binding    =  -12.56 kcal/mol  [=(1)+(2)+(3)-(4)]
DOCKED: USER    Estimated Inhibition Constant, Ki   =  617.15 pM (picomolar)  [Temperature = 298.15 K]
DOCKED: USER    
DOCKED: USER    (1) Final Intermolecular Energy     =  -14.95 kcal/mol
DOCKED: USER        vdW + Hbond + desolv Energy     =  -14.95 kcal/mol
DOCKED: USER        Electrostatic Energy            =   +0.00 kcal/mol
DOCKED: USER    (2) Final Total Internal Energy     =   -1.48 kcal/mol
DOCKED: USER    (3) Torsional Free Energy           =   +2.39 kcal/mol
DOCKED: USER    (4) Unbound System's Energy  [=(2)] =   -1.48 kcal/mol
DOCKED: USER    
DOCKED: USER    
DOCKED: USER    NEWDPF move ligand.pdbqt
DOCKED: USER    NEWDPF about 0.693000 0.091000 0.076000
DOCKED: USER    NEWDPF tran0 27.634003 -15.870962 0.568298
DOCKED: USER    NEWDPF quaternion0 0.451794 -0.546751 -0.547797 -0.443692
DOCKED: USER    NEWDPF axisangle0 0.504134 -0.610091 -0.611259 -127.320593
DOCKED: USER    NEWDPF quat0 0.504134 -0.610091 -0.611259 -127.320593
DOCKED: USER    NEWDPF dihe0 6.10 118.11 168.15 -150.99 72.56 -54.02 -179.65 43.89 
DOCKED: USER  keepresnum = 1 
DOCKED: USER  
DOCKED: REMARK  Name = 
DOCKED: REMARK  9 active torsions:
DOCKED: REMARK  status: ('A' for Active; 'I' for Inactive)
DOCKED: REMARK    1  A    between atoms: C_2  and  C_3
DOCKED: REMARK    2  A    between atoms: C_4  and  C_5
DOCKED: REMARK    3  A    between atoms: C_8  and  C_9
DOCKED: REMARK    4  A    between atoms: C_9  and  N_10
DOCKED: REMARK    5  A    between atoms: N_10  and  C_11
DOCKED: REMARK    6  A    between atoms: C_11  and  C_12
DOCKED: REMARK    7  A    between atoms: C_12  and  C_13
DOCKED: REMARK    8  A    between atoms: C_14  and  C_22
DOCKED: REMARK    9  A    between atoms: N_25  and  O_26
DOCKED: REMARK                            x       y       z     vdW  Elec       q    Type
DOCKED: REMARK                         _______ _______ _______ _____ _____    ______ ____
DOCKED: USER                              x       y       z     vdW  Elec       q    Type
DOCKED: USER                           _______ _______ _______ _____ _____    ______ ____
DOCKED: ROOT
DOCKED: ATOM      1  N   UNL     1      27.934 -14.918   1.260 -0.26 -0.00    +0.000 N 
DOCKED: ATOM      2  H   UNL     1      28.776 -15.242   1.738 -1.35 -0.00    +0.000 HD
DOCKED: ATOM      3  H   UNL     1      27.090 -15.245   1.729 -0.12 -0.00    +0.000 HD
DOCKED: ENDROOT
DOCKED: BRANCH   1   4
DOCKED: ATOM      4  C   UNL     1      27.928 -15.462  -0.104 -0.29 -0.00    +0.000 C 
DOCKED: BRANCH   4   8
DOCKED: ATOM      5  C   UNL     1      24.543 -18.090  -0.683 -0.68 -0.00    +0.000 A 
DOCKED: ATOM      6  C   UNL     1      25.782 -18.603  -0.249 -0.52 -0.00    +0.000 A 
DOCKED: ATOM      7  C   UNL     1      26.873 -17.751  -0.058 -0.43 -0.00    +0.000 A 
DOCKED: ATOM      8  C   UNL     1      26.742 -16.371  -0.274 -0.38 -0.00    +0.000 A 
DOCKED: ATOM      9  C   UNL     1      25.512 -15.857  -0.705 -0.37 -0.00    +0.000 A 
DOCKED: ATOM     10  C   UNL     1      24.419 -16.708  -0.896 -0.52 -0.00    +0.000 A 
DOCKED: BRANCH   5  12
DOCKED: ATOM     11  C   UNL     1      22.100 -18.559  -0.615 -0.85 -0.00    +0.000 C 
DOCKED: ATOM     12  C   UNL     1      23.352 -18.952  -0.886 -0.81 -0.00    +0.000 C 
DOCKED: BRANCH  11  14
DOCKED: ATOM     13  O   UNL     1      20.443 -19.555  -1.962 -1.62 -0.00    +0.000 OA
DOCKED: ATOM     14  C   UNL     1      20.921 -19.429  -0.802 -0.87 -0.00    +0.000 C 
DOCKED: ATOM     15  N   UNL     1      20.329 -20.155   0.283 -0.71 -0.00    +0.000 N 
DOCKED: ATOM     16  H   UNL     1      20.758 -20.151   1.168 -0.43 -0.00    +0.000 HD
DOCKED: BRANCH  15  17
DOCKED: ATOM     17  O   UNL     1      19.180 -20.849   0.093 -0.74 -0.00    +0.000 OA
DOCKED: ATOM     18  H   UNL     1      18.943 -20.830  -0.848 -0.47 -0.00    +0.000 HD
DOCKED: ENDBRANCH  15  17
DOCKED: ENDBRANCH  11  14
DOCKED: ENDBRANCH   5  12
DOCKED: ENDBRANCH   4   8
DOCKED: ENDBRANCH   1   4
DOCKED: BRANCH   1  19
DOCKED: ATOM     19  C   UNL     1      27.917 -13.448   1.276 -0.24 -0.00    +0.000 C 
DOCKED: BRANCH  19  20
DOCKED: ATOM     20  C   UNL     1      29.056 -12.856   2.124 -0.15 -0.00    +0.000 C 
DOCKED: BRANCH  20  21
DOCKED: ATOM     21  C   UNL     1      28.530 -12.385   3.449 -0.20 -0.00    +0.000 A 
DOCKED: ATOM     22  C   UNL     1      27.535 -11.432   3.679 -0.25 +0.00    +0.000 A 
DOCKED: ATOM     23  N   UNL     1      27.377 -11.216   5.006 -0.38 +0.00    +0.000 N 
DOCKED: ATOM     24  C   UNL     1      28.276 -12.007   5.617 -0.36 +0.00    +0.000 A 
DOCKED: ATOM     25  C   UNL     1      29.002 -12.730   4.701 -0.26 -0.00    +0.000 A 
DOCKED: ATOM     26  C   UNL     1      30.015 -13.605   5.094 -0.28 -0.00    +0.000 A 
DOCKED: ATOM     27  C   UNL     1      30.270 -13.737   6.471 -0.23 -0.00    +0.000 A 
DOCKED: ATOM     28  C   UNL     1      29.521 -12.998   7.413 -0.34 -0.00    +0.000 A 
DOCKED: ATOM     29  C   UNL     1      28.510 -12.118   6.987 -0.35 +0.00    +0.000 A 
DOCKED: ATOM     30  C   UNL     1      26.734 -10.736   2.625 -0.30 +0.00    +0.000 C 
DOCKED: ATOM     31  H   UNL     1      26.736 -10.604   5.435 -0.17 +0.00    +0.000 HD
DOCKED: ENDBRANCH  20  21
DOCKED: ENDBRANCH  19  20
DOCKED: ENDBRANCH   1  19
DOCKED: TORSDOF 8
DOCKED: TER
DOCKED: ENDMDL
________________________________________________________________________________


	BEGINNING GENETIC ALGORITHM DOCKING 86 of 100
Run: 86 Seed: 1929877268 35080312 [ Run 86 of 100 GA/GALS ]
Beginning LAMARCKIAN GENETIC ALGORITHM (LGA), with a maximum of 2500000 energy evaluations.

Final-Value: -16.343


	FINAL GENETIC ALGORITHM DOCKED STATE
	_______________________________________________


Detailed state:  trans 28.898 -15.893 0.266 quatxyzw 0.254912 -0.608782 -0.709771 -0.246232 center 0.693 0.091 0.076 ntor 8 5.8738 -170.3004 173.0923 6.6138 128.2683 -148.1640 -3.8476 29.4569
State:	 28.898 -15.893   0.266   0.263 -0.628 -0.732 -151.491      5.87 -170.30  173.09    6.61  128.27 -148.16   -3.85   29.46

DOCKED: MODEL       86
DOCKED: USER    Run = 86
DOCKED: USER    DPF = ligand_dock.biased.dpf
DOCKED: USER  
DOCKED: USER    Estimated Free Energy of Binding    =  -11.29 kcal/mol  [=(1)+(2)+(3)-(4)]
DOCKED: USER    Estimated Inhibition Constant, Ki   =    5.30 nM (nanomolar)  [Temperature = 298.15 K]
DOCKED: USER    
DOCKED: USER    (1) Final Intermolecular Energy     =  -13.68 kcal/mol
DOCKED: USER        vdW + Hbond + desolv Energy     =  -13.68 kcal/mol
DOCKED: USER        Electrostatic Energy            =   +0.00 kcal/mol
DOCKED: USER    (2) Final Total Internal Energy     =   -2.67 kcal/mol
DOCKED: USER    (3) Torsional Free Energy           =   +2.39 kcal/mol
DOCKED: USER    (4) Unbound System's Energy  [=(2)] =   -2.67 kcal/mol
DOCKED: USER    
DOCKED: USER    
DOCKED: USER    NEWDPF move ligand.pdbqt
DOCKED: USER    NEWDPF about 0.693000 0.091000 0.076000
DOCKED: USER    NEWDPF tran0 28.897855 -15.893110 0.266074
DOCKED: USER    NEWDPF quaternion0 0.254912 -0.608782 -0.709771 -0.246232
DOCKED: USER    NEWDPF axisangle0 0.263010 -0.628121 -0.732318 -151.490751
DOCKED: USER    NEWDPF quat0 0.263010 -0.628121 -0.732318 -151.490751
DOCKED: USER    NEWDPF dihe0 5.87 -170.30 173.09 6.61 128.27 -148.16 -3.85 29.46 
DOCKED: USER  keepresnum = 1 
DOCKED: USER  
DOCKED: REMARK  Name = 
DOCKED: REMARK  9 active torsions:
DOCKED: REMARK  status: ('A' for Active; 'I' for Inactive)
DOCKED: REMARK    1  A    between atoms: C_2  and  C_3
DOCKED: REMARK    2  A    between atoms: C_4  and  C_5
DOCKED: REMARK    3  A    between atoms: C_8  and  C_9
DOCKED: REMARK    4  A    between atoms: C_9  and  N_10
DOCKED: REMARK    5  A    between atoms: N_10  and  C_11
DOCKED: REMARK    6  A    between atoms: C_11  and  C_12
DOCKED: REMARK    7  A    between atoms: C_12  and  C_13
DOCKED: REMARK    8  A    between atoms: C_14  and  C_22
DOCKED: REMARK    9  A    between atoms: N_25  and  O_26
DOCKED: REMARK                            x       y       z     vdW  Elec       q    Type
DOCKED: REMARK                         _______ _______ _______ _____ _____    ______ ____
DOCKED: USER                              x       y       z     vdW  Elec       q    Type
DOCKED: USER                           _______ _______ _______ _____ _____    ______ ____
DOCKED: ROOT
DOCKED: ATOM      1  N   UNL     1      29.746 -15.408   0.988 +0.05 -0.00    +0.000 N 
DOCKED: ATOM      2  H   UNL     1      30.246 -16.229   1.333 -0.61 -0.00    +0.000 HD
DOCKED: ATOM      3  H   UNL     1      28.900 -15.231   1.530 -1.18 -0.00    +0.000 HD
DOCKED: ENDROOT
DOCKED: BRANCH   1   4
DOCKED: ATOM      4  C   UNL     1      29.344 -15.652  -0.403 -0.19 -0.00    +0.000 C 
DOCKED: BRANCH   4   8
DOCKED: ATOM      5  C   UNL     1      25.137 -16.651  -0.439 -0.27 -0.00    +0.000 A 
DOCKED: ATOM      6  C   UNL     1      25.554 -15.304  -0.433 -0.06 -0.00    +0.000 A 
DOCKED: ATOM      7  C   UNL     1      26.914 -14.984  -0.427 -0.29 -0.00    +0.000 A 
DOCKED: ATOM      8  C   UNL     1      27.882 -15.999  -0.448 -0.29 -0.00    +0.000 A 
DOCKED: ATOM      9  C   UNL     1      27.472 -17.339  -0.454 -0.39 -0.00    +0.000 A 
DOCKED: ATOM     10  C   UNL     1      26.112 -17.662  -0.461 -0.56 -0.00    +0.000 A 
DOCKED: BRANCH   5  12
DOCKED: ATOM     11  C   UNL     1      23.253 -18.160  -1.041 -0.81 -0.00    +0.000 C 
DOCKED: ATOM     12  C   UNL     1      23.705 -17.040  -0.460 -0.54 -0.00    +0.000 C 
DOCKED: BRANCH  11  14
DOCKED: ATOM     13  O   UNL     1      21.008 -17.857  -0.393 -1.97 -0.00    +0.000 OA
DOCKED: ATOM     14  C   UNL     1      21.824 -18.533  -1.075 -0.80 -0.00    +0.000 C 
DOCKED: ATOM     15  N   UNL     1      21.337 -19.612  -1.883 -0.45 -0.00    +0.000 N 
DOCKED: ATOM     16  H   UNL     1      21.945 -20.075  -2.502 -0.61 -0.00    +0.000 HD
DOCKED: BRANCH  15  17
DOCKED: ATOM     17  O   UNL     1      20.040 -19.997  -1.797 -1.78 -0.00    +0.000 OA
DOCKED: ATOM     18  H   UNL     1      19.559 -19.385  -1.217 -0.14 -0.00    +0.000 HD
DOCKED: ENDBRANCH  15  17
DOCKED: ENDBRANCH  11  14
DOCKED: ENDBRANCH   5  12
DOCKED: ENDBRANCH   4   8
DOCKED: ENDBRANCH   1   4
DOCKED: BRANCH   1  19
DOCKED: ATOM     19  C   UNL     1      30.619 -14.232   1.121 -0.11 -0.00    +0.000 C 
DOCKED: BRANCH  19  20
DOCKED: ATOM     20  C   UNL     1      30.275 -13.381   2.355 -0.12 -0.00    +0.000 C 
DOCKED: BRANCH  20  21
DOCKED: ATOM     21  C   UNL     1      28.794 -13.144   2.430 -0.18 -0.00    +0.000 A 
DOCKED: ATOM     22  C   UNL     1      27.862 -13.830   3.211 -0.36 -0.00    +0.000 A 
DOCKED: ATOM     23  N   UNL     1      26.608 -13.383   2.963 -0.33 -0.00    +0.000 N 
DOCKED: ATOM     24  C   UNL     1      26.736 -12.437   2.017 -0.30 +0.00    +0.000 A 
DOCKED: ATOM     25  C   UNL     1      28.052 -12.267   1.662 -0.16 -0.00    +0.000 A 
DOCKED: ATOM     26  C   UNL     1      28.435 -11.355   0.678 -0.08 -0.00    +0.000 A 
DOCKED: ATOM     27  C   UNL     1      27.425 -10.596   0.058 -0.12 +0.00    +0.000 A 
DOCKED: ATOM     28  C   UNL     1      26.072 -10.767   0.426 -0.21 +0.00    +0.000 A 
DOCKED: ATOM     29  C   UNL     1      25.716 -11.700   1.417 -0.31 +0.00    +0.000 A 
DOCKED: ATOM     30  C   UNL     1      28.177 -14.907   4.200 -0.51 -0.00    +0.000 C 
DOCKED: ATOM     31  H   UNL     1      25.775 -13.690   3.387 +0.01 +0.00    +0.000 HD
DOCKED: ENDBRANCH  20  21
DOCKED: ENDBRANCH  19  20
DOCKED: ENDBRANCH   1  19
DOCKED: TORSDOF 8
DOCKED: TER
DOCKED: ENDMDL
________________________________________________________________________________


	BEGINNING GENETIC ALGORITHM DOCKING 87 of 100
Run: 87 Seed: 3382988 1541466198 [ Run 87 of 100 GA/GALS ]
Beginning LAMARCKIAN GENETIC ALGORITHM (LGA), with a maximum of 2500000 energy evaluations.

Final-Value: -16.140


	FINAL GENETIC ALGORITHM DOCKED STATE
	_______________________________________________


Detailed state:  trans 28.572 -16.461 -0.648 quatxyzw 0.527569 -0.030084 -0.507860 -0.680327 center 0.693 0.091 0.076 ntor 8 11.6101 10.7150 95.6647 135.7687 26.0594 -17.6354 18.3320 107.5662
State:	 28.572 -16.461  -0.648   0.720 -0.041 -0.693 -94.262     11.61   10.72   95.66  135.77   26.06  -17.64   18.33  107.57

DOCKED: MODEL       87
DOCKED: USER    Run = 87
DOCKED: USER    DPF = ligand_dock.biased.dpf
DOCKED: USER  
DOCKED: USER    Estimated Free Energy of Binding    =  -12.12 kcal/mol  [=(1)+(2)+(3)-(4)]
DOCKED: USER    Estimated Inhibition Constant, Ki   =    1.30 nM (nanomolar)  [Temperature = 298.15 K]
DOCKED: USER    
DOCKED: USER    (1) Final Intermolecular Energy     =  -14.51 kcal/mol
DOCKED: USER        vdW + Hbond + desolv Energy     =  -14.51 kcal/mol
DOCKED: USER        Electrostatic Energy            =   +0.00 kcal/mol
DOCKED: USER    (2) Final Total Internal Energy     =   -1.63 kcal/mol
DOCKED: USER    (3) Torsional Free Energy           =   +2.39 kcal/mol
DOCKED: USER    (4) Unbound System's Energy  [=(2)] =   -1.63 kcal/mol
DOCKED: USER    
DOCKED: USER    
DOCKED: USER    NEWDPF move ligand.pdbqt
DOCKED: USER    NEWDPF about 0.693000 0.091000 0.076000
DOCKED: USER    NEWDPF tran0 28.572305 -16.461356 -0.647756
DOCKED: USER    NEWDPF quaternion0 0.527569 -0.030084 -0.507860 -0.680327
DOCKED: USER    NEWDPF axisangle0 0.719828 -0.041047 -0.692937 -94.261645
DOCKED: USER    NEWDPF quat0 0.719828 -0.041047 -0.692937 -94.261645
DOCKED: USER    NEWDPF dihe0 11.61 10.72 95.66 135.77 26.06 -17.64 18.33 107.57 
DOCKED: USER  keepresnum = 1 
DOCKED: USER  
DOCKED: REMARK  Name = 
DOCKED: REMARK  9 active torsions:
DOCKED: REMARK  status: ('A' for Active; 'I' for Inactive)
DOCKED: REMARK    1  A    between atoms: C_2  and  C_3
DOCKED: REMARK    2  A    between atoms: C_4  and  C_5
DOCKED: REMARK    3  A    between atoms: C_8  and  C_9
DOCKED: REMARK    4  A    between atoms: C_9  and  N_10
DOCKED: REMARK    5  A    between atoms: N_10  and  C_11
DOCKED: REMARK    6  A    between atoms: C_11  and  C_12
DOCKED: REMARK    7  A    between atoms: C_12  and  C_13
DOCKED: REMARK    8  A    between atoms: C_14  and  C_22
DOCKED: REMARK    9  A    between atoms: N_25  and  O_26
DOCKED: REMARK                            x       y       z     vdW  Elec       q    Type
DOCKED: REMARK                         _______ _______ _______ _____ _____    ______ ____
DOCKED: USER                              x       y       z     vdW  Elec       q    Type
DOCKED: USER                           _______ _______ _______ _____ _____    ______ ____
DOCKED: ROOT
DOCKED: ATOM      1  N   UNL     1      28.602 -15.712   0.308 -0.21 -0.00    +0.000 N 
DOCKED: ATOM      2  H   UNL     1      29.500 -15.239   0.197 -0.06 -0.00    +0.000 HD
DOCKED: ATOM      3  H   UNL     1      28.713 -16.619   0.763 -0.59 -0.00    +0.000 HD
DOCKED: ENDROOT
DOCKED: BRANCH   1   4
DOCKED: ATOM      4  C   UNL     1      28.024 -15.946  -1.021 -0.31 -0.00    +0.000 C 
DOCKED: BRANCH   4   8
DOCKED: ATOM      5  C   UNL     1      24.194 -17.887  -0.511 -0.67 -0.00    +0.000 A 
DOCKED: ATOM      6  C   UNL     1      24.266 -16.531  -0.885 -0.40 -0.00    +0.000 A 
DOCKED: ATOM      7  C   UNL     1      25.505 -15.907  -1.055 -0.44 -0.00    +0.000 A 
DOCKED: ATOM      8  C   UNL     1      26.693 -16.629  -0.875 -0.43 -0.00    +0.000 A 
DOCKED: ATOM      9  C   UNL     1      26.627 -17.979  -0.502 -0.51 -0.00    +0.000 A 
DOCKED: ATOM     10  C   UNL     1      25.388 -18.605  -0.333 -0.54 -0.00    +0.000 A 
DOCKED: BRANCH   5  12
DOCKED: ATOM     11  C   UNL     1      22.101 -18.939  -1.350 -0.73 -0.00    +0.000 C 
DOCKED: ATOM     12  C   UNL     1      22.903 -18.597  -0.332 -0.83 -0.00    +0.000 C 
DOCKED: BRANCH  11  14
DOCKED: ATOM     13  O   UNL     1      20.056 -19.777  -2.164 -1.88 -0.00    +0.000 OA
DOCKED: ATOM     14  C   UNL     1      20.808 -19.628  -1.164 -0.81 -0.00    +0.000 C 
DOCKED: ATOM     15  N   UNL     1      20.402 -20.161   0.103 -0.71 -0.00    +0.000 N 
DOCKED: ATOM     16  H   UNL     1      21.027 -20.148   0.863 -0.54 -0.00    +0.000 HD
DOCKED: BRANCH  15  17
DOCKED: ATOM     17  O   UNL     1      19.161 -20.682   0.258 -0.79 -0.00    +0.000 OA
DOCKED: ATOM     18  H   UNL     1      18.744 -20.787  -0.611 -0.38 -0.00    +0.000 HD
DOCKED: ENDBRANCH  15  17
DOCKED: ENDBRANCH  11  14
DOCKED: ENDBRANCH   5  12
DOCKED: ENDBRANCH   4   8
DOCKED: ENDBRANCH   1   4
DOCKED: BRANCH   1  19
DOCKED: ATOM     19  C   UNL     1      27.734 -14.885   1.159 -0.26 -0.00    +0.000 C 
DOCKED: BRANCH  19  20
DOCKED: ATOM     20  C   UNL     1      28.035 -13.383   1.023 -0.21 -0.00    +0.000 C 
DOCKED: BRANCH  20  21
DOCKED: ATOM     21  C   UNL     1      27.740 -12.671   2.312 -0.24 -0.00    +0.000 A 
DOCKED: ATOM     22  C   UNL     1      27.008 -11.495   2.485 -0.28 +0.00    +0.000 A 
DOCKED: ATOM     23  N   UNL     1      27.012 -11.116   3.785 -0.27 +0.00    +0.000 N 
DOCKED: ATOM     24  C   UNL     1      27.756 -12.030   4.431 -0.31 +0.00    +0.000 A 
DOCKED: ATOM     25  C   UNL     1      28.222 -12.990   3.567 -0.29 -0.00    +0.000 A 
DOCKED: ATOM     26  C   UNL     1      29.039 -14.034   4.001 -0.35 -0.00    +0.000 A 
DOCKED: ATOM     27  C   UNL     1      29.370 -14.083   5.368 -0.33 -0.00    +0.000 A 
DOCKED: ATOM     28  C   UNL     1      28.887 -13.099   6.258 -0.38 -0.00    +0.000 A 
DOCKED: ATOM     29  C   UNL     1      28.070 -12.054   5.790 -0.37 +0.00    +0.000 A 
DOCKED: ATOM     30  C   UNL     1      26.302 -10.740   1.405 -0.37 +0.00    +0.000 C 
DOCKED: ATOM     31  H   UNL     1      26.564 -10.331   4.175 -0.05 +0.00    +0.000 HD
DOCKED: ENDBRANCH  20  21
DOCKED: ENDBRANCH  19  20
DOCKED: ENDBRANCH   1  19
DOCKED: TORSDOF 8
DOCKED: TER
DOCKED: ENDMDL
________________________________________________________________________________


	BEGINNING GENETIC ALGORITHM DOCKING 88 of 100
Run: 88 Seed: 272842620 709596683 [ Run 88 of 100 GA/GALS ]
Beginning LAMARCKIAN GENETIC ALGORITHM (LGA), with a maximum of 2500000 energy evaluations.

Final-Value: -17.340


	FINAL GENETIC ALGORITHM DOCKED STATE
	_______________________________________________


Detailed state:  trans 28.629 -15.795 1.036 quatxyzw -0.426814 0.576205 0.558073 0.417579 center 0.693 0.091 0.076 ntor 8 18.4365 137.0658 36.7122 177.7212 -112.8461 -153.0340 178.0170 62.2696
State:	 28.629 -15.795   1.036  -0.470  0.634  0.614 130.636     18.44  137.07   36.71  177.72 -112.85 -153.03  178.02   62.27

DOCKED: MODEL       88
DOCKED: USER    Run = 88
DOCKED: USER    DPF = ligand_dock.biased.dpf
DOCKED: USER  
DOCKED: USER    Estimated Free Energy of Binding    =  -13.21 kcal/mol  [=(1)+(2)+(3)-(4)]
DOCKED: USER    Estimated Inhibition Constant, Ki   =  208.62 pM (picomolar)  [Temperature = 298.15 K]
DOCKED: USER    
DOCKED: USER    (1) Final Intermolecular Energy     =  -15.59 kcal/mol
DOCKED: USER        vdW + Hbond + desolv Energy     =  -15.59 kcal/mol
DOCKED: USER        Electrostatic Energy            =   +0.00 kcal/mol
DOCKED: USER    (2) Final Total Internal Energy     =   -1.75 kcal/mol
DOCKED: USER    (3) Torsional Free Energy           =   +2.39 kcal/mol
DOCKED: USER    (4) Unbound System's Energy  [=(2)] =   -1.75 kcal/mol
DOCKED: USER    
DOCKED: USER    
DOCKED: USER    NEWDPF move ligand.pdbqt
DOCKED: USER    NEWDPF about 0.693000 0.091000 0.076000
DOCKED: USER    NEWDPF tran0 28.629324 -15.795463 1.036486
DOCKED: USER    NEWDPF quaternion0 -0.426814 0.576205 0.558073 0.417579
DOCKED: USER    NEWDPF axisangle0 -0.469728 0.634140 0.614184 130.636385
DOCKED: USER    NEWDPF quat0 -0.469728 0.634140 0.614184 130.636385
DOCKED: USER    NEWDPF dihe0 18.44 137.07 36.71 177.72 -112.85 -153.03 178.02 62.27 
DOCKED: USER  keepresnum = 1 
DOCKED: USER  
DOCKED: REMARK  Name = 
DOCKED: REMARK  9 active torsions:
DOCKED: REMARK  status: ('A' for Active; 'I' for Inactive)
DOCKED: REMARK    1  A    between atoms: C_2  and  C_3
DOCKED: REMARK    2  A    between atoms: C_4  and  C_5
DOCKED: REMARK    3  A    between atoms: C_8  and  C_9
DOCKED: REMARK    4  A    between atoms: C_9  and  N_10
DOCKED: REMARK    5  A    between atoms: N_10  and  C_11
DOCKED: REMARK    6  A    between atoms: C_11  and  C_12
DOCKED: REMARK    7  A    between atoms: C_12  and  C_13
DOCKED: REMARK    8  A    between atoms: C_14  and  C_22
DOCKED: REMARK    9  A    between atoms: N_25  and  O_26
DOCKED: REMARK                            x       y       z     vdW  Elec       q    Type
DOCKED: REMARK                         _______ _______ _______ _____ _____    ______ ____
DOCKED: USER                              x       y       z     vdW  Elec       q    Type
DOCKED: USER                           _______ _______ _______ _____ _____    ______ ____
DOCKED: ROOT
DOCKED: ATOM      1  N   UNL     1      29.004 -14.860   1.715 -0.06 -0.00    +0.000 N 
DOCKED: ATOM      2  H   UNL     1      29.804 -15.250   2.215 -1.49 -0.00    +0.000 HD
DOCKED: ATOM      3  H   UNL     1      28.125 -15.099   2.175 -1.01 -0.00    +0.000 HD
DOCKED: ENDROOT
DOCKED: BRANCH   1   4
DOCKED: ATOM      4  C   UNL     1      28.971 -15.429   0.362 -0.14 -0.00    +0.000 C 
DOCKED: BRANCH   4   8
DOCKED: ATOM      5  C   UNL     1      24.949 -16.614  -0.697 -0.47 -0.00    +0.000 A 
DOCKED: ATOM      6  C   UNL     1      25.848 -17.547  -0.141 -0.50 -0.00    +0.000 A 
DOCKED: ATOM      7  C   UNL     1      27.145 -17.160   0.205 -0.24 -0.00    +0.000 A 
DOCKED: ATOM      8  C   UNL     1      27.563 -15.833   0.024 -0.30 -0.00    +0.000 A 
DOCKED: ATOM      9  C   UNL     1      26.672 -14.902  -0.529 -0.30 -0.00    +0.000 A 
DOCKED: ATOM     10  C   UNL     1      25.374 -15.287  -0.875 -0.17 -0.00    +0.000 A 
DOCKED: BRANCH   5  12
DOCKED: ATOM     11  C   UNL     1      22.964 -18.113  -0.691 -0.83 -0.00    +0.000 C 
DOCKED: ATOM     12  C   UNL     1      23.558 -16.973  -1.068 -0.63 -0.00    +0.000 C 
DOCKED: BRANCH  11  14
DOCKED: ATOM     13  O   UNL     1      20.640 -17.725  -0.710 -2.25 -0.00    +0.000 OA
DOCKED: ATOM     14  C   UNL     1      21.585 -18.473  -1.079 -0.77 -0.00    +0.000 C 
DOCKED: ATOM     15  N   UNL     1      21.295 -19.621  -1.887 -0.47 -0.00    +0.000 N 
DOCKED: ATOM     16  H   UNL     1      22.030 -20.149  -2.272 -0.56 -0.00    +0.000 HD
DOCKED: BRANCH  15  17
DOCKED: ATOM     17  O   UNL     1      20.010 -19.982  -2.123 -1.82 -0.00    +0.000 OA
DOCKED: ATOM     18  H   UNL     1      19.424 -19.232  -1.938 -0.35 -0.00    +0.000 HD
DOCKED: ENDBRANCH  15  17
DOCKED: ENDBRANCH  11  14
DOCKED: ENDBRANCH   5  12
DOCKED: ENDBRANCH   4   8
DOCKED: ENDBRANCH   1   4
DOCKED: BRANCH   1  19
DOCKED: ATOM     19  C   UNL     1      29.122 -13.394   1.704 -0.16 -0.00    +0.000 C 
DOCKED: BRANCH  19  20
DOCKED: ATOM     20  C   UNL     1      28.144 -12.718   2.680 -0.26 -0.00    +0.000 C 
DOCKED: BRANCH  20  21
DOCKED: ATOM     21  C   UNL     1      28.576 -12.953   4.099 -0.28 -0.00    +0.000 A 
DOCKED: ATOM     22  C   UNL     1      28.212 -14.011   4.934 -0.50 -0.00    +0.000 A 
DOCKED: ATOM     23  N   UNL     1      28.742 -13.850   6.169 -0.39 -0.00    +0.000 N 
DOCKED: ATOM     24  C   UNL     1      29.421 -12.690   6.129 -0.30 -0.00    +0.000 A 
DOCKED: ATOM     25  C   UNL     1      29.337 -12.111   4.886 -0.19 -0.00    +0.000 A 
DOCKED: ATOM     26  C   UNL     1      29.942 -10.886   4.606 -0.08 -0.00    +0.000 A 
DOCKED: ATOM     27  C   UNL     1      30.657 -10.254   5.640 -0.06 -0.00    +0.000 A 
DOCKED: ATOM     28  C   UNL     1      30.747 -10.852   6.917 -0.10 -0.00    +0.000 A 
DOCKED: ATOM     29  C   UNL     1      30.121 -12.086   7.172 -0.22 -0.00    +0.000 A 
DOCKED: ATOM     30  C   UNL     1      27.362 -15.178   4.544 -0.25 -0.00    +0.000 C 
DOCKED: ATOM     31  H   UNL     1      28.649 -14.457   6.939 -0.45 -0.00    +0.000 HD
DOCKED: ENDBRANCH  20  21
DOCKED: ENDBRANCH  19  20
DOCKED: ENDBRANCH   1  19
DOCKED: TORSDOF 8
DOCKED: TER
DOCKED: ENDMDL
________________________________________________________________________________


	BEGINNING GENETIC ALGORITHM DOCKING 89 of 100
Run: 89 Seed: 960967133 422588473 [ Run 89 of 100 GA/GALS ]
Beginning LAMARCKIAN GENETIC ALGORITHM (LGA), with a maximum of 2500000 energy evaluations.

Final-Value: -15.618


	FINAL GENETIC ALGORITHM DOCKED STATE
	_______________________________________________


Detailed state:  trans 28.742 -15.714 -0.547 quatxyzw 0.041870 0.959454 -0.131493 0.245774 center 0.693 0.091 0.076 ntor 8 12.8570 147.6017 -126.2531 -7.6610 -176.9524 -154.9967 -127.5341 42.3227
State:	 28.742 -15.714  -0.547   0.043  0.990 -0.136 151.545     12.86  147.60 -126.25   -7.66 -176.95 -155.00 -127.53   42.32

DOCKED: MODEL       89
DOCKED: USER    Run = 89
DOCKED: USER    DPF = ligand_dock.biased.dpf
DOCKED: USER  
DOCKED: USER    Estimated Free Energy of Binding    =  -10.45 kcal/mol  [=(1)+(2)+(3)-(4)]
DOCKED: USER    Estimated Inhibition Constant, Ki   =   21.78 nM (nanomolar)  [Temperature = 298.15 K]
DOCKED: USER    
DOCKED: USER    (1) Final Intermolecular Energy     =  -12.84 kcal/mol
DOCKED: USER        vdW + Hbond + desolv Energy     =  -12.84 kcal/mol
DOCKED: USER        Electrostatic Energy            =   +0.00 kcal/mol
DOCKED: USER    (2) Final Total Internal Energy     =   -2.78 kcal/mol
DOCKED: USER    (3) Torsional Free Energy           =   +2.39 kcal/mol
DOCKED: USER    (4) Unbound System's Energy  [=(2)] =   -2.78 kcal/mol
DOCKED: USER    
DOCKED: USER    
DOCKED: USER    NEWDPF move ligand.pdbqt
DOCKED: USER    NEWDPF about 0.693000 0.091000 0.076000
DOCKED: USER    NEWDPF tran0 28.742435 -15.714349 -0.547104
DOCKED: USER    NEWDPF quaternion0 0.041870 0.959454 -0.131493 0.245774
DOCKED: USER    NEWDPF axisangle0 0.043195 0.989814 -0.135654 151.544897
DOCKED: USER    NEWDPF quat0 0.043195 0.989814 -0.135654 151.544897
DOCKED: USER    NEWDPF dihe0 12.86 147.60 -126.25 -7.66 -176.95 -155.00 -127.53 42.32 
DOCKED: USER  keepresnum = 1 
DOCKED: USER  
DOCKED: REMARK  Name = 
DOCKED: REMARK  9 active torsions:
DOCKED: REMARK  status: ('A' for Active; 'I' for Inactive)
DOCKED: REMARK    1  A    between atoms: C_2  and  C_3
DOCKED: REMARK    2  A    between atoms: C_4  and  C_5
DOCKED: REMARK    3  A    between atoms: C_8  and  C_9
DOCKED: REMARK    4  A    between atoms: C_9  and  N_10
DOCKED: REMARK    5  A    between atoms: N_10  and  C_11
DOCKED: REMARK    6  A    between atoms: C_11  and  C_12
DOCKED: REMARK    7  A    between atoms: C_12  and  C_13
DOCKED: REMARK    8  A    between atoms: C_14  and  C_22
DOCKED: REMARK    9  A    between atoms: N_25  and  O_26
DOCKED: REMARK                            x       y       z     vdW  Elec       q    Type
DOCKED: REMARK                         _______ _______ _______ _____ _____    ______ ____
DOCKED: USER                              x       y       z     vdW  Elec       q    Type
DOCKED: USER                           _______ _______ _______ _____ _____    ______ ____
DOCKED: ROOT
DOCKED: ATOM      1  N   UNL     1      29.682 -15.179  -1.101 -0.10 -0.00    +0.000 N 
DOCKED: ATOM      2  H   UNL     1      29.992 -14.495  -0.409 +0.00 -0.00    +0.000 HD
DOCKED: ATOM      3  H   UNL     1      28.900 -14.824  -1.651 +0.01 -0.00    +0.000 HD
DOCKED: ENDROOT
DOCKED: BRANCH   1   4
DOCKED: ATOM      4  C   UNL     1      29.226 -16.385  -0.399 -0.23 -0.00    +0.000 C 
DOCKED: BRANCH   4   8
DOCKED: ATOM      5  C   UNL     1      24.979 -16.943  -0.992 -0.57 -0.00    +0.000 A 
DOCKED: ATOM      6  C   UNL     1      25.511 -15.653  -0.791 -0.35 -0.00    +0.000 A 
DOCKED: ATOM      7  C   UNL     1      26.884 -15.475  -0.605 -0.32 -0.00    +0.000 A 
DOCKED: ATOM      8  C   UNL     1      27.753 -16.576  -0.637 -0.34 -0.00    +0.000 A 
DOCKED: ATOM      9  C   UNL     1      27.229 -17.860  -0.836 -0.36 -0.00    +0.000 A 
DOCKED: ATOM     10  C   UNL     1      25.855 -18.040  -1.023 -0.48 -0.00    +0.000 A 
DOCKED: BRANCH   5  12
DOCKED: ATOM     11  C   UNL     1      22.904 -18.308  -0.842 -0.83 -0.00    +0.000 C 
DOCKED: ATOM     12  C   UNL     1      23.530 -17.181  -1.208 -0.65 -0.00    +0.000 C 
DOCKED: BRANCH  11  14
DOCKED: ATOM     13  O   UNL     1      20.641 -17.668  -0.711 -2.21 +0.00    +0.000 OA
DOCKED: ATOM     14  C   UNL     1      21.465 -18.547  -1.077 -0.78 -0.00    +0.000 C 
DOCKED: ATOM     15  N   UNL     1      20.986 -19.726  -1.737 -0.70 -0.00    +0.000 N 
DOCKED: ATOM     16  H   UNL     1      21.625 -20.366  -2.125 -0.51 -0.00    +0.000 HD
DOCKED: BRANCH  15  17
DOCKED: ATOM     17  O   UNL     1      19.655 -19.962  -1.829 -1.62 -0.00    +0.000 OA
DOCKED: ATOM     18  H   UNL     1      19.167 -19.160  -1.588 -0.51 -0.00    +0.000 HD
DOCKED: ENDBRANCH  15  17
DOCKED: ENDBRANCH  11  14
DOCKED: ENDBRANCH   5  12
DOCKED: ENDBRANCH   4   8
DOCKED: ENDBRANCH   1   4
DOCKED: BRANCH   1  19
DOCKED: ATOM     19  C   UNL     1      30.793 -15.455  -2.024 -0.07 -0.00    +0.000 C 
DOCKED: BRANCH  19  20
DOCKED: ATOM     20  C   UNL     1      30.571 -14.832  -3.413 -0.07 -0.00    +0.000 C 
DOCKED: BRANCH  20  21
DOCKED: ATOM     21  C   UNL     1      29.356 -13.950  -3.402 -0.08 -0.00    +0.000 A 
DOCKED: ATOM     22  C   UNL     1      29.281 -12.612  -3.010 -0.04 -0.00    +0.000 A 
DOCKED: ATOM     23  N   UNL     1      28.003 -12.167  -3.070 -0.10 -0.00    +0.000 N 
DOCKED: ATOM     24  C   UNL     1      27.268 -13.215  -3.476 -0.20 -0.00    +0.000 A 
DOCKED: ATOM     25  C   UNL     1      28.055 -14.322  -3.683 -0.19 -0.00    +0.000 A 
DOCKED: ATOM     26  C   UNL     1      27.514 -15.543  -4.085 -0.32 -0.00    +0.000 A 
DOCKED: ATOM     27  C   UNL     1      26.123 -15.610  -4.286 -0.49 -0.00    +0.000 A 
DOCKED: ATOM     28  C   UNL     1      25.313 -14.471  -4.078 -0.45 -0.00    +0.000 A 
DOCKED: ATOM     29  C   UNL     1      25.887 -13.255  -3.666 -0.26 -0.00    +0.000 A 
DOCKED: ATOM     30  C   UNL     1      30.435 -11.761  -2.585 -0.01 -0.00    +0.000 C 
DOCKED: ATOM     31  H   UNL     1      27.680 -11.261  -2.858 +0.00 -0.00    +0.000 HD
DOCKED: ENDBRANCH  20  21
DOCKED: ENDBRANCH  19  20
DOCKED: ENDBRANCH   1  19
DOCKED: TORSDOF 8
DOCKED: TER
DOCKED: ENDMDL
________________________________________________________________________________


	BEGINNING GENETIC ALGORITHM DOCKING 90 of 100
Run: 90 Seed: 307575230 1356057901 [ Run 90 of 100 GA/GALS ]
Beginning LAMARCKIAN GENETIC ALGORITHM (LGA), with a maximum of 2500000 energy evaluations.

Final-Value: -15.892


	FINAL GENETIC ALGORITHM DOCKED STATE
	_______________________________________________


Detailed state:  trans 27.506 -16.126 0.405 quatxyzw 0.387954 -0.693986 -0.501776 -0.340728 center 0.693 0.091 0.076 ntor 8 -3.7835 -179.6031 117.0278 -36.5840 -96.7362 54.2842 -175.4777 38.2830
State:	 27.506 -16.126   0.405   0.413 -0.738 -0.534 -140.158     -3.78 -179.60  117.03  -36.58  -96.74   54.28 -175.48   38.28

DOCKED: MODEL       90
DOCKED: USER    Run = 90
DOCKED: USER    DPF = ligand_dock.biased.dpf
DOCKED: USER  
DOCKED: USER    Estimated Free Energy of Binding    =  -11.28 kcal/mol  [=(1)+(2)+(3)-(4)]
DOCKED: USER    Estimated Inhibition Constant, Ki   =    5.43 nM (nanomolar)  [Temperature = 298.15 K]
DOCKED: USER    
DOCKED: USER    (1) Final Intermolecular Energy     =  -13.66 kcal/mol
DOCKED: USER        vdW + Hbond + desolv Energy     =  -13.66 kcal/mol
DOCKED: USER        Electrostatic Energy            =   +0.00 kcal/mol
DOCKED: USER    (2) Final Total Internal Energy     =   -2.23 kcal/mol
DOCKED: USER    (3) Torsional Free Energy           =   +2.39 kcal/mol
DOCKED: USER    (4) Unbound System's Energy  [=(2)] =   -2.23 kcal/mol
DOCKED: USER    
DOCKED: USER    
DOCKED: USER    NEWDPF move ligand.pdbqt
DOCKED: USER    NEWDPF about 0.693000 0.091000 0.076000
DOCKED: USER    NEWDPF tran0 27.506416 -16.125819 0.404961
DOCKED: USER    NEWDPF quaternion0 0.387954 -0.693986 -0.501776 -0.340728
DOCKED: USER    NEWDPF axisangle0 0.412645 -0.738156 -0.533713 -140.157538
DOCKED: USER    NEWDPF quat0 0.412645 -0.738156 -0.533713 -140.157538
DOCKED: USER    NEWDPF dihe0 -3.78 -179.60 117.03 -36.58 -96.74 54.28 -175.48 38.28 
DOCKED: USER  keepresnum = 1 
DOCKED: USER  
DOCKED: REMARK  Name = 
DOCKED: REMARK  9 active torsions:
DOCKED: REMARK  status: ('A' for Active; 'I' for Inactive)
DOCKED: REMARK    1  A    between atoms: C_2  and  C_3
DOCKED: REMARK    2  A    between atoms: C_4  and  C_5
DOCKED: REMARK    3  A    between atoms: C_8  and  C_9
DOCKED: REMARK    4  A    between atoms: C_9  and  N_10
DOCKED: REMARK    5  A    between atoms: N_10  and  C_11
DOCKED: REMARK    6  A    between atoms: C_11  and  C_12
DOCKED: REMARK    7  A    between atoms: C_12  and  C_13
DOCKED: REMARK    8  A    between atoms: C_14  and  C_22
DOCKED: REMARK    9  A    between atoms: N_25  and  O_26
DOCKED: REMARK                            x       y       z     vdW  Elec       q    Type
DOCKED: REMARK                         _______ _______ _______ _____ _____    ______ ____
DOCKED: USER                              x       y       z     vdW  Elec       q    Type
DOCKED: USER                           _______ _______ _______ _____ _____    ______ ____
DOCKED: ROOT
DOCKED: ATOM      1  N   UNL     1      27.934 -15.160   1.005 -0.25 -0.00    +0.000 N 
DOCKED: ATOM      2  H   UNL     1      28.542 -15.581   1.708 -1.18 -0.00    +0.000 HD
DOCKED: ATOM      3  H   UNL     1      26.959 -15.163   1.305 -0.05 -0.00    +0.000 HD
DOCKED: ENDROOT
DOCKED: BRANCH   1   4
DOCKED: ATOM      4  C   UNL     1      28.026 -15.948  -0.231 -0.31 -0.00    +0.000 C 
DOCKED: BRANCH   4   8
DOCKED: ATOM      5  C   UNL     1      24.311 -18.025  -0.994 -0.69 -0.00    +0.000 A 
DOCKED: ATOM      6  C   UNL     1      25.307 -18.612  -0.188 -0.48 -0.00    +0.000 A 
DOCKED: ATOM      7  C   UNL     1      26.504 -17.936   0.061 -0.52 -0.00    +0.000 A 
DOCKED: ATOM      8  C   UNL     1      26.721 -16.656  -0.470 -0.43 -0.00    +0.000 A 
DOCKED: ATOM      9  C   UNL     1      25.733 -16.069  -1.272 -0.46 -0.00    +0.000 A 
DOCKED: ATOM     10  C   UNL     1      24.534 -16.743  -1.522 -0.56 -0.00    +0.000 A 
DOCKED: BRANCH   5  12
DOCKED: ATOM     11  C   UNL     1      21.911 -18.505  -0.547 -0.85 -0.00    +0.000 C 
DOCKED: ATOM     12  C   UNL     1      23.018 -18.697  -1.277 -0.79 -0.00    +0.000 C 
DOCKED: BRANCH  11  14
DOCKED: ATOM     13  O   UNL     1      20.460 -19.714  -1.954 -1.72 -0.00    +0.000 OA
DOCKED: ATOM     14  C   UNL     1      20.632 -19.191  -0.821 -0.90 -0.00    +0.000 C 
DOCKED: ATOM     15  N   UNL     1      19.601 -19.307   0.169 -0.72 -0.00    +0.000 N 
DOCKED: ATOM     16  H   UNL     1      19.767 -19.000   1.088 -0.23 -0.00    +0.000 HD
DOCKED: BRANCH  15  17
DOCKED: ATOM     17  O   UNL     1      18.399 -19.841  -0.158 -0.81 -0.00    +0.000 OA
DOCKED: ATOM     18  H   UNL     1      18.380 -20.036  -1.108 -0.42 -0.00    +0.000 HD
DOCKED: ENDBRANCH  15  17
DOCKED: ENDBRANCH  11  14
DOCKED: ENDBRANCH   5  12
DOCKED: ENDBRANCH   4   8
DOCKED: ENDBRANCH   1   4
DOCKED: BRANCH   1  19
DOCKED: ATOM     19  C   UNL     1      28.339 -13.760   0.807 -0.20 -0.00    +0.000 C 
DOCKED: BRANCH  19  20
DOCKED: ATOM     20  C   UNL     1      29.171 -13.564  -0.472 -0.08 -0.00    +0.000 C 
DOCKED: BRANCH  20  21
DOCKED: ATOM     21  C   UNL     1      28.271 -13.314  -1.648 -0.10 -0.00    +0.000 A 
DOCKED: ATOM     22  C   UNL     1      27.300 -12.319  -1.778 -0.10 -0.00    +0.000 A 
DOCKED: ATOM     23  N   UNL     1      26.638 -12.448  -2.952 -0.16 -0.00    +0.000 N 
DOCKED: ATOM     24  C   UNL     1      27.167 -13.526  -3.556 -0.23 -0.00    +0.000 A 
DOCKED: ATOM     25  C   UNL     1      28.160 -14.084  -2.789 -0.14 -0.00    +0.000 A 
DOCKED: ATOM     26  C   UNL     1      28.844 -15.231  -3.195 -0.17 -0.00    +0.000 A 
DOCKED: ATOM     27  C   UNL     1      28.490 -15.803  -4.431 -0.27 -0.00    +0.000 A 
DOCKED: ATOM     28  C   UNL     1      27.472 -15.226  -5.222 -0.41 -0.00    +0.000 A 
DOCKED: ATOM     29  C   UNL     1      26.796 -14.073  -4.783 -0.35 -0.00    +0.000 A 
DOCKED: ATOM     30  C   UNL     1      27.013 -11.243  -0.780 -0.11 -0.00    +0.000 C 
DOCKED: ATOM     31  H   UNL     1      25.916 -11.871  -3.293 -0.00 -0.00    +0.000 HD
DOCKED: ENDBRANCH  20  21
DOCKED: ENDBRANCH  19  20
DOCKED: ENDBRANCH   1  19
DOCKED: TORSDOF 8
DOCKED: TER
DOCKED: ENDMDL
________________________________________________________________________________


	BEGINNING GENETIC ALGORITHM DOCKING 91 of 100
Run: 91 Seed: 1553420329 522041742 [ Run 91 of 100 GA/GALS ]
Beginning LAMARCKIAN GENETIC ALGORITHM (LGA), with a maximum of 2500000 energy evaluations.

Final-Value: -15.895


	FINAL GENETIC ALGORITHM DOCKED STATE
	_______________________________________________


Detailed state:  trans 27.879 -16.219 -0.086 quatxyzw -0.435627 0.430862 0.692930 0.380047 center 0.693 0.091 0.076 ntor 8 6.5671 -133.6979 -158.1675 180.0000 -55.1870 175.3311 57.7092 46.6701
State:	 27.879 -16.219  -0.086  -0.471  0.466  0.749 135.327      6.57 -133.70 -158.17  180.00  -55.19  175.33   57.71   46.67

DOCKED: MODEL       91
DOCKED: USER    Run = 91
DOCKED: USER    DPF = ligand_dock.biased.dpf
DOCKED: USER  
DOCKED: USER    Estimated Free Energy of Binding    =  -11.94 kcal/mol  [=(1)+(2)+(3)-(4)]
DOCKED: USER    Estimated Inhibition Constant, Ki   =    1.78 nM (nanomolar)  [Temperature = 298.15 K]
DOCKED: USER    
DOCKED: USER    (1) Final Intermolecular Energy     =  -14.32 kcal/mol
DOCKED: USER        vdW + Hbond + desolv Energy     =  -14.32 kcal/mol
DOCKED: USER        Electrostatic Energy            =   +0.00 kcal/mol
DOCKED: USER    (2) Final Total Internal Energy     =   -1.57 kcal/mol
DOCKED: USER    (3) Torsional Free Energy           =   +2.39 kcal/mol
DOCKED: USER    (4) Unbound System's Energy  [=(2)] =   -1.57 kcal/mol
DOCKED: USER    
DOCKED: USER    
DOCKED: USER    NEWDPF move ligand.pdbqt
DOCKED: USER    NEWDPF about 0.693000 0.091000 0.076000
DOCKED: USER    NEWDPF tran0 27.879196 -16.218858 -0.086381
DOCKED: USER    NEWDPF quaternion0 -0.435627 0.430862 0.692930 0.380047
DOCKED: USER    NEWDPF axisangle0 -0.470965 0.465813 0.749140 135.326773
DOCKED: USER    NEWDPF quat0 -0.470965 0.465813 0.749140 135.326773
DOCKED: USER    NEWDPF dihe0 6.57 -133.70 -158.17 180.00 -55.19 175.33 57.71 46.67 
DOCKED: USER  keepresnum = 1 
DOCKED: USER  
DOCKED: REMARK  Name = 
DOCKED: REMARK  9 active torsions:
DOCKED: REMARK  status: ('A' for Active; 'I' for Inactive)
DOCKED: REMARK    1  A    between atoms: C_2  and  C_3
DOCKED: REMARK    2  A    between atoms: C_4  and  C_5
DOCKED: REMARK    3  A    between atoms: C_8  and  C_9
DOCKED: REMARK    4  A    between atoms: C_9  and  N_10
DOCKED: REMARK    5  A    between atoms: N_10  and  C_11
DOCKED: REMARK    6  A    between atoms: C_11  and  C_12
DOCKED: REMARK    7  A    between atoms: C_12  and  C_13
DOCKED: REMARK    8  A    between atoms: C_14  and  C_22
DOCKED: REMARK    9  A    between atoms: N_25  and  O_26
DOCKED: REMARK                            x       y       z     vdW  Elec       q    Type
DOCKED: REMARK                         _______ _______ _______ _____ _____    ______ ____
DOCKED: USER                              x       y       z     vdW  Elec       q    Type
DOCKED: USER                           _______ _______ _______ _____ _____    ______ ____
DOCKED: ROOT
DOCKED: ATOM      1  N   UNL     1      28.416 -15.577   0.795 -0.08 -0.00    +0.000 N 
DOCKED: ATOM      2  H   UNL     1      29.270 -16.108   0.972 -0.75 -0.00    +0.000 HD
DOCKED: ATOM      3  H   UNL     1      27.621 -15.974   1.295 -0.45 -0.00    +0.000 HD
DOCKED: ENDROOT
DOCKED: BRANCH   1   4
DOCKED: ATOM      4  C   UNL     1      28.116 -15.635  -0.641 -0.28 -0.00    +0.000 C 
DOCKED: BRANCH   4   8
DOCKED: ATOM      5  C   UNL     1      24.212 -17.418  -1.173 -0.65 -0.00    +0.000 A 
DOCKED: ATOM      6  C   UNL     1      24.658 -16.398  -2.038 -0.41 -0.00    +0.000 A 
DOCKED: ATOM      7  C   UNL     1      25.922 -15.827  -1.867 -0.44 -0.00    +0.000 A 
DOCKED: ATOM      8  C   UNL     1      26.772 -16.277  -0.846 -0.40 -0.00    +0.000 A 
DOCKED: ATOM      9  C   UNL     1      26.333 -17.292   0.016 -0.42 -0.00    +0.000 A 
DOCKED: ATOM     10  C   UNL     1      25.069 -17.865  -0.154 -0.58 -0.00    +0.000 A 
DOCKED: BRANCH   5  12
DOCKED: ATOM     11  C   UNL     1      22.458 -19.065  -0.540 -0.80 -0.00    +0.000 C 
DOCKED: ATOM     12  C   UNL     1      22.885 -18.065  -1.323 -0.68 -0.00    +0.000 C 
DOCKED: BRANCH  11  14
DOCKED: ATOM     13  O   UNL     1      20.621 -19.737  -1.853 -1.64 -0.00    +0.000 OA
DOCKED: ATOM     14  C   UNL     1      21.144 -19.718  -0.706 -0.74 -0.00    +0.000 C 
DOCKED: ATOM     15  N   UNL     1      20.466 -20.356   0.384 -0.67 -0.00    +0.000 N 
DOCKED: ATOM     16  H   UNL     1      20.912 -20.444   1.256 -0.54 -0.00    +0.000 HD
DOCKED: BRANCH  15  17
DOCKED: ATOM     17  O   UNL     1      19.211 -20.841   0.217 -0.76 -0.00    +0.000 OA
DOCKED: ATOM     18  H   UNL     1      18.959 -20.769  -0.717 -0.44 -0.00    +0.000 HD
DOCKED: ENDBRANCH  15  17
DOCKED: ENDBRANCH  11  14
DOCKED: ENDBRANCH   5  12
DOCKED: ENDBRANCH   4   8
DOCKED: ENDBRANCH   1   4
DOCKED: BRANCH   1  19
DOCKED: ATOM     19  C   UNL     1      28.607 -14.200   1.272 -0.22 -0.00    +0.000 C 
DOCKED: BRANCH  19  20
DOCKED: ATOM     20  C   UNL     1      27.379 -13.664   2.028 -0.33 -0.00    +0.000 C 
DOCKED: BRANCH  20  21
DOCKED: ATOM     21  C   UNL     1      27.791 -13.088   3.353 -0.32 -0.00    +0.000 A 
DOCKED: ATOM     22  C   UNL     1      27.926 -13.762   4.567 -0.49 -0.00    +0.000 A 
DOCKED: ATOM     23  N   UNL     1      28.247 -12.899   5.560 -0.43 -0.00    +0.000 N 
DOCKED: ATOM     24  C   UNL     1      28.296 -11.684   4.989 -0.31 +0.00    +0.000 A 
DOCKED: ATOM     25  C   UNL     1      28.018 -11.757   3.646 -0.25 +0.00    +0.000 A 
DOCKED: ATOM     26  C   UNL     1      27.985 -10.619   2.840 -0.19 +0.00    +0.000 A 
DOCKED: ATOM     27  C   UNL     1      28.257  -9.378   3.446 -0.11 +0.00    +0.000 A 
DOCKED: ATOM     28  C   UNL     1      28.548  -9.303   4.826 -0.20 +0.00    +0.000 A 
DOCKED: ATOM     29  C   UNL     1      28.568 -10.468   5.614 -0.28 +0.00    +0.000 A 
DOCKED: ATOM     30  C   UNL     1      27.753 -15.233   4.773 -0.43 -0.00    +0.000 C 
DOCKED: ATOM     31  H   UNL     1      28.410 -13.118   6.506 -0.03 -0.00    +0.000 HD
DOCKED: ENDBRANCH  20  21
DOCKED: ENDBRANCH  19  20
DOCKED: ENDBRANCH   1  19
DOCKED: TORSDOF 8
DOCKED: TER
DOCKED: ENDMDL
________________________________________________________________________________


	BEGINNING GENETIC ALGORITHM DOCKING 92 of 100
Run: 92 Seed: 622581140 2137218558 [ Run 92 of 100 GA/GALS ]
Beginning LAMARCKIAN GENETIC ALGORITHM (LGA), with a maximum of 2500000 energy evaluations.

Final-Value: -15.098


	FINAL GENETIC ALGORITHM DOCKED STATE
	_______________________________________________


Detailed state:  trans 28.349 -16.355 -1.519 quatxyzw 0.695651 0.041720 0.570296 0.434846 center 0.693 0.091 0.076 ntor 8 14.2809 36.9606 -161.5354 161.0911 -17.1111 175.1535 24.3678 -91.1560
State:	 28.349 -16.355  -1.519   0.773  0.046  0.633 128.449     14.28   36.96 -161.54  161.09  -17.11  175.15   24.37  -91.16

DOCKED: MODEL       92
DOCKED: USER    Run = 92
DOCKED: USER    DPF = ligand_dock.biased.dpf
DOCKED: USER  
DOCKED: USER    Estimated Free Energy of Binding    =  -11.21 kcal/mol  [=(1)+(2)+(3)-(4)]
DOCKED: USER    Estimated Inhibition Constant, Ki   =    6.06 nM (nanomolar)  [Temperature = 298.15 K]
DOCKED: USER    
DOCKED: USER    (1) Final Intermolecular Energy     =  -13.60 kcal/mol
DOCKED: USER        vdW + Hbond + desolv Energy     =  -13.60 kcal/mol
DOCKED: USER        Electrostatic Energy            =   +0.00 kcal/mol
DOCKED: USER    (2) Final Total Internal Energy     =   -1.50 kcal/mol
DOCKED: USER    (3) Torsional Free Energy           =   +2.39 kcal/mol
DOCKED: USER    (4) Unbound System's Energy  [=(2)] =   -1.50 kcal/mol
DOCKED: USER    
DOCKED: USER    
DOCKED: USER    NEWDPF move ligand.pdbqt
DOCKED: USER    NEWDPF about 0.693000 0.091000 0.076000
DOCKED: USER    NEWDPF tran0 28.349086 -16.355089 -1.519134
DOCKED: USER    NEWDPF quaternion0 0.695651 0.041720 0.570296 0.434846
DOCKED: USER    NEWDPF axisangle0 0.772512 0.046329 0.633307 128.449005
DOCKED: USER    NEWDPF quat0 0.772512 0.046329 0.633307 128.449005
DOCKED: USER    NEWDPF dihe0 14.28 36.96 -161.54 161.09 -17.11 175.15 24.37 -91.16 
DOCKED: USER  keepresnum = 1 
DOCKED: USER  
DOCKED: REMARK  Name = 
DOCKED: REMARK  9 active torsions:
DOCKED: REMARK  status: ('A' for Active; 'I' for Inactive)
DOCKED: REMARK    1  A    between atoms: C_2  and  C_3
DOCKED: REMARK    2  A    between atoms: C_4  and  C_5
DOCKED: REMARK    3  A    between atoms: C_8  and  C_9
DOCKED: REMARK    4  A    between atoms: C_9  and  N_10
DOCKED: REMARK    5  A    between atoms: N_10  and  C_11
DOCKED: REMARK    6  A    between atoms: C_11  and  C_12
DOCKED: REMARK    7  A    between atoms: C_12  and  C_13
DOCKED: REMARK    8  A    between atoms: C_14  and  C_22
DOCKED: REMARK    9  A    between atoms: N_25  and  O_26
DOCKED: REMARK                            x       y       z     vdW  Elec       q    Type
DOCKED: REMARK                         _______ _______ _______ _____ _____    ______ ____
DOCKED: USER                              x       y       z     vdW  Elec       q    Type
DOCKED: USER                           _______ _______ _______ _____ _____    ______ ____
DOCKED: ROOT
DOCKED: ATOM      1  N   UNL     1      28.297 -16.410  -2.732 -0.27 -0.00    +0.000 N 
DOCKED: ATOM      2  H   UNL     1      27.935 -17.349  -2.900 -0.01 -0.00    +0.000 HD
DOCKED: ATOM      3  H   UNL     1      29.305 -16.422  -2.576 -0.00 -0.00    +0.000 HD
DOCKED: ENDROOT
DOCKED: BRANCH   1   4
DOCKED: ATOM      4  C   UNL     1      27.663 -15.870  -1.522 -0.32 -0.00    +0.000 C 
DOCKED: BRANCH   4   8
DOCKED: ATOM      5  C   UNL     1      24.124 -18.209  -0.685 -0.71 -0.00    +0.000 A 
DOCKED: ATOM      6  C   UNL     1      25.238 -18.263   0.176 -0.50 -0.00    +0.000 A 
DOCKED: ATOM      7  C   UNL     1      26.379 -17.502  -0.094 -0.50 -0.00    +0.000 A 
DOCKED: ATOM      8  C   UNL     1      26.421 -16.659  -1.214 -0.45 -0.00    +0.000 A 
DOCKED: ATOM      9  C   UNL     1      25.315 -16.602  -2.073 -0.52 -0.00    +0.000 A 
DOCKED: ATOM     10  C   UNL     1      24.172 -17.362  -1.804 -0.52 -0.00    +0.000 A 
DOCKED: BRANCH   5  12
DOCKED: ATOM     11  C   UNL     1      21.776 -18.871  -1.176 -0.77 -0.00    +0.000 C 
DOCKED: ATOM     12  C   UNL     1      22.885 -18.987  -0.434 -0.78 -0.00    +0.000 C 
DOCKED: BRANCH  11  14
DOCKED: ATOM     13  O   UNL     1      19.686 -19.739  -1.830 -1.77 -0.00    +0.000 OA
DOCKED: ATOM     14  C   UNL     1      20.540 -19.634  -0.909 -0.87 -0.00    +0.000 C 
DOCKED: ATOM     15  N   UNL     1      20.301 -20.284   0.346 -0.70 -0.00    +0.000 N 
DOCKED: ATOM     16  H   UNL     1      21.006 -20.301   1.032 -0.55 -0.00    +0.000 HD
DOCKED: BRANCH  15  17
DOCKED: ATOM     17  O   UNL     1      19.106 -20.874   0.592 -0.78 -0.00    +0.000 OA
DOCKED: ATOM     18  H   UNL     1      18.615 -20.969  -0.240 -0.25 -0.00    +0.000 HD
DOCKED: ENDBRANCH  15  17
DOCKED: ENDBRANCH  11  14
DOCKED: ENDBRANCH   5  12
DOCKED: ENDBRANCH   4   8
DOCKED: ENDBRANCH   1   4
DOCKED: BRANCH   1  19
DOCKED: ATOM     19  C   UNL     1      28.035 -15.582  -3.918 -0.33 -0.00    +0.000 C 
DOCKED: BRANCH  19  20
DOCKED: ATOM     20  C   UNL     1      29.236 -14.698  -4.296 -0.18 -0.00    +0.000 C 
DOCKED: BRANCH  20  21
DOCKED: ATOM     21  C   UNL     1      29.044 -14.112  -5.665 -0.23 -0.00    +0.000 A 
DOCKED: ATOM     22  C   UNL     1      29.699 -14.473  -6.844 -0.28 -0.00    +0.000 A 
DOCKED: ATOM     23  N   UNL     1      29.315 -13.676  -7.868 -0.24 -0.00    +0.000 N 
DOCKED: ATOM     24  C   UNL     1      28.439 -12.801  -7.344 -0.21 -0.00    +0.000 A 
DOCKED: ATOM     25  C   UNL     1      28.253 -13.030  -6.003 -0.21 -0.00    +0.000 A 
DOCKED: ATOM     26  C   UNL     1      27.406 -12.234  -5.233 -0.18 -0.00    +0.000 A 
DOCKED: ATOM     27  C   UNL     1      26.731 -11.180  -5.877 -0.18 -0.00    +0.000 A 
DOCKED: ATOM     28  C   UNL     1      26.918 -10.946  -7.257 -0.16 -0.00    +0.000 A 
DOCKED: ATOM     29  C   UNL     1      27.784 -11.763  -8.007 -0.19 -0.00    +0.000 A 
DOCKED: ATOM     30  C   UNL     1      30.687 -15.587  -6.987 -0.29 -0.00    +0.000 C 
DOCKED: ATOM     31  H   UNL     1      29.616 -13.726  -8.804 -0.59 -0.00    +0.000 HD
DOCKED: ENDBRANCH  20  21
DOCKED: ENDBRANCH  19  20
DOCKED: ENDBRANCH   1  19
DOCKED: TORSDOF 8
DOCKED: TER
DOCKED: ENDMDL
________________________________________________________________________________


	BEGINNING GENETIC ALGORITHM DOCKING 93 of 100
Run: 93 Seed: 869508603 646622296 [ Run 93 of 100 GA/GALS ]
Beginning LAMARCKIAN GENETIC ALGORITHM (LGA), with a maximum of 2500000 energy evaluations.

Final-Value: -16.162


	FINAL GENETIC ALGORITHM DOCKED STATE
	_______________________________________________


Detailed state:  trans 28.813 -16.456 -0.038 quatxyzw -0.186302 0.744215 0.559361 0.313927 center 0.693 0.091 0.076 ntor 8 18.0232 -111.5128 -60.6492 159.6863 -180.0000 -163.7239 162.9753 30.4822
State:	 28.813 -16.456  -0.038  -0.196  0.784  0.589 143.408     18.02 -111.51  -60.65  159.69 -180.00 -163.72  162.98   30.48

DOCKED: MODEL       93
DOCKED: USER    Run = 93
DOCKED: USER    DPF = ligand_dock.biased.dpf
DOCKED: USER  
DOCKED: USER    Estimated Free Energy of Binding    =  -11.62 kcal/mol  [=(1)+(2)+(3)-(4)]
DOCKED: USER    Estimated Inhibition Constant, Ki   =    3.06 nM (nanomolar)  [Temperature = 298.15 K]
DOCKED: USER    
DOCKED: USER    (1) Final Intermolecular Energy     =  -14.00 kcal/mol
DOCKED: USER        vdW + Hbond + desolv Energy     =  -14.00 kcal/mol
DOCKED: USER        Electrostatic Energy            =   +0.00 kcal/mol
DOCKED: USER    (2) Final Total Internal Energy     =   -2.16 kcal/mol
DOCKED: USER    (3) Torsional Free Energy           =   +2.39 kcal/mol
DOCKED: USER    (4) Unbound System's Energy  [=(2)] =   -2.16 kcal/mol
DOCKED: USER    
DOCKED: USER    
DOCKED: USER    NEWDPF move ligand.pdbqt
DOCKED: USER    NEWDPF about 0.693000 0.091000 0.076000
DOCKED: USER    NEWDPF tran0 28.813252 -16.455505 -0.038310
DOCKED: USER    NEWDPF quaternion0 -0.186302 0.744215 0.559361 0.313927
DOCKED: USER    NEWDPF axisangle0 -0.196221 0.783841 0.589144 143.407863
DOCKED: USER    NEWDPF quat0 -0.196221 0.783841 0.589144 143.407863
DOCKED: USER    NEWDPF dihe0 18.02 -111.51 -60.65 159.69 -180.00 -163.72 162.98 30.48 
DOCKED: USER  keepresnum = 1 
DOCKED: USER  
DOCKED: REMARK  Name = 
DOCKED: REMARK  9 active torsions:
DOCKED: REMARK  status: ('A' for Active; 'I' for Inactive)
DOCKED: REMARK    1  A    between atoms: C_2  and  C_3
DOCKED: REMARK    2  A    between atoms: C_4  and  C_5
DOCKED: REMARK    3  A    between atoms: C_8  and  C_9
DOCKED: REMARK    4  A    between atoms: C_9  and  N_10
DOCKED: REMARK    5  A    between atoms: N_10  and  C_11
DOCKED: REMARK    6  A    between atoms: C_11  and  C_12
DOCKED: REMARK    7  A    between atoms: C_12  and  C_13
DOCKED: REMARK    8  A    between atoms: C_14  and  C_22
DOCKED: REMARK    9  A    between atoms: N_25  and  O_26
DOCKED: REMARK                            x       y       z     vdW  Elec       q    Type
DOCKED: REMARK                         _______ _______ _______ _____ _____    ______ ____
DOCKED: USER                              x       y       z     vdW  Elec       q    Type
DOCKED: USER                           _______ _______ _______ _____ _____    ______ ____
DOCKED: ROOT
DOCKED: ATOM      1  N   UNL     1      29.671 -15.698   0.369 -0.15 -0.00    +0.000 N 
DOCKED: ATOM      2  H   UNL     1      30.202 -16.284   1.015 -0.51 -0.00    +0.000 HD
DOCKED: ATOM      3  H   UNL     1      28.839 -15.312   0.814 -0.36 -0.00    +0.000 HD
DOCKED: ENDROOT
DOCKED: BRANCH   1   4
DOCKED: ATOM      4  C   UNL     1      29.232 -16.523  -0.763 -0.25 -0.00    +0.000 C 
DOCKED: BRANCH   4   8
DOCKED: ATOM      5  C   UNL     1      25.029 -17.477  -0.410 -0.57 -0.00    +0.000 A 
DOCKED: ATOM      6  C   UNL     1      26.008 -18.474  -0.223 -0.55 -0.00    +0.000 A 
DOCKED: ATOM      7  C   UNL     1      27.366 -18.162  -0.332 -0.18 -0.00    +0.000 A 
DOCKED: ATOM      8  C   UNL     1      27.772 -16.848  -0.609 -0.36 -0.00    +0.000 A 
DOCKED: ATOM      9  C   UNL     1      26.802 -15.853  -0.795 -0.36 -0.00    +0.000 A 
DOCKED: ATOM     10  C   UNL     1      25.443 -16.164  -0.685 -0.39 -0.00    +0.000 A 
DOCKED: BRANCH   5  12
DOCKED: ATOM     11  C   UNL     1      22.832 -18.239  -1.293 -0.73 -0.00    +0.000 C 
DOCKED: ATOM     12  C   UNL     1      23.576 -17.756  -0.290 -0.73 -0.00    +0.000 C 
DOCKED: BRANCH  11  14
DOCKED: ATOM     13  O   UNL     1      20.644 -17.586  -0.711 -2.15 +0.00    +0.000 OA
DOCKED: ATOM     14  C   UNL     1      21.382 -18.497  -1.173 -0.59 -0.00    +0.000 C 
DOCKED: ATOM     15  N   UNL     1      20.789 -19.731  -1.598 -0.77 -0.00    +0.000 N 
DOCKED: ATOM     16  H   UNL     1      21.336 -20.405  -2.060 -0.46 -0.00    +0.000 HD
DOCKED: BRANCH  15  17
DOCKED: ATOM     17  O   UNL     1      19.476 -19.973  -1.364 -1.36 -0.00    +0.000 OA
DOCKED: ATOM     18  H   UNL     1      19.023 -19.137  -1.172 -0.45 -0.00    +0.000 HD
DOCKED: ENDBRANCH  15  17
DOCKED: ENDBRANCH  11  14
DOCKED: ENDBRANCH   5  12
DOCKED: ENDBRANCH   4   8
DOCKED: ENDBRANCH   1   4
DOCKED: BRANCH   1  19
DOCKED: ATOM     19  C   UNL     1      30.518 -14.573  -0.054 -0.09 -0.00    +0.000 C 
DOCKED: BRANCH  19  20
DOCKED: ATOM     20  C   UNL     1      29.961 -13.213   0.402 -0.06 -0.00    +0.000 C 
DOCKED: BRANCH  20  21
DOCKED: ATOM     21  C   UNL     1      28.743 -13.409   1.259 -0.14 -0.00    +0.000 A 
DOCKED: ATOM     22  C   UNL     1      27.415 -13.142   0.921 -0.22 -0.00    +0.000 A 
DOCKED: ATOM     23  N   UNL     1      26.597 -13.377   1.975 -0.32 -0.00    +0.000 N 
DOCKED: ATOM     24  C   UNL     1      27.398 -13.770   2.980 -0.35 -0.00    +0.000 A 
DOCKED: ATOM     25  C   UNL     1      28.713 -13.796   2.585 -0.23 -0.00    +0.000 A 
DOCKED: ATOM     26  C   UNL     1      29.737 -14.150   3.464 -0.26 -0.00    +0.000 A 
DOCKED: ATOM     27  C   UNL     1      29.382 -14.493   4.781 -0.35 -0.00    +0.000 A 
DOCKED: ATOM     28  C   UNL     1      28.029 -14.471   5.187 -0.39 -0.00    +0.000 A 
DOCKED: ATOM     29  C   UNL     1      27.018 -14.104   4.280 -0.45 -0.00    +0.000 A 
DOCKED: ATOM     30  C   UNL     1      26.931 -12.668  -0.412 -0.19 -0.00    +0.000 C 
DOCKED: ATOM     31  H   UNL     1      25.618 -13.279   1.999 -0.03 -0.00    +0.000 HD
DOCKED: ENDBRANCH  20  21
DOCKED: ENDBRANCH  19  20
DOCKED: ENDBRANCH   1  19
DOCKED: TORSDOF 8
DOCKED: TER
DOCKED: ENDMDL
________________________________________________________________________________


	BEGINNING GENETIC ALGORITHM DOCKING 94 of 100
Run: 94 Seed: 476545797 2082886196 [ Run 94 of 100 GA/GALS ]
Beginning LAMARCKIAN GENETIC ALGORITHM (LGA), with a maximum of 2500000 energy evaluations.

Final-Value: -16.433


	FINAL GENETIC ALGORITHM DOCKED STATE
	_______________________________________________


Detailed state:  trans 28.994 -15.375 1.221 quatxyzw 0.502046 -0.329442 -0.314257 -0.735296 center 0.693 0.091 0.076 ntor 8 3.7489 73.0817 119.8231 179.2959 -145.4116 -140.0786 170.7437 111.6839
State:	 28.994 -15.375   1.221   0.741 -0.486 -0.464 -85.336      3.75   73.08  119.82  179.30 -145.41 -140.08  170.74  111.68

DOCKED: MODEL       94
DOCKED: USER    Run = 94
DOCKED: USER    DPF = ligand_dock.biased.dpf
DOCKED: USER  
DOCKED: USER    Estimated Free Energy of Binding    =  -12.38 kcal/mol  [=(1)+(2)+(3)-(4)]
DOCKED: USER    Estimated Inhibition Constant, Ki   =  845.59 pM (picomolar)  [Temperature = 298.15 K]
DOCKED: USER    
DOCKED: USER    (1) Final Intermolecular Energy     =  -14.76 kcal/mol
DOCKED: USER        vdW + Hbond + desolv Energy     =  -14.76 kcal/mol
DOCKED: USER        Electrostatic Energy            =   +0.00 kcal/mol
DOCKED: USER    (2) Final Total Internal Energy     =   -1.67 kcal/mol
DOCKED: USER    (3) Torsional Free Energy           =   +2.39 kcal/mol
DOCKED: USER    (4) Unbound System's Energy  [=(2)] =   -1.67 kcal/mol
DOCKED: USER    
DOCKED: USER    
DOCKED: USER    NEWDPF move ligand.pdbqt
DOCKED: USER    NEWDPF about 0.693000 0.091000 0.076000
DOCKED: USER    NEWDPF tran0 28.994000 -15.375070 1.220940
DOCKED: USER    NEWDPF quaternion0 0.502046 -0.329442 -0.314257 -0.735296
DOCKED: USER    NEWDPF axisangle0 0.740759 -0.486085 -0.463679 -85.335527
DOCKED: USER    NEWDPF quat0 0.740759 -0.486085 -0.463679 -85.335527
DOCKED: USER    NEWDPF dihe0 3.75 73.08 119.82 179.30 -145.41 -140.08 170.74 111.68 
DOCKED: USER  keepresnum = 1 
DOCKED: USER  
DOCKED: REMARK  Name = 
DOCKED: REMARK  9 active torsions:
DOCKED: REMARK  status: ('A' for Active; 'I' for Inactive)
DOCKED: REMARK    1  A    between atoms: C_2  and  C_3
DOCKED: REMARK    2  A    between atoms: C_4  and  C_5
DOCKED: REMARK    3  A    between atoms: C_8  and  C_9
DOCKED: REMARK    4  A    between atoms: C_9  and  N_10
DOCKED: REMARK    5  A    between atoms: N_10  and  C_11
DOCKED: REMARK    6  A    between atoms: C_11  and  C_12
DOCKED: REMARK    7  A    between atoms: C_12  and  C_13
DOCKED: REMARK    8  A    between atoms: C_14  and  C_22
DOCKED: REMARK    9  A    between atoms: N_25  and  O_26
DOCKED: REMARK                            x       y       z     vdW  Elec       q    Type
DOCKED: REMARK                         _______ _______ _______ _____ _____    ______ ____
DOCKED: USER                              x       y       z     vdW  Elec       q    Type
DOCKED: USER                           _______ _______ _______ _____ _____    ______ ____
DOCKED: ROOT
DOCKED: ATOM      1  N   UNL     1      28.586 -14.320   1.665 -0.23 -0.00    +0.000 N 
DOCKED: ATOM      2  H   UNL     1      29.447 -13.821   1.889 -0.23 -0.00    +0.000 HD
DOCKED: ATOM      3  H   UNL     1      28.324 -14.964   2.411 -1.20 -0.00    +0.000 HD
DOCKED: ENDROOT
DOCKED: BRANCH   1   4
DOCKED: ATOM      4  C   UNL     1      28.803 -15.111   0.447 -0.19 -0.00    +0.000 C 
DOCKED: BRANCH   4   8
DOCKED: ATOM      5  C   UNL     1      25.127 -17.006  -0.815 -0.56 -0.00    +0.000 A 
DOCKED: ATOM      6  C   UNL     1      26.113 -17.743  -0.129 -0.54 -0.00    +0.000 A 
DOCKED: ATOM      7  C   UNL     1      27.298 -17.126   0.283 -0.10 -0.00    +0.000 A 
DOCKED: ATOM      8  C   UNL     1      27.511 -15.762   0.037 -0.30 -0.00    +0.000 A 
DOCKED: ATOM      9  C   UNL     1      26.532 -15.026  -0.645 -0.31 -0.00    +0.000 A 
DOCKED: ATOM     10  C   UNL     1      25.346 -15.641  -1.057 -0.35 -0.00    +0.000 A 
DOCKED: BRANCH   5  12
DOCKED: ATOM     11  C   UNL     1      22.710 -17.538  -0.554 -0.77 -0.00    +0.000 C 
DOCKED: ATOM     12  C   UNL     1      23.847 -17.612  -1.259 -0.74 -0.00    +0.000 C 
DOCKED: BRANCH  11  14
DOCKED: ATOM     13  O   UNL     1      20.416 -17.436  -1.079 -2.01 -0.00    +0.000 OA
DOCKED: ATOM     14  C   UNL     1      21.444 -18.160  -0.992 -0.69 -0.00    +0.000 C 
DOCKED: ATOM     15  N   UNL     1      21.359 -19.545  -1.352 -0.70 -0.00    +0.000 N 
DOCKED: ATOM     16  H   UNL     1      22.175 -20.092  -1.393 -0.34 -0.00    +0.000 HD
DOCKED: BRANCH  15  17
DOCKED: ATOM     17  O   UNL     1      20.157 -20.103  -1.636 -1.69 -0.00    +0.000 OA
DOCKED: ATOM     18  H   UNL     1      19.469 -19.420  -1.608 -0.26 -0.00    +0.000 HD
DOCKED: ENDBRANCH  15  17
DOCKED: ENDBRANCH  11  14
DOCKED: ENDBRANCH   5  12
DOCKED: ENDBRANCH   4   8
DOCKED: ENDBRANCH   1   4
DOCKED: BRANCH   1  19
DOCKED: ATOM     19  C   UNL     1      27.498 -13.343   1.512 -0.29 -0.00    +0.000 C 
DOCKED: BRANCH  19  20
DOCKED: ATOM     20  C   UNL     1      26.729 -13.109   2.823 -0.22 -0.00    +0.000 C 
DOCKED: BRANCH  20  21
DOCKED: ATOM     21  C   UNL     1      27.676 -13.092   3.989 -0.37 -0.00    +0.000 A 
DOCKED: ATOM     22  C   UNL     1      28.107 -14.180   4.749 -0.52 -0.00    +0.000 A 
DOCKED: ATOM     23  N   UNL     1      28.905 -13.770   5.763 -0.43 -0.00    +0.000 N 
DOCKED: ATOM     24  C   UNL     1      28.966 -12.431   5.663 -0.31 -0.00    +0.000 A 
DOCKED: ATOM     25  C   UNL     1      28.225 -11.980   4.598 -0.30 +0.00    +0.000 A 
DOCKED: ATOM     26  C   UNL     1      28.115 -10.621   4.304 -0.26 +0.00    +0.000 A 
DOCKED: ATOM     27  C   UNL     1      28.799  -9.712   5.132 -0.21 +0.00    +0.000 A 
DOCKED: ATOM     28  C   UNL     1      29.565 -10.175   6.224 -0.18 +0.00    +0.000 A 
DOCKED: ATOM     29  C   UNL     1      29.653 -11.552   6.500 -0.21 -0.00    +0.000 A 
DOCKED: ATOM     30  C   UNL     1      27.757 -15.613   4.499 +0.02 -0.00    +0.000 C 
DOCKED: ATOM     31  H   UNL     1      29.348 -14.336   6.436 -0.28 -0.00    +0.000 HD
DOCKED: ENDBRANCH  20  21
DOCKED: ENDBRANCH  19  20
DOCKED: ENDBRANCH   1  19
DOCKED: TORSDOF 8
DOCKED: TER
DOCKED: ENDMDL
________________________________________________________________________________


	BEGINNING GENETIC ALGORITHM DOCKING 95 of 100
Run: 95 Seed: 760448345 1115302967 [ Run 95 of 100 GA/GALS ]
Beginning LAMARCKIAN GENETIC ALGORITHM (LGA), with a maximum of 2500000 energy evaluations.

Final-Value: -15.744


	FINAL GENETIC ALGORITHM DOCKED STATE
	_______________________________________________


Detailed state:  trans 27.434 -15.233 -0.138 quatxyzw 0.053298 -0.759175 -0.648044 0.029186 center 0.693 0.091 0.076 ntor 8 15.1576 95.9718 180.0000 172.7842 -144.1827 -170.3305 -158.5880 -37.7462
State:	 27.434 -15.233  -0.138   0.053 -0.759 -0.648 176.655     15.16   95.97  180.00  172.78 -144.18 -170.33 -158.59  -37.75

DOCKED: MODEL       95
DOCKED: USER    Run = 95
DOCKED: USER    DPF = ligand_dock.biased.dpf
DOCKED: USER  
DOCKED: USER    Estimated Free Energy of Binding    =  -11.62 kcal/mol  [=(1)+(2)+(3)-(4)]
DOCKED: USER    Estimated Inhibition Constant, Ki   =    3.01 nM (nanomolar)  [Temperature = 298.15 K]
DOCKED: USER    
DOCKED: USER    (1) Final Intermolecular Energy     =  -14.01 kcal/mol
DOCKED: USER        vdW + Hbond + desolv Energy     =  -14.01 kcal/mol
DOCKED: USER        Electrostatic Energy            =   +0.00 kcal/mol
DOCKED: USER    (2) Final Total Internal Energy     =   -1.73 kcal/mol
DOCKED: USER    (3) Torsional Free Energy           =   +2.39 kcal/mol
DOCKED: USER    (4) Unbound System's Energy  [=(2)] =   -1.73 kcal/mol
DOCKED: USER    
DOCKED: USER    
DOCKED: USER    NEWDPF move ligand.pdbqt
DOCKED: USER    NEWDPF about 0.693000 0.091000 0.076000
DOCKED: USER    NEWDPF tran0 27.433961 -15.232602 -0.138100
DOCKED: USER    NEWDPF quaternion0 0.053298 -0.759175 -0.648044 0.029186
DOCKED: USER    NEWDPF axisangle0 0.053321 -0.759499 -0.648320 176.655083
DOCKED: USER    NEWDPF quat0 0.053321 -0.759499 -0.648320 176.655083
DOCKED: USER    NEWDPF dihe0 15.16 95.97 180.00 172.78 -144.18 -170.33 -158.59 -37.75 
DOCKED: USER  keepresnum = 1 
DOCKED: USER  
DOCKED: REMARK  Name = 
DOCKED: REMARK  9 active torsions:
DOCKED: REMARK  status: ('A' for Active; 'I' for Inactive)
DOCKED: REMARK    1  A    between atoms: C_2  and  C_3
DOCKED: REMARK    2  A    between atoms: C_4  and  C_5
DOCKED: REMARK    3  A    between atoms: C_8  and  C_9
DOCKED: REMARK    4  A    between atoms: C_9  and  N_10
DOCKED: REMARK    5  A    between atoms: N_10  and  C_11
DOCKED: REMARK    6  A    between atoms: C_11  and  C_12
DOCKED: REMARK    7  A    between atoms: C_12  and  C_13
DOCKED: REMARK    8  A    between atoms: C_14  and  C_22
DOCKED: REMARK    9  A    between atoms: N_25  and  O_26
DOCKED: REMARK                            x       y       z     vdW  Elec       q    Type
DOCKED: REMARK                         _______ _______ _______ _____ _____    ______ ____
DOCKED: USER                              x       y       z     vdW  Elec       q    Type
DOCKED: USER                           _______ _______ _______ _____ _____    ______ ____
DOCKED: ROOT
DOCKED: ATOM      1  N   UNL     1      28.348 -15.193   0.661 -0.23 -0.00    +0.000 N 
DOCKED: ATOM      2  H   UNL     1      28.169 -16.007   1.250 -0.68 -0.00    +0.000 HD
DOCKED: ATOM      3  H   UNL     1      27.793 -14.390   0.955 -0.06 -0.00    +0.000 HD
DOCKED: ENDROOT
DOCKED: BRANCH   1   4
DOCKED: ATOM      4  C   UNL     1      27.968 -15.518  -0.720 -0.28 -0.00    +0.000 C 
DOCKED: BRANCH   4   8
DOCKED: ATOM      5  C   UNL     1      24.523 -18.131  -0.774 -0.68 -0.00    +0.000 A 
DOCKED: ATOM      6  C   UNL     1      25.776 -18.606  -0.336 -0.54 -0.00    +0.000 A 
DOCKED: ATOM      7  C   UNL     1      26.886 -17.758  -0.314 -0.48 -0.00    +0.000 A 
DOCKED: ATOM      8  C   UNL     1      26.763 -16.417  -0.708 -0.41 -0.00    +0.000 A 
DOCKED: ATOM      9  C   UNL     1      25.519 -15.940  -1.144 -0.45 -0.00    +0.000 A 
DOCKED: ATOM     10  C   UNL     1      24.407 -16.787  -1.165 -0.57 -0.00    +0.000 A 
DOCKED: BRANCH   5  12
DOCKED: ATOM     11  C   UNL     1      22.063 -18.505  -0.753 -0.85 -0.00    +0.000 C 
DOCKED: ATOM     12  C   UNL     1      23.312 -18.988  -0.801 -0.81 -0.00    +0.000 C 
DOCKED: BRANCH  11  14
DOCKED: ATOM     13  O   UNL     1      20.208 -19.476  -1.833 -1.71 -0.00    +0.000 OA
DOCKED: ATOM     14  C   UNL     1      20.862 -19.364  -0.761 -0.89 -0.00    +0.000 C 
DOCKED: ATOM     15  N   UNL     1      20.441 -20.098   0.396 -0.69 -0.00    +0.000 N 
DOCKED: ATOM     16  H   UNL     1      21.002 -20.106   1.203 -0.53 -0.00    +0.000 HD
DOCKED: BRANCH  15  17
DOCKED: ATOM     17  O   UNL     1      19.271 -20.782   0.382 -0.78 -0.00    +0.000 OA
DOCKED: ATOM     18  H   UNL     1      18.962 -20.875  -0.533 -0.40 -0.00    +0.000 HD
DOCKED: ENDBRANCH  15  17
DOCKED: ENDBRANCH  11  14
DOCKED: ENDBRANCH   5  12
DOCKED: ENDBRANCH   4   8
DOCKED: ENDBRANCH   1   4
DOCKED: BRANCH   1  19
DOCKED: ATOM     19  C   UNL     1      29.768 -14.826   0.779 -0.15 -0.00    +0.000 C 
DOCKED: BRANCH  19  20
DOCKED: ATOM     20  C   UNL     1      29.963 -13.376   1.253 -0.09 -0.00    +0.000 C 
DOCKED: BRANCH  20  21
DOCKED: ATOM     21  C   UNL     1      28.965 -13.037   2.323 -0.15 -0.00    +0.000 A 
DOCKED: ATOM     22  C   UNL     1      27.728 -12.410   2.163 -0.22 -0.00    +0.000 A 
DOCKED: ATOM     23  N   UNL     1      27.135 -12.207   3.364 -0.27 +0.00    +0.000 N 
DOCKED: ATOM     24  C   UNL     1      27.994 -12.682   4.282 -0.34 -0.00    +0.000 A 
DOCKED: ATOM     25  C   UNL     1      29.123 -13.190   3.687 -0.22 -0.00    +0.000 A 
DOCKED: ATOM     26  C   UNL     1      30.174 -13.719   4.437 -0.25 -0.00    +0.000 A 
DOCKED: ATOM     27  C   UNL     1      30.040 -13.727   5.838 -0.29 -0.00    +0.000 A 
DOCKED: ATOM     28  C   UNL     1      28.877 -13.210   6.450 -0.38 -0.00    +0.000 A 
DOCKED: ATOM     29  C   UNL     1      27.837 -12.677   5.667 -0.40 +0.00    +0.000 A 
DOCKED: ATOM     30  C   UNL     1      27.113 -12.011   0.859 -0.25 -0.00    +0.000 C 
DOCKED: ATOM     31  H   UNL     1      26.257 -11.796   3.529 +0.05 +0.00    +0.000 HD
DOCKED: ENDBRANCH  20  21
DOCKED: ENDBRANCH  19  20
DOCKED: ENDBRANCH   1  19
DOCKED: TORSDOF 8
DOCKED: TER
DOCKED: ENDMDL
________________________________________________________________________________


	BEGINNING GENETIC ALGORITHM DOCKING 96 of 100
Run: 96 Seed: 791893850 350894051 [ Run 96 of 100 GA/GALS ]
Beginning LAMARCKIAN GENETIC ALGORITHM (LGA), with a maximum of 2500000 energy evaluations.

Final-Value: -15.286


	FINAL GENETIC ALGORITHM DOCKED STATE
	_______________________________________________


Detailed state:  trans 29.202 -17.354 -0.611 quatxyzw -0.608811 0.007160 -0.720548 -0.331826 center 0.693 0.091 0.076 ntor 8 1.4162 -177.2221 -159.3147 -19.7146 -68.7695 -140.2155 -163.3810 -94.1586
State:	 29.202 -17.354  -0.611  -0.645  0.008 -0.764 -141.241      1.42 -177.22 -159.31  -19.71  -68.77 -140.22 -163.38  -94.16

DOCKED: MODEL       96
DOCKED: USER    Run = 96
DOCKED: USER    DPF = ligand_dock.biased.dpf
DOCKED: USER  
DOCKED: USER    Estimated Free Energy of Binding    =  -11.31 kcal/mol  [=(1)+(2)+(3)-(4)]
DOCKED: USER    Estimated Inhibition Constant, Ki   =    5.08 nM (nanomolar)  [Temperature = 298.15 K]
DOCKED: USER    
DOCKED: USER    (1) Final Intermolecular Energy     =  -13.70 kcal/mol
DOCKED: USER        vdW + Hbond + desolv Energy     =  -13.70 kcal/mol
DOCKED: USER        Electrostatic Energy            =   +0.00 kcal/mol
DOCKED: USER    (2) Final Total Internal Energy     =   -1.59 kcal/mol
DOCKED: USER    (3) Torsional Free Energy           =   +2.39 kcal/mol
DOCKED: USER    (4) Unbound System's Energy  [=(2)] =   -1.59 kcal/mol
DOCKED: USER    
DOCKED: USER    
DOCKED: USER    NEWDPF move ligand.pdbqt
DOCKED: USER    NEWDPF about 0.693000 0.091000 0.076000
DOCKED: USER    NEWDPF tran0 29.201622 -17.354134 -0.610710
DOCKED: USER    NEWDPF quaternion0 -0.608811 0.007160 -0.720548 -0.331826
DOCKED: USER    NEWDPF axisangle0 -0.645377 0.007590 -0.763826 -141.240729
DOCKED: USER    NEWDPF quat0 -0.645377 0.007590 -0.763826 -141.240729
DOCKED: USER    NEWDPF dihe0 1.42 -177.22 -159.31 -19.71 -68.77 -140.22 -163.38 -94.16 
DOCKED: USER  keepresnum = 1 
DOCKED: USER  
DOCKED: REMARK  Name = 
DOCKED: REMARK  9 active torsions:
DOCKED: REMARK  status: ('A' for Active; 'I' for Inactive)
DOCKED: REMARK    1  A    between atoms: C_2  and  C_3
DOCKED: REMARK    2  A    between atoms: C_4  and  C_5
DOCKED: REMARK    3  A    between atoms: C_8  and  C_9
DOCKED: REMARK    4  A    between atoms: C_9  and  N_10
DOCKED: REMARK    5  A    between atoms: N_10  and  C_11
DOCKED: REMARK    6  A    between atoms: C_11  and  C_12
DOCKED: REMARK    7  A    between atoms: C_12  and  C_13
DOCKED: REMARK    8  A    between atoms: C_14  and  C_22
DOCKED: REMARK    9  A    between atoms: N_25  and  O_26
DOCKED: REMARK                            x       y       z     vdW  Elec       q    Type
DOCKED: REMARK                         _______ _______ _______ _____ _____    ______ ____
DOCKED: USER                              x       y       z     vdW  Elec       q    Type
DOCKED: USER                           _______ _______ _______ _____ _____    ______ ____
DOCKED: ROOT
DOCKED: ATOM      1  N   UNL     1      29.463 -17.441  -1.794 -0.25 -0.00    +0.000 N 
DOCKED: ATOM      2  H   UNL     1      28.893 -18.233  -2.094 +0.04 -0.00    +0.000 HD
DOCKED: ATOM      3  H   UNL     1      30.339 -17.751  -1.374 -0.02 -0.00    +0.000 HD
DOCKED: ENDROOT
DOCKED: BRANCH   1   4
DOCKED: ATOM      4  C   UNL     1      28.722 -16.685  -0.777 -0.30 -0.00    +0.000 C 
DOCKED: BRANCH   4   8
DOCKED: ATOM      5  C   UNL     1      24.483 -17.494  -1.064 -0.65 -0.00    +0.000 A 
DOCKED: ATOM      6  C   UNL     1      25.118 -16.656  -2.003 -0.54 -0.00    +0.000 A 
DOCKED: ATOM      7  C   UNL     1      26.489 -16.401  -1.911 -0.41 -0.00    +0.000 A 
DOCKED: ATOM      8  C   UNL     1      27.255 -16.992  -0.895 -0.42 -0.00    +0.000 A 
DOCKED: ATOM      9  C   UNL     1      26.627 -17.826   0.040 -0.51 -0.00    +0.000 A 
DOCKED: ATOM     10  C   UNL     1      25.256 -18.084  -0.051 -0.58 -0.00    +0.000 A 
DOCKED: BRANCH   5  12
DOCKED: ATOM     11  C   UNL     1      22.422 -18.650  -0.287 -0.82 -0.00    +0.000 C 
DOCKED: ATOM     12  C   UNL     1      23.034 -17.806  -1.129 -0.74 -0.00    +0.000 C 
DOCKED: BRANCH  11  14
DOCKED: ATOM     13  O   UNL     1      20.236 -18.224  -1.055 -2.08 -0.00    +0.000 OA
DOCKED: ATOM     14  C   UNL     1      20.983 -18.972  -0.368 -0.85 -0.00    +0.000 C 
DOCKED: ATOM     15  N   UNL     1      20.420 -20.121   0.279 -0.70 -0.00    +0.000 N 
DOCKED: ATOM     16  H   UNL     1      21.009 -20.770   0.725 -0.57 -0.00    +0.000 HD
DOCKED: BRANCH  15  17
DOCKED: ATOM     17  O   UNL     1      19.079 -20.316   0.277 -0.81 -0.00    +0.000 OA
DOCKED: ATOM     18  H   UNL     1      18.649 -19.603  -0.220 -0.13 -0.00    +0.000 HD
DOCKED: ENDBRANCH  15  17
DOCKED: ENDBRANCH  11  14
DOCKED: ENDBRANCH   5  12
DOCKED: ENDBRANCH   4   8
DOCKED: ENDBRANCH   1   4
DOCKED: BRANCH   1  19
DOCKED: ATOM     19  C   UNL     1      29.792 -16.623  -2.971 -0.22 -0.00    +0.000 C 
DOCKED: BRANCH  19  20
DOCKED: ATOM     20  C   UNL     1      31.132 -17.024  -3.610 -0.14 -0.00    +0.000 C 
DOCKED: BRANCH  20  21
DOCKED: ATOM     21  C   UNL     1      30.912 -17.557  -4.997 -0.22 -0.00    +0.000 A 
DOCKED: ATOM     22  C   UNL     1      30.565 -16.834  -6.139 -0.28 -0.00    +0.000 A 
DOCKED: ATOM     23  N   UNL     1      30.384 -17.664  -7.194 -0.35 -0.00    +0.000 N 
DOCKED: ATOM     24  C   UNL     1      30.593 -18.905  -6.724 -0.36 -0.00    +0.000 A 
DOCKED: ATOM     25  C   UNL     1      30.910 -18.882  -5.388 -0.28 -0.00    +0.000 A 
DOCKED: ATOM     26  C   UNL     1      31.147 -20.054  -4.669 -0.23 -0.00    +0.000 A 
DOCKED: ATOM     27  C   UNL     1      31.061 -21.276  -5.360 -0.29 -0.00    +0.000 A 
DOCKED: ATOM     28  C   UNL     1      30.739 -21.301  -6.735 -0.29 -0.00    +0.000 A 
DOCKED: ATOM     29  C   UNL     1      30.499 -20.103  -7.432 -0.40 -0.00    +0.000 A 
DOCKED: ATOM     30  C   UNL     1      30.415 -15.348  -6.220 -0.26 -0.00    +0.000 C 
DOCKED: ATOM     31  H   UNL     1      30.147 -17.409  -8.115 -0.03 -0.00    +0.000 HD
DOCKED: ENDBRANCH  20  21
DOCKED: ENDBRANCH  19  20
DOCKED: ENDBRANCH   1  19
DOCKED: TORSDOF 8
DOCKED: TER
DOCKED: ENDMDL
________________________________________________________________________________


	BEGINNING GENETIC ALGORITHM DOCKING 97 of 100
Run: 97 Seed: 342541043 1095079797 [ Run 97 of 100 GA/GALS ]
Beginning LAMARCKIAN GENETIC ALGORITHM (LGA), with a maximum of 2500000 energy evaluations.

Final-Value: -16.310


	FINAL GENETIC ALGORITHM DOCKED STATE
	_______________________________________________


Detailed state:  trans 29.351 -15.819 0.236 quatxyzw 0.320604 0.085364 -0.183260 -0.925387 center 0.693 0.091 0.076 ntor 8 6.6709 152.9935 64.9842 66.9579 77.7866 -39.9407 168.4262 174.5365
State:	 29.351 -15.819   0.236   0.846  0.225 -0.484 -44.546      6.67  152.99   64.98   66.96   77.79  -39.94  168.43  174.54

DOCKED: MODEL       97
DOCKED: USER    Run = 97
DOCKED: USER    DPF = ligand_dock.biased.dpf
DOCKED: USER  
DOCKED: USER    Estimated Free Energy of Binding    =  -12.59 kcal/mol  [=(1)+(2)+(3)-(4)]
DOCKED: USER    Estimated Inhibition Constant, Ki   =  587.29 pM (picomolar)  [Temperature = 298.15 K]
DOCKED: USER    
DOCKED: USER    (1) Final Intermolecular Energy     =  -14.98 kcal/mol
DOCKED: USER        vdW + Hbond + desolv Energy     =  -14.98 kcal/mol
DOCKED: USER        Electrostatic Energy            =   +0.00 kcal/mol
DOCKED: USER    (2) Final Total Internal Energy     =   -1.33 kcal/mol
DOCKED: USER    (3) Torsional Free Energy           =   +2.39 kcal/mol
DOCKED: USER    (4) Unbound System's Energy  [=(2)] =   -1.33 kcal/mol
DOCKED: USER    
DOCKED: USER    
DOCKED: USER    NEWDPF move ligand.pdbqt
DOCKED: USER    NEWDPF about 0.693000 0.091000 0.076000
DOCKED: USER    NEWDPF tran0 29.350880 -15.818806 0.235952
DOCKED: USER    NEWDPF quaternion0 0.320604 0.085364 -0.183260 -0.925387
DOCKED: USER    NEWDPF axisangle0 0.845870 0.225221 -0.483508 -44.546315
DOCKED: USER    NEWDPF quat0 0.845870 0.225221 -0.483508 -44.546315
DOCKED: USER    NEWDPF dihe0 6.67 152.99 64.98 66.96 77.79 -39.94 168.43 174.54 
DOCKED: USER  keepresnum = 1 
DOCKED: USER  
DOCKED: REMARK  Name = 
DOCKED: REMARK  9 active torsions:
DOCKED: REMARK  status: ('A' for Active; 'I' for Inactive)
DOCKED: REMARK    1  A    between atoms: C_2  and  C_3
DOCKED: REMARK    2  A    between atoms: C_4  and  C_5
DOCKED: REMARK    3  A    between atoms: C_8  and  C_9
DOCKED: REMARK    4  A    between atoms: C_9  and  N_10
DOCKED: REMARK    5  A    between atoms: N_10  and  C_11
DOCKED: REMARK    6  A    between atoms: C_11  and  C_12
DOCKED: REMARK    7  A    between atoms: C_12  and  C_13
DOCKED: REMARK    8  A    between atoms: C_14  and  C_22
DOCKED: REMARK    9  A    between atoms: N_25  and  O_26
DOCKED: REMARK                            x       y       z     vdW  Elec       q    Type
DOCKED: REMARK                         _______ _______ _______ _____ _____    ______ ____
DOCKED: USER                              x       y       z     vdW  Elec       q    Type
DOCKED: USER                           _______ _______ _______ _____ _____    ______ ____
DOCKED: ROOT
DOCKED: ATOM      1  N   UNL     1      28.696 -14.970   0.808 -0.21 -0.00    +0.000 N 
DOCKED: ATOM      2  H   UNL     1      28.981 -14.110   0.339 -0.02 -0.00    +0.000 HD
DOCKED: ATOM      3  H   UNL     1      29.359 -15.234   1.537 -1.16 -0.00    +0.000 HD
DOCKED: ENDROOT
DOCKED: BRANCH   1   4
DOCKED: ATOM      4  C   UNL     1      28.661 -16.057  -0.179 -0.23 -0.00    +0.000 C 
DOCKED: BRANCH   4   8
DOCKED: ATOM      5  C   UNL     1      24.596 -17.370  -0.853 -0.63 -0.00    +0.000 A 
DOCKED: ATOM      6  C   UNL     1      25.476 -18.139  -0.066 -0.59 -0.00    +0.000 A 
DOCKED: ATOM      7  C   UNL     1      26.788 -17.710   0.155 -0.37 -0.00    +0.000 A 
DOCKED: ATOM      8  C   UNL     1      27.238 -16.497  -0.387 -0.38 -0.00    +0.000 A 
DOCKED: ATOM      9  C   UNL     1      26.366 -15.728  -1.170 -0.38 -0.00    +0.000 A 
DOCKED: ATOM     10  C   UNL     1      25.053 -16.156  -1.391 -0.47 -0.00    +0.000 A 
DOCKED: BRANCH   5  12
DOCKED: ATOM     11  C   UNL     1      22.396 -18.305  -0.164 -0.82 -0.00    +0.000 C 
DOCKED: ATOM     12  C   UNL     1      23.191 -17.776  -1.104 -0.76 -0.00    +0.000 C 
DOCKED: BRANCH  11  14
DOCKED: ATOM     13  O   UNL     1      20.254 -17.953  -1.081 -2.15 -0.00    +0.000 OA
DOCKED: ATOM     14  C   UNL     1      21.004 -18.725  -0.425 -0.78 -0.00    +0.000 C 
DOCKED: ATOM     15  N   UNL     1      20.495 -19.992   0.013 -0.73 -0.00    +0.000 N 
DOCKED: ATOM     16  H   UNL     1      21.100 -20.646   0.428 -0.48 -0.00    +0.000 HD
DOCKED: BRANCH  15  17
DOCKED: ATOM     17  O   UNL     1      19.182 -20.290  -0.144 -0.85 -0.00    +0.000 OA
DOCKED: ATOM     18  H   UNL     1      18.751 -19.591  -0.659 -0.27 -0.00    +0.000 HD
DOCKED: ENDBRANCH  15  17
DOCKED: ENDBRANCH  11  14
DOCKED: ENDBRANCH   5  12
DOCKED: ENDBRANCH   4   8
DOCKED: ENDBRANCH   1   4
DOCKED: BRANCH   1  19
DOCKED: ATOM     19  C   UNL     1      27.390 -14.751   1.447 -0.10 -0.00    +0.000 C 
DOCKED: BRANCH  19  20
DOCKED: ATOM     20  C   UNL     1      26.770 -13.395   1.067 -0.32 -0.00    +0.000 C 
DOCKED: BRANCH  20  21
DOCKED: ATOM     21  C   UNL     1      27.042 -12.378   2.138 -0.28 -0.00    +0.000 A 
DOCKED: ATOM     22  C   UNL     1      27.015 -10.987   2.016 -0.26 +0.00    +0.000 A 
DOCKED: ATOM     23  N   UNL     1      27.383 -10.398   3.178 -0.26 +0.00    +0.000 N 
DOCKED: ATOM     24  C   UNL     1      27.661 -11.402   4.027 -0.27 +0.00    +0.000 A 
DOCKED: ATOM     25  C   UNL     1      27.473 -12.623   3.428 -0.29 -0.00    +0.000 A 
DOCKED: ATOM     26  C   UNL     1      27.722 -13.818   4.103 -0.48 -0.00    +0.000 A 
DOCKED: ATOM     27  C   UNL     1      28.169 -13.738   5.435 -0.43 -0.00    +0.000 A 
DOCKED: ATOM     28  C   UNL     1      28.359 -12.483   6.053 -0.38 -0.00    +0.000 A 
DOCKED: ATOM     29  C   UNL     1      28.106 -11.294   5.345 -0.35 +0.00    +0.000 A 
DOCKED: ATOM     30  C   UNL     1      26.630 -10.227   0.787 -0.28 +0.00    +0.000 C 
DOCKED: ATOM     31  H   UNL     1      27.436  -9.432   3.363 -0.02 +0.00    +0.000 HD
DOCKED: ENDBRANCH  20  21
DOCKED: ENDBRANCH  19  20
DOCKED: ENDBRANCH   1  19
DOCKED: TORSDOF 8
DOCKED: TER
DOCKED: ENDMDL
________________________________________________________________________________


	BEGINNING GENETIC ALGORITHM DOCKING 98 of 100
Run: 98 Seed: 1779105439 394148075 [ Run 98 of 100 GA/GALS ]
Beginning LAMARCKIAN GENETIC ALGORITHM (LGA), with a maximum of 2500000 energy evaluations.

Final-Value: -15.592


	FINAL GENETIC ALGORITHM DOCKED STATE
	_______________________________________________


Detailed state:  trans 29.423 -15.625 0.690 quatxyzw -0.305601 0.553975 0.742752 0.219179 center 0.693 0.091 0.076 ntor 8 14.8655 -3.9313 24.8312 5.1452 135.2514 -158.7465 179.8402 28.0404
State:	 29.423 -15.625   0.690  -0.313  0.568  0.761 154.678     14.87   -3.93   24.83    5.15  135.25 -158.75  179.84   28.04

DOCKED: MODEL       98
DOCKED: USER    Run = 98
DOCKED: USER    DPF = ligand_dock.biased.dpf
DOCKED: USER  
DOCKED: USER    Estimated Free Energy of Binding    =  -10.48 kcal/mol  [=(1)+(2)+(3)-(4)]
DOCKED: USER    Estimated Inhibition Constant, Ki   =   20.68 nM (nanomolar)  [Temperature = 298.15 K]
DOCKED: USER    
DOCKED: USER    (1) Final Intermolecular Energy     =  -12.87 kcal/mol
DOCKED: USER        vdW + Hbond + desolv Energy     =  -12.87 kcal/mol
DOCKED: USER        Electrostatic Energy            =   +0.00 kcal/mol
DOCKED: USER    (2) Final Total Internal Energy     =   -2.72 kcal/mol
DOCKED: USER    (3) Torsional Free Energy           =   +2.39 kcal/mol
DOCKED: USER    (4) Unbound System's Energy  [=(2)] =   -2.72 kcal/mol
DOCKED: USER    
DOCKED: USER    
DOCKED: USER    NEWDPF move ligand.pdbqt
DOCKED: USER    NEWDPF about 0.693000 0.091000 0.076000
DOCKED: USER    NEWDPF tran0 29.423039 -15.624982 0.690160
DOCKED: USER    NEWDPF quaternion0 -0.305601 0.553975 0.742752 0.219179
DOCKED: USER    NEWDPF axisangle0 -0.313217 0.567781 0.761262 154.678352
DOCKED: USER    NEWDPF quat0 -0.313217 0.567781 0.761262 154.678352
DOCKED: USER    NEWDPF dihe0 14.87 -3.93 24.83 5.15 135.25 -158.75 179.84 28.04 
DOCKED: USER  keepresnum = 1 
DOCKED: USER  
DOCKED: REMARK  Name = 
DOCKED: REMARK  9 active torsions:
DOCKED: REMARK  status: ('A' for Active; 'I' for Inactive)
DOCKED: REMARK    1  A    between atoms: C_2  and  C_3
DOCKED: REMARK    2  A    between atoms: C_4  and  C_5
DOCKED: REMARK    3  A    between atoms: C_8  and  C_9
DOCKED: REMARK    4  A    between atoms: C_9  and  N_10
DOCKED: REMARK    5  A    between atoms: N_10  and  C_11
DOCKED: REMARK    6  A    between atoms: C_11  and  C_12
DOCKED: REMARK    7  A    between atoms: C_12  and  C_13
DOCKED: REMARK    8  A    between atoms: C_14  and  C_22
DOCKED: REMARK    9  A    between atoms: N_25  and  O_26
DOCKED: REMARK                            x       y       z     vdW  Elec       q    Type
DOCKED: REMARK                         _______ _______ _______ _____ _____    ______ ____
DOCKED: USER                              x       y       z     vdW  Elec       q    Type
DOCKED: USER                           _______ _______ _______ _____ _____    ______ ____
DOCKED: ROOT
DOCKED: ATOM      1  N   UNL     1      30.208 -15.234   1.531 -0.04 -0.00    +0.000 N 
DOCKED: ATOM      2  H   UNL     1      30.719 -16.083   1.776 -0.48 -0.00    +0.000 HD
DOCKED: ATOM      3  H   UNL     1      29.326 -15.170   2.039 -1.64 -0.00    +0.000 HD
DOCKED: ENDROOT
DOCKED: BRANCH   1   4
DOCKED: ATOM      4  C   UNL     1      29.897 -15.268   0.096 -0.15 -0.00    +0.000 C 
DOCKED: BRANCH   4   8
DOCKED: ATOM      5  C   UNL     1      25.787 -16.446  -0.549 -0.38 -0.00    +0.000 A 
DOCKED: ATOM      6  C   UNL     1      26.815 -17.410  -0.536 -0.49 -0.00    +0.000 A 
DOCKED: ATOM      7  C   UNL     1      28.142 -17.027  -0.322 -0.25 -0.00    +0.000 A 
DOCKED: ATOM      8  C   UNL     1      28.465 -15.681  -0.096 -0.22 -0.00    +0.000 A 
DOCKED: ATOM      9  C   UNL     1      27.445 -14.719  -0.107 -0.25 -0.00    +0.000 A 
DOCKED: ATOM     10  C   UNL     1      26.117 -15.100  -0.320 -0.24 -0.00    +0.000 A 
DOCKED: BRANCH   5  12
DOCKED: ATOM     11  C   UNL     1      23.935 -18.062  -0.934 -0.79 -0.00    +0.000 C 
DOCKED: ATOM     12  C   UNL     1      24.362 -16.805  -0.757 -0.60 -0.00    +0.000 C 
DOCKED: BRANCH  11  14
DOCKED: ATOM     13  O   UNL     1      22.250 -19.504  -1.727 -0.69 -0.00    +0.000 OA
DOCKED: ATOM     14  C   UNL     1      22.518 -18.411  -1.160 -0.77 -0.00    +0.000 C 
DOCKED: ATOM     15  N   UNL     1      21.445 -17.565  -0.726 -0.71 -0.00    +0.000 N 
DOCKED: ATOM     16  H   UNL     1      21.639 -16.766  -0.187 -0.05 -0.00    +0.000 HD
DOCKED: BRANCH  15  17
DOCKED: ATOM     17  O   UNL     1      20.165 -17.864  -1.055 -2.08 -0.00    +0.000 OA
DOCKED: ATOM     18  H   UNL     1      20.118 -18.779  -1.373 -0.08 -0.00    +0.000 HD
DOCKED: ENDBRANCH  15  17
DOCKED: ENDBRANCH  11  14
DOCKED: ENDBRANCH   5  12
DOCKED: ENDBRANCH   4   8
DOCKED: ENDBRANCH   1   4
DOCKED: BRANCH   1  19
DOCKED: ATOM     19  C   UNL     1      31.025 -14.068   1.900 -0.11 -0.00    +0.000 C 
DOCKED: BRANCH  19  20
DOCKED: ATOM     20  C   UNL     1      30.425 -13.279   3.076 -0.14 -0.00    +0.000 C 
DOCKED: BRANCH  20  21
DOCKED: ATOM     21  C   UNL     1      28.932 -13.190   2.939 -0.19 -0.00    +0.000 A 
DOCKED: ATOM     22  C   UNL     1      27.973 -13.997   3.554 -0.41 -0.00    +0.000 A 
DOCKED: ATOM     23  N   UNL     1      26.729 -13.663   3.136 -0.35 -0.00    +0.000 N 
DOCKED: ATOM     24  C   UNL     1      26.894 -12.667   2.249 -0.30 -0.00    +0.000 A 
DOCKED: ATOM     25  C   UNL     1      28.222 -12.355   2.097 -0.17 -0.00    +0.000 A 
DOCKED: ATOM     26  C   UNL     1      28.648 -11.367   1.210 -0.08 -0.00    +0.000 A 
DOCKED: ATOM     27  C   UNL     1      27.665 -10.682   0.470 -0.12 +0.00    +0.000 A 
DOCKED: ATOM     28  C   UNL     1      26.298 -10.999   0.630 -0.26 +0.00    +0.000 A 
DOCKED: ATOM     29  C   UNL     1      25.900 -12.006   1.528 -0.31 +0.00    +0.000 A 
DOCKED: ATOM     30  C   UNL     1      28.250 -15.082   4.544 -0.50 -0.00    +0.000 C 
DOCKED: ATOM     31  H   UNL     1      25.878 -14.068   3.423 -0.02 -0.00    +0.000 HD
DOCKED: ENDBRANCH  20  21
DOCKED: ENDBRANCH  19  20
DOCKED: ENDBRANCH   1  19
DOCKED: TORSDOF 8
DOCKED: TER
DOCKED: ENDMDL
________________________________________________________________________________


	BEGINNING GENETIC ALGORITHM DOCKING 99 of 100
Run: 99 Seed: 851022230 2113075119 [ Run 99 of 100 GA/GALS ]
Beginning LAMARCKIAN GENETIC ALGORITHM (LGA), with a maximum of 2500000 energy evaluations.

Final-Value: -14.778


	FINAL GENETIC ALGORITHM DOCKED STATE
	_______________________________________________


Detailed state:  trans 28.446 -16.051 -0.476 quatxyzw 0.314612 -0.230528 -0.295232 -0.872189 center 0.693 0.091 0.076 ntor 8 14.0808 33.7569 -146.2810 158.7930 -155.4364 -28.0297 -173.6763 115.7730
State:	 28.446 -16.051  -0.476   0.643 -0.471 -0.604 -58.572     14.08   33.76 -146.28  158.79 -155.44  -28.03 -173.68  115.77

DOCKED: MODEL       99
DOCKED: USER    Run = 99
DOCKED: USER    DPF = ligand_dock.biased.dpf
DOCKED: USER  
DOCKED: USER    Estimated Free Energy of Binding    =  -10.26 kcal/mol  [=(1)+(2)+(3)-(4)]
DOCKED: USER    Estimated Inhibition Constant, Ki   =   30.33 nM (nanomolar)  [Temperature = 298.15 K]
DOCKED: USER    
DOCKED: USER    (1) Final Intermolecular Energy     =  -12.64 kcal/mol
DOCKED: USER        vdW + Hbond + desolv Energy     =  -12.64 kcal/mol
DOCKED: USER        Electrostatic Energy            =   +0.00 kcal/mol
DOCKED: USER    (2) Final Total Internal Energy     =   -2.14 kcal/mol
DOCKED: USER    (3) Torsional Free Energy           =   +2.39 kcal/mol
DOCKED: USER    (4) Unbound System's Energy  [=(2)] =   -2.14 kcal/mol
DOCKED: USER    
DOCKED: USER    
DOCKED: USER    NEWDPF move ligand.pdbqt
DOCKED: USER    NEWDPF about 0.693000 0.091000 0.076000
DOCKED: USER    NEWDPF tran0 28.445928 -16.051184 -0.475780
DOCKED: USER    NEWDPF quaternion0 0.314612 -0.230528 -0.295232 -0.872189
DOCKED: USER    NEWDPF axisangle0 0.643157 -0.471264 -0.603539 -58.571892
DOCKED: USER    NEWDPF quat0 0.643157 -0.471264 -0.603539 -58.571892
DOCKED: USER    NEWDPF dihe0 14.08 33.76 -146.28 158.79 -155.44 -28.03 -173.68 115.77 
DOCKED: USER  keepresnum = 1 
DOCKED: USER  
DOCKED: REMARK  Name = 
DOCKED: REMARK  9 active torsions:
DOCKED: REMARK  status: ('A' for Active; 'I' for Inactive)
DOCKED: REMARK    1  A    between atoms: C_2  and  C_3
DOCKED: REMARK    2  A    between atoms: C_4  and  C_5
DOCKED: REMARK    3  A    between atoms: C_8  and  C_9
DOCKED: REMARK    4  A    between atoms: C_9  and  N_10
DOCKED: REMARK    5  A    between atoms: N_10  and  C_11
DOCKED: REMARK    6  A    between atoms: C_11  and  C_12
DOCKED: REMARK    7  A    between atoms: C_12  and  C_13
DOCKED: REMARK    8  A    between atoms: C_14  and  C_22
DOCKED: REMARK    9  A    between atoms: N_25  and  O_26
DOCKED: REMARK                            x       y       z     vdW  Elec       q    Type
DOCKED: REMARK                         _______ _______ _______ _____ _____    ______ ____
DOCKED: USER                              x       y       z     vdW  Elec       q    Type
DOCKED: USER                           _______ _______ _______ _____ _____    ______ ____
DOCKED: ROOT
DOCKED: ATOM      1  N   UNL     1      28.043 -14.918  -0.302 -0.21 -0.00    +0.000 N 
DOCKED: ATOM      2  H   UNL     1      28.848 -14.349  -0.567 +0.00 -0.00    +0.000 HD
DOCKED: ATOM      3  H   UNL     1      28.121 -15.250   0.659 -0.14 -0.00    +0.000 HD
DOCKED: ENDROOT
DOCKED: BRANCH   1   4
DOCKED: ATOM      4  C   UNL     1      27.989 -16.095  -1.179 -0.32 -0.00    +0.000 C 
DOCKED: BRANCH   4   8
DOCKED: ATOM      5  C   UNL     1      24.303 -18.275  -0.584 -0.69 -0.00    +0.000 A 
DOCKED: ATOM      6  C   UNL     1      25.420 -18.519   0.240 -0.31 -0.00    +0.000 A 
DOCKED: ATOM      7  C   UNL     1      26.609 -17.809   0.048 -0.50 -0.00    +0.000 A 
DOCKED: ATOM      8  C   UNL     1      26.698 -16.830  -0.952 -0.45 -0.00    +0.000 A 
DOCKED: ATOM      9  C   UNL     1      25.588 -16.583  -1.773 -0.51 -0.00    +0.000 A 
DOCKED: ATOM     10  C   UNL     1      24.398 -17.292  -1.582 -0.60 -0.00    +0.000 A 
DOCKED: BRANCH   5  12
DOCKED: ATOM     11  C   UNL     1      22.005 -18.918  -1.288 -0.74 -0.00    +0.000 C 
DOCKED: ATOM     12  C   UNL     1      23.015 -18.992  -0.411 -0.76 -0.00    +0.000 C 
DOCKED: BRANCH  11  14
DOCKED: ATOM     13  O   UNL     1      19.946 -19.736  -2.089 -1.89 -0.00    +0.000 OA
DOCKED: ATOM     14  C   UNL     1      20.718 -19.620  -1.101 -0.84 -0.00    +0.000 C 
DOCKED: ATOM     15  N   UNL     1      20.341 -20.199   0.155 -0.71 -0.00    +0.000 N 
DOCKED: ATOM     16  H   UNL     1      20.980 -20.210   0.902 -0.53 -0.00    +0.000 HD
DOCKED: BRANCH  15  17
DOCKED: ATOM     17  O   UNL     1      19.105 -20.730   0.317 -0.78 -0.00    +0.000 OA
DOCKED: ATOM     18  H   UNL     1      18.685 -20.843  -0.550 -0.36 -0.00    +0.000 HD
DOCKED: ENDBRANCH  15  17
DOCKED: ENDBRANCH  11  14
DOCKED: ENDBRANCH   5  12
DOCKED: ENDBRANCH   4   8
DOCKED: ENDBRANCH   1   4
DOCKED: BRANCH   1  19
DOCKED: ATOM     19  C   UNL     1      26.829 -14.094  -0.396 -0.30 -0.00    +0.000 C 
DOCKED: BRANCH  19  20
DOCKED: ATOM     20  C   UNL     1      27.028 -12.853  -1.284 -0.15 -0.00    +0.000 C 
DOCKED: BRANCH  20  21
DOCKED: ATOM     21  C   UNL     1      28.061 -13.126  -2.340 -0.11 -0.00    +0.000 A 
DOCKED: ATOM     22  C   UNL     1      29.354 -12.605  -2.418 -0.04 -0.00    +0.000 A 
DOCKED: ATOM     23  N   UNL     1      29.970 -13.024  -3.550 -0.04 -0.00    +0.000 N 
DOCKED: ATOM     24  C   UNL     1      29.072 -13.786  -4.196 -0.11 -0.00    +0.000 A 
DOCKED: ATOM     25  C   UNL     1      27.894 -13.868  -3.494 -0.17 -0.00    +0.000 A 
DOCKED: ATOM     26  C   UNL     1      26.800 -14.586  -3.976 -0.38 -0.00    +0.000 A 
DOCKED: ATOM     27  C   UNL     1      26.939 -15.241  -5.213 -0.42 +0.00    +0.000 A 
DOCKED: ATOM     28  C   UNL     1      28.151 -15.162  -5.934 -0.34 +0.00    +0.000 A 
DOCKED: ATOM     29  C   UNL     1      29.236 -14.425  -5.425 -0.22 -0.00    +0.000 A 
DOCKED: ATOM     30  C   UNL     1      29.999 -11.713  -1.406 -0.01 -0.00    +0.000 C 
DOCKED: ATOM     31  H   UNL     1      30.886 -12.811  -3.839 +0.00 -0.00    +0.000 HD
DOCKED: ENDBRANCH  20  21
DOCKED: ENDBRANCH  19  20
DOCKED: ENDBRANCH   1  19
DOCKED: TORSDOF 8
DOCKED: TER
DOCKED: ENDMDL
________________________________________________________________________________


	BEGINNING GENETIC ALGORITHM DOCKING 100 of 100
Run: 100 Seed: 2072998190 1086670800 [ Run 100 of 100 GA/GALS ]
Beginning LAMARCKIAN GENETIC ALGORITHM (LGA), with a maximum of 2500000 energy evaluations.

Final-Value: -15.809


	FINAL GENETIC ALGORITHM DOCKED STATE
	_______________________________________________


Detailed state:  trans 28.093 -15.105 0.436 quatxyzw -0.182384 0.778966 0.598333 -0.044105 center 0.693 0.091 0.076 ntor 8 68.6905 85.9084 158.5137 150.2432 -120.1469 -170.1384 164.6274 -18.7304
State:	 28.093 -15.105   0.436  -0.183  0.780  0.599 -174.944     68.69   85.91  158.51  150.24 -120.15 -170.14  164.63  -18.73

DOCKED: MODEL      100
DOCKED: USER    Run = 100
DOCKED: USER    DPF = ligand_dock.biased.dpf
DOCKED: USER  
DOCKED: USER    Estimated Free Energy of Binding    =  -12.10 kcal/mol  [=(1)+(2)+(3)-(4)]
DOCKED: USER    Estimated Inhibition Constant, Ki   =    1.34 nM (nanomolar)  [Temperature = 298.15 K]
DOCKED: USER    
DOCKED: USER    (1) Final Intermolecular Energy     =  -14.49 kcal/mol
DOCKED: USER        vdW + Hbond + desolv Energy     =  -14.49 kcal/mol
DOCKED: USER        Electrostatic Energy            =   +0.00 kcal/mol
DOCKED: USER    (2) Final Total Internal Energy     =   -1.32 kcal/mol
DOCKED: USER    (3) Torsional Free Energy           =   +2.39 kcal/mol
DOCKED: USER    (4) Unbound System's Energy  [=(2)] =   -1.32 kcal/mol
DOCKED: USER    
DOCKED: USER    
DOCKED: USER    NEWDPF move ligand.pdbqt
DOCKED: USER    NEWDPF about 0.693000 0.091000 0.076000
DOCKED: USER    NEWDPF tran0 28.092873 -15.104898 0.436075
DOCKED: USER    NEWDPF quaternion0 -0.182384 0.778966 0.598333 -0.044105
DOCKED: USER    NEWDPF axisangle0 -0.182562 0.779725 0.598916 -174.944309
DOCKED: USER    NEWDPF quat0 -0.182562 0.779725 0.598916 -174.944309
DOCKED: USER    NEWDPF dihe0 68.69 85.91 158.51 150.24 -120.15 -170.14 164.63 -18.73 
DOCKED: USER  keepresnum = 1 
DOCKED: USER  
DOCKED: REMARK  Name = 
DOCKED: REMARK  9 active torsions:
DOCKED: REMARK  status: ('A' for Active; 'I' for Inactive)
DOCKED: REMARK    1  A    between atoms: C_2  and  C_3
DOCKED: REMARK    2  A    between atoms: C_4  and  C_5
DOCKED: REMARK    3  A    between atoms: C_8  and  C_9
DOCKED: REMARK    4  A    between atoms: C_9  and  N_10
DOCKED: REMARK    5  A    between atoms: N_10  and  C_11
DOCKED: REMARK    6  A    between atoms: C_11  and  C_12
DOCKED: REMARK    7  A    between atoms: C_12  and  C_13
DOCKED: REMARK    8  A    between atoms: C_14  and  C_22
DOCKED: REMARK    9  A    between atoms: N_25  and  O_26
DOCKED: REMARK                            x       y       z     vdW  Elec       q    Type
DOCKED: REMARK                         _______ _______ _______ _____ _____    ______ ____
DOCKED: USER                              x       y       z     vdW  Elec       q    Type
DOCKED: USER                           _______ _______ _______ _____ _____    ______ ____
DOCKED: ROOT
DOCKED: ATOM      1  N   UNL     1      28.809 -14.830   1.378 -0.17 -0.00    +0.000 N 
DOCKED: ATOM      2  H   UNL     1      28.647 -15.606   2.020 -1.45 -0.00    +0.000 HD
DOCKED: ATOM      3  H   UNL     1      28.085 -14.117   1.465 -0.13 -0.00    +0.000 HD
DOCKED: ENDROOT
DOCKED: BRANCH   1   4
DOCKED: ATOM      4  C   UNL     1      28.772 -15.340   0.002 -0.22 -0.00    +0.000 C 
DOCKED: BRANCH   4   8
DOCKED: ATOM      5  C   UNL     1      25.069 -17.448  -0.740 -0.61 -0.00    +0.000 A 
DOCKED: ATOM      6  C   UNL     1      26.282 -18.154  -0.609 -0.53 -0.00    +0.000 A 
DOCKED: ATOM      7  C   UNL     1      27.476 -17.471  -0.363 -0.37 -0.00    +0.000 A 
DOCKED: ATOM      8  C   UNL     1      27.480 -16.075  -0.224 -0.32 -0.00    +0.000 A 
DOCKED: ATOM      9  C   UNL     1      26.276 -15.368  -0.354 -0.29 -0.00    +0.000 A 
DOCKED: ATOM     10  C   UNL     1      25.080 -16.050  -0.598 -0.17 -0.00    +0.000 A 
DOCKED: BRANCH   5  12
DOCKED: ATOM     11  C   UNL     1      22.646 -17.833  -0.326 -0.81 -0.00    +0.000 C 
DOCKED: ATOM     12  C   UNL     1      23.774 -18.129  -0.986 -0.80 -0.00    +0.000 C 
DOCKED: BRANCH  11  14
DOCKED: ATOM     13  O   UNL     1      20.416 -17.881  -1.082 -2.19 -0.00    +0.000 OA
DOCKED: ATOM     14  C   UNL     1      21.364 -18.527  -0.562 -0.83 -0.00    +0.000 C 
DOCKED: ATOM     15  N   UNL     1      21.180 -19.915  -0.251 -0.64 -0.00    +0.000 N 
DOCKED: ATOM     16  H   UNL     1      21.944 -20.455   0.052 -0.58 -0.00    +0.000 HD
DOCKED: BRANCH  15  17
DOCKED: ATOM     17  O   UNL     1      19.957 -20.484  -0.374 -0.89 -0.00    +0.000 OA
DOCKED: ATOM     18  H   UNL     1      19.716 -20.534  -1.312 -0.56 -0.00    +0.000 HD
DOCKED: ENDBRANCH  15  17
DOCKED: ENDBRANCH  11  14
DOCKED: ENDBRANCH   5  12
DOCKED: ENDBRANCH   4   8
DOCKED: ENDBRANCH   1   4
DOCKED: BRANCH   1  19
DOCKED: ATOM     19  C   UNL     1      30.099 -14.204   1.708 -0.15 -0.00    +0.000 C 
DOCKED: BRANCH  19  20
DOCKED: ATOM     20  C   UNL     1      29.960 -12.707   2.033 -0.09 -0.00    +0.000 C 
DOCKED: BRANCH  20  21
DOCKED: ATOM     21  C   UNL     1      29.134 -12.516   3.273 -0.14 -0.00    +0.000 A 
DOCKED: ATOM     22  C   UNL     1      27.908 -11.857   3.384 -0.24 +0.00    +0.000 A 
DOCKED: ATOM     23  N   UNL     1      27.498 -11.825   4.674 -0.32 +0.00    +0.000 N 
DOCKED: ATOM     24  C   UNL     1      28.462 -12.438   5.381 -0.35 -0.00    +0.000 A 
DOCKED: ATOM     25  C   UNL     1      29.479 -12.867   4.564 -0.21 -0.00    +0.000 A 
DOCKED: ATOM     26  C   UNL     1      30.607 -13.512   5.071 -0.23 -0.00    +0.000 A 
DOCKED: ATOM     27  C   UNL     1      30.672 -13.722   6.461 -0.19 -0.00    +0.000 A 
DOCKED: ATOM     28  C   UNL     1      29.625 -13.286   7.302 -0.34 -0.00    +0.000 A 
DOCKED: ATOM     29  C   UNL     1      28.502 -12.632   6.761 -0.38 -0.00    +0.000 A 
DOCKED: ATOM     30  C   UNL     1      27.129 -11.266   2.252 -0.30 +0.00    +0.000 C 
DOCKED: ATOM     31  H   UNL     1      26.665 -11.432   5.022 -0.00 +0.00    +0.000 HD
DOCKED: ENDBRANCH  20  21
DOCKED: ENDBRANCH  19  20
DOCKED: ENDBRANCH   1  19
DOCKED: TORSDOF 8
DOCKED: TER
DOCKED: ENDMDL
________________________________________________________________________________

DPF>                           # do this many hybrid GA-LS runs

DPF> analysis                             # perform a ranked cluster analysis


		CLUSTER ANALYSIS OF CONFORMATIONS
		_________________________________

Number of conformations = 100

RMSD cluster analysis will be performed using the ligand atoms only (31 / 31 total atoms).

Outputting structurally similar clusters, ranked in order of increasing energy.


________________________________________________________________________________

Number of distinct conformational clusters found = 10,  out of 100 runs,
Using an rmsd-tolerance of 2.0 A


	CLUSTERING HISTOGRAM
	____________________

________________________________________________________________________________
     |           |     |           |     |                                    
Clus | Lowest    | Run | Mean      | Num | Histogram                          
-ter | Binding   |     | Binding   | in  |                                    
Rank | Energy    |     | Energy    | Clus|    5    10   15   20   25   30   35
_____|___________|_____|___________|_____|____:____|____:____|____:____|____:___
   1 |    -13.45 |  25 |    -12.05 |  50 |##################################################
   2 |    -12.06 |  12 |    -11.60 |   7 |#######
   3 |    -11.98 |  30 |    -11.76 |   2 |##
   4 |    -11.83 |  69 |    -11.49 |   2 |##
   5 |    -11.79 |  28 |    -11.13 |  17 |#################
   6 |    -11.68 |  18 |    -11.09 |   8 |########
   7 |    -11.28 |  90 |    -10.85 |   9 |#########
   8 |    -10.87 |  32 |    -10.69 |   3 |###
   9 |    -10.68 |  41 |    -10.68 |   1 |#
  10 |    -10.37 |  37 |    -10.37 |   1 |#
_____|___________|_____|___________|_____|______________________________________


Number of multi-member conformational clusters found = 8, out of 100 runs.

	RMSD TABLE
	__________

_____________________________________________________________________
     |      |      |           |         |                 |
Rank | Sub- | Run  | Binding   | Cluster | Reference       | Grep
     | Rank |      | Energy    | RMSD    | RMSD            | Pattern
_____|______|______|___________|_________|_________________|___________
   1      1     25      -13.45      0.00     25.02           RANKING
   1      2     33      -13.25      1.53     25.09           RANKING
   1      3     88      -13.21      1.75     25.58           RANKING
   1      4     19      -12.71      1.21     24.89           RANKING
   1      5     56      -12.61      1.34     25.02           RANKING
   1      6     97      -12.59      1.14     24.68           RANKING
   1      7     85      -12.56      1.41     25.22           RANKING
   1      8     49      -12.51      1.96     26.11           RANKING
   1      9     17      -12.51      1.17     25.52           RANKING
   1     10     63      -12.45      1.19     25.45           RANKING
   1     11     40      -12.43      1.28     25.54           RANKING
   1     12     94      -12.38      1.61     25.19           RANKING
   1     13      8      -12.36      1.07     25.42           RANKING
   1     14     10      -12.31      1.64     25.04           RANKING
   1     15     43      -12.30      1.79     25.58           RANKING
   1     16      4      -12.30      1.09     25.02           RANKING
   1     17     44      -12.23      1.25     25.40           RANKING
   1     18     52      -12.20      0.96     25.05           RANKING
   1     19     11      -12.16      1.76     25.16           RANKING
   1     20     42      -12.15      1.39     25.77           RANKING
   1     21     58      -12.15      1.43     25.64           RANKING
   1     22     72      -12.14      1.65     25.68           RANKING
   1     23     87      -12.12      1.29     25.06           RANKING
   1     24     13      -12.12      1.75     25.54           RANKING
   1     25    100      -12.10      1.25     25.50           RANKING
   1     26     62      -12.09      1.95     26.13           RANKING
   1     27     78      -12.05      1.89     26.20           RANKING
   1     28     79      -12.04      1.56     25.79           RANKING
   1     29      2      -11.97      1.48     24.99           RANKING
   1     30     91      -11.94      1.85     25.08           RANKING
   1     31      3      -11.91      1.68     25.19           RANKING
   1     32     73      -11.91      1.77     25.69           RANKING
   1     33     48      -11.90      1.53     25.59           RANKING
   1     34     24      -11.88      1.51     25.62           RANKING
   1     35     61      -11.88      1.37     25.29           RANKING
   1     36     57      -11.79      1.75     26.07           RANKING
   1     37     15      -11.78      1.76     25.37           RANKING
   1     38     68      -11.76      1.51     25.74           RANKING
   1     39     20      -11.75      1.77     25.70           RANKING
   1     40     26      -11.73      1.71     25.46           RANKING
   1     41     46      -11.70      1.63     25.44           RANKING
   1     42     95      -11.62      1.49     25.34           RANKING
   1     43     93      -11.62      1.44     25.49           RANKING
   1     44     60      -11.57      1.79     24.99           RANKING
   1     45     29      -11.44      1.63     25.87           RANKING
   1     46     55      -11.39      1.66     25.86           RANKING
   1     47     86      -11.29      1.61     25.02           RANKING
   1     48     77      -11.20      1.65     25.48           RANKING
   1     49     16      -10.59      1.53     25.39           RANKING
   1     50     98      -10.48      1.91     25.14           RANKING
   2      1     12      -12.06      0.00     26.17           RANKING
   2      2     75      -11.94      1.48     26.30           RANKING
   2      3     38      -11.88      1.98     25.99           RANKING
   2      4     59      -11.84      1.99     26.25           RANKING
   2      5     31      -11.80      1.95     26.23           RANKING
   2      6     34      -11.12      1.99     27.16           RANKING
   2      7     22      -10.57      1.90     25.84           RANKING
   3      1     30      -11.98      0.00     24.72           RANKING
   3      2      9      -11.54      1.59     25.20           RANKING
   4      1     69      -11.83      0.00     28.27           RANKING
   4      2     47      -11.15      0.72     28.55           RANKING
   5      1     28      -11.79      0.00     27.70           RANKING
   5      2     83      -11.55      1.44     27.73           RANKING
   5      3     65      -11.42      1.45     27.71           RANKING
   5      4     67      -11.38      1.70     27.10           RANKING
   5      5     23      -11.36      1.37     27.47           RANKING
   5      6     96      -11.31      1.29     27.86           RANKING
   5      7     64      -11.25      1.90     27.32           RANKING
   5      8      1      -11.23      1.78     26.14           RANKING
   5      9      6      -11.03      1.85     25.91           RANKING
   5     10      7      -11.01      1.69     26.34           RANKING
   5     11     35      -10.95      1.62     26.53           RANKING
   5     12     54      -10.89      1.78     26.46           RANKING
   5     13     53      -10.88      1.92     25.88           RANKING
   5     14     27      -10.88      1.31     27.75           RANKING
   5     15     36      -10.77      1.88     25.96           RANKING
   5     16     50      -10.76      1.80     26.22           RANKING
   5     17     81      -10.67      1.65     27.40           RANKING
   6      1     18      -11.68      0.00     26.39           RANKING
   6      2     92      -11.21      1.70     25.76           RANKING
   6      3     76      -11.20      1.88     25.76           RANKING
   6      4     39      -11.08      0.92     26.04           RANKING
   6      5     82      -11.04      1.59     25.69           RANKING
   6      6      5      -10.95      1.08     26.26           RANKING
   6      7     84      -10.93      1.65     26.76           RANKING
   6      8     21      -10.67      1.76     25.92           RANKING
   7      1     90      -11.28      0.00     24.93           RANKING
   7      2     66      -11.10      1.44     24.44           RANKING
   7      3     45      -11.09      1.21     25.42           RANKING
   7      4     74      -11.00      1.19     25.44           RANKING
   7      5     80      -10.96      1.87     25.79           RANKING
   7      6     70      -10.80      0.96     25.30           RANKING
   7      7     51      -10.74      0.82     25.28           RANKING
   7      8     89      -10.45      1.92     25.40           RANKING
   7      9     99      -10.26      1.63     25.44           RANKING
   8      1     32      -10.87      0.00     25.17           RANKING
   8      2     14      -10.87      1.83     24.78           RANKING
   8      3     71      -10.32      1.81     25.13           RANKING
   9      1     41      -10.68      0.00     25.63           RANKING
  10      1     37      -10.37      0.00     25.02           RANKING
_______________________________________________________________________



	INFORMATION ENTROPY ANALYSIS FOR THIS CLUSTERING
	________________________________________________


Information entropy for this clustering = 0.35  (rmstol = 2.00 Angstrom)

_______________________________________________________________________


	STATISTICAL MECHANICAL ANALYSIS
	_______________________________


Partition function, Q =   101.98            at Temperature, T = 298.15 K
Free energy,        A ~ -2740.07 kcal/mol   at Temperature, T = 298.15 K
Internal energy,    U =   -11.59 kcal/mol   at Temperature, T = 298.15 K
Entropy,            S =     9.15 kcal/mol/K at Temperature, T = 298.15 K

_______________________________________________________________________


	LOWEST ENERGY DOCKED CONFORMATION from EACH CLUSTER
	___________________________________________________



Keeping original residue number (specified in the input PDBQ file) for outputting.

MODEL       25
USER    Run = 25
USER    Cluster Rank = 1
USER    Number of conformations in this cluster = 50
USER  
USER    RMSD from reference structure       = 25.018 A
USER  
USER    Estimated Free Energy of Binding    =  -13.45 kcal/mol  [=(1)+(2)+(3)-(4)]
USER    Estimated Inhibition Constant, Ki   =  137.83 pM (picomolar)  [Temperature = 298.15 K]
USER    
USER    (1) Final Intermolecular Energy     =  -15.84 kcal/mol
USER        vdW + Hbond + desolv Energy     =  -15.84 kcal/mol
USER        Electrostatic Energy            =   +0.00 kcal/mol
USER    (2) Final Total Internal Energy     =   -1.60 kcal/mol
USER    (3) Torsional Free Energy           =   +2.39 kcal/mol
USER    (4) Unbound System's Energy  [=(2)] =   -1.60 kcal/mol
USER    
USER    
USER  
USER    DPF = ligand_dock.biased.dpf
USER    NEWDPF move	ligand.pdbqt
USER    NEWDPF about	0.693000 0.091000 0.076000
USER    NEWDPF tran0	29.112800 -16.196862 0.790165
USER    NEWDPF axisangle0	0.546261 -0.650705 -0.527429 -106.840443
USER    NEWDPF quaternion0	0.438663 -0.522534 -0.423540 -0.595941
USER    NEWDPF dihe0	43.10 96.67 -114.27 22.93 -82.11 -178.60 -2.00 91.72 
USER  
USER                              x       y       z    vdW   Elec        q     RMS 
ATOM      1  N   UNL     1      29.159 -15.050   1.189 -0.06 -0.00    +0.000    25.018
ATOM      2  H   UNL     1      30.081 -14.998   1.622 -0.56 -0.00    +0.000    25.018
ATOM      3  H   UNL     1      28.471 -15.454   1.825 -1.23 -0.00    +0.000    25.018
ATOM      4  C   UNL     1      29.240 -15.919   0.008 -0.17 -0.00    +0.000    25.018
ATOM      5  C   UNL     1      25.218 -16.999  -1.155 -0.57 -0.00    +0.000    25.018
ATOM      6  C   UNL     1      25.800 -15.801  -1.617 -0.44 -0.00    +0.000    25.018
ATOM      7  C   UNL     1      27.102 -15.457  -1.243 -0.30 -0.00    +0.000    25.018
ATOM      8  C   UNL     1      27.854 -16.310  -0.422 -0.31 -0.00    +0.000    25.018
ATOM      9  C   UNL     1      27.279 -17.503   0.038 -0.25 -0.00    +0.000    25.018
ATOM     10  C   UNL     1      25.977 -17.849  -0.335 -0.59 -0.00    +0.000    25.018
ATOM     11  C   UNL     1      22.971 -17.954  -0.674 -0.82 -0.00    +0.000    25.018
ATOM     12  C   UNL     1      23.845 -17.414  -1.535 -0.64 -0.00    +0.000    25.018
ATOM     13  O   UNL     1      20.639 -17.636  -0.774 -2.18 -0.00    +0.000    25.018
ATOM     14  C   UNL     1      21.612 -18.383  -1.063 -0.75 -0.00    +0.000    25.018
ATOM     15  N   UNL     1      21.373 -19.598  -1.784 -0.53 -0.00    +0.000    25.018
ATOM     16  H   UNL     1      22.132 -20.133  -2.110 -0.53 -0.00    +0.000    25.018
ATOM     17  O   UNL     1      20.105 -20.013  -2.019 -1.81 -0.00    +0.000    25.018
ATOM     18  H   UNL     1      19.562 -19.257  -2.291 -0.31 -0.00    +0.000    25.018
ATOM     19  C   UNL     1      28.716 -13.689   0.853 -0.17 -0.00    +0.000    25.018
ATOM     20  C   UNL     1      27.286 -13.399   1.339 -0.30 -0.00    +0.000    25.018
ATOM     21  C   UNL     1      27.318 -12.564   2.588 -0.28 -0.00    +0.000    25.018
ATOM     22  C   UNL     1      26.844 -11.260   2.750 -0.24 +0.00    +0.000    25.018
ATOM     23  N   UNL     1      27.109 -10.808   3.999 -0.29 +0.00    +0.000    25.018
ATOM     24  C   UNL     1      27.763 -11.804   4.619 -0.32 +0.00    +0.000    25.018
ATOM     25  C   UNL     1      27.916 -12.888   3.790 -0.33 -0.00    +0.000    25.018
ATOM     26  C   UNL     1      28.586 -14.039   4.203 -0.42 -0.00    +0.000    25.018
ATOM     27  C   UNL     1      29.102 -14.065   5.512 -0.33 -0.00    +0.000    25.018
ATOM     28  C   UNL     1      28.942 -12.952   6.367 -0.37 -0.00    +0.000    25.018
ATOM     29  C   UNL     1      28.265 -11.802   5.920 -0.35 +0.00    +0.000    25.018
ATOM     30  C   UNL     1      26.132 -10.454   1.711 -0.37 +0.00    +0.000    25.018
ATOM     31  H   UNL     1      26.872  -9.929   4.373 -0.03 +0.00    +0.000    25.018
TER
ENDMDL
MODEL       12
USER    Run = 12
USER    Cluster Rank = 2
USER    Number of conformations in this cluster = 7
USER  
USER    RMSD from reference structure       = 26.169 A
USER  
USER    Estimated Free Energy of Binding    =  -12.06 kcal/mol  [=(1)+(2)+(3)-(4)]
USER    Estimated Inhibition Constant, Ki   =    1.44 nM (nanomolar)  [Temperature = 298.15 K]
USER    
USER    (1) Final Intermolecular Energy     =  -14.45 kcal/mol
USER        vdW + Hbond + desolv Energy     =  -14.45 kcal/mol
USER        Electrostatic Energy            =   +0.00 kcal/mol
USER    (2) Final Total Internal Energy     =   -1.58 kcal/mol
USER    (3) Torsional Free Energy           =   +2.39 kcal/mol
USER    (4) Unbound System's Energy  [=(2)] =   -1.58 kcal/mol
USER    
USER    
USER  
USER    DPF = ligand_dock.biased.dpf
USER    NEWDPF move	ligand.pdbqt
USER    NEWDPF about	0.693000 0.091000 0.076000
USER    NEWDPF tran0	28.712459 -15.775634 0.078938
USER    NEWDPF axisangle0	0.166970 -0.569407 -0.804921 -163.652629
USER    NEWDPF quaternion0	0.165274 -0.563623 -0.796744 -0.142174
USER    NEWDPF dihe0	20.95 -175.56 -1.22 133.50 80.66 -95.22 -150.85 11.65 
USER  
USER                              x       y       z    vdW   Elec        q     RMS 
ATOM      1  N   UNL     1      29.691 -15.677   0.792 +0.04 -0.00    +0.000    26.169
ATOM      2  H   UNL     1      29.956 -16.650   0.948 -0.57 -0.00    +0.000    26.169
ATOM      3  H   UNL     1      28.952 -15.385   1.430 -1.07 -0.00    +0.000    26.169
ATOM      4  C   UNL     1      29.180 -15.542  -0.578 -0.19 -0.00    +0.000    26.169
ATOM      5  C   UNL     1      24.993 -16.610  -0.747 -0.48 -0.00    +0.000    26.169
ATOM      6  C   UNL     1      25.962 -17.565  -0.375 -0.56 -0.00    +0.000    26.169
ATOM      7  C   UNL     1      27.314 -17.215  -0.316 -0.41 -0.00    +0.000    26.169
ATOM      8  C   UNL     1      27.721 -15.905  -0.606 -0.30 -0.00    +0.000    26.169
ATOM      9  C   UNL     1      26.762 -14.952  -0.976 -0.29 -0.00    +0.000    26.169
ATOM     10  C   UNL     1      25.409 -15.300  -1.035 -0.23 -0.00    +0.000    26.169
ATOM     11  C   UNL     1      23.069 -18.165  -1.010 -0.81 -0.00    +0.000    26.169
ATOM     12  C   UNL     1      23.546 -16.929  -0.811 -0.61 -0.00    +0.000    26.169
ATOM     13  O   UNL     1      20.802 -17.602  -0.707 -2.14 -0.00    +0.000    26.169
ATOM     14  C   UNL     1      21.627 -18.473  -1.091 -0.75 -0.00    +0.000    26.169
ATOM     15  N   UNL     1      21.140 -19.712  -1.624 -0.65 -0.00    +0.000    26.169
ATOM     16  H   UNL     1      21.768 -20.353  -2.027 -0.49 -0.00    +0.000    26.169
ATOM     17  O   UNL     1      19.818 -20.004  -1.573 -1.62 -0.00    +0.000    26.169
ATOM     18  H   UNL     1      19.310 -19.184  -1.467 -0.38 -0.00    +0.000    26.169
ATOM     19  C   UNL     1      30.862 -14.823   1.039 -0.12 -0.00    +0.000    26.169
ATOM     20  C   UNL     1      31.576 -15.170   2.357 -0.18 -0.00    +0.000    26.169
ATOM     21  C   UNL     1      31.085 -14.285   3.466 -0.20 -0.00    +0.000    26.169
ATOM     22  C   UNL     1      31.852 -13.612   4.419 -0.14 -0.00    +0.000    26.169
ATOM     23  N   UNL     1      31.057 -12.965   5.304 -0.18 -0.00    +0.000    26.169
ATOM     24  C   UNL     1      29.795 -13.240   4.932 -0.25 -0.00    +0.000    26.169
ATOM     25  C   UNL     1      29.771 -14.046   3.820 -0.28 -0.00    +0.000    26.169
ATOM     26  C   UNL     1      28.573 -14.488   3.260 -0.28 -0.00    +0.000    26.169
ATOM     27  C   UNL     1      27.372 -14.073   3.865 -0.46 -0.00    +0.000    26.169
ATOM     28  C   UNL     1      27.396 -13.240   5.006 -0.34 -0.00    +0.000    26.169
ATOM     29  C   UNL     1      28.621 -12.815   5.553 -0.37 -0.00    +0.000    26.169
ATOM     30  C   UNL     1      33.347 -13.584   4.475 -0.10 -0.00    +0.000    26.169
ATOM     31  H   UNL     1      31.345 -12.410   6.064 +0.00 -0.00    +0.000    26.169
TER
ENDMDL
MODEL       30
USER    Run = 30
USER    Cluster Rank = 3
USER    Number of conformations in this cluster = 2
USER  
USER    RMSD from reference structure       = 24.721 A
USER  
USER    Estimated Free Energy of Binding    =  -11.98 kcal/mol  [=(1)+(2)+(3)-(4)]
USER    Estimated Inhibition Constant, Ki   =    1.66 nM (nanomolar)  [Temperature = 298.15 K]
USER    
USER    (1) Final Intermolecular Energy     =  -14.36 kcal/mol
USER        vdW + Hbond + desolv Energy     =  -14.36 kcal/mol
USER        Electrostatic Energy            =   +0.00 kcal/mol
USER    (2) Final Total Internal Energy     =   -1.77 kcal/mol
USER    (3) Torsional Free Energy           =   +2.39 kcal/mol
USER    (4) Unbound System's Energy  [=(2)] =   -1.77 kcal/mol
USER    
USER    
USER  
USER    DPF = ligand_dock.biased.dpf
USER    NEWDPF move	ligand.pdbqt
USER    NEWDPF about	0.693000 0.091000 0.076000
USER    NEWDPF tran0	26.370635 -17.381904 -1.380697
USER    NEWDPF axisangle0	-0.652188 0.420594 -0.630675 -108.346920
USER    NEWDPF quaternion0	-0.528789 0.341015 -0.511347 -0.585333
USER    NEWDPF dihe0	20.47 -168.35 -66.16 -2.02 97.55 163.33 -170.46 -87.48 
USER  
USER                              x       y       z    vdW   Elec        q     RMS 
ATOM      1  N   UNL     1      26.185 -16.508  -2.204 -0.45 -0.00    +0.000    24.721
ATOM      2  H   UNL     1      25.495 -16.928  -2.828 -0.04 -0.00    +0.000    24.721
ATOM      3  H   UNL     1      27.131 -16.806  -2.441 -0.02 -0.00    +0.000    24.721
ATOM      4  C   UNL     1      25.908 -16.947  -0.831 -0.58 -0.00    +0.000    24.721
ATOM      5  C   UNL     1      21.964 -18.698  -0.554 -0.76 -0.00    +0.000    24.721
ATOM      6  C   UNL     1      22.132 -17.299  -0.502 -0.64 -0.00    +0.000    24.721
ATOM      7  C   UNL     1      23.407 -16.736  -0.597 -0.36 -0.00    +0.000    24.721
ATOM      8  C   UNL     1      24.534 -17.554  -0.767 -0.65 -0.00    +0.000    24.721
ATOM      9  C   UNL     1      24.371 -18.946  -0.820 -0.49 -0.00    +0.000    24.721
ATOM     10  C   UNL     1      23.096 -19.511  -0.726 -0.49 -0.00    +0.000    24.721
ATOM     11  C   UNL     1      20.061 -19.719   0.681 -0.77 -0.00    +0.000    24.721
ATOM     12  C   UNL     1      20.629 -19.342  -0.472 -0.89 -0.00    +0.000    24.721
ATOM     13  O   UNL     1      18.058 -20.479  -0.300 -0.82 -0.00    +0.000    24.721
ATOM     14  C   UNL     1      18.740 -20.378   0.755 -0.79 -0.00    +0.000    24.721
ATOM     15  N   UNL     1      18.231 -20.931   1.975 -0.68 -0.00    +0.000    24.721
ATOM     16  H   UNL     1      18.799 -20.956   2.778 -0.11 -0.00    +0.000    24.721
ATOM     17  O   UNL     1      16.969 -21.422   2.027 -0.72 -0.00    +0.000    24.721
ATOM     18  H   UNL     1      16.664 -21.625   1.129 -0.38 -0.00    +0.000    24.721
ATOM     19  C   UNL     1      26.124 -15.046  -2.348 -0.43 -0.00    +0.000    24.721
ATOM     20  C   UNL     1      27.487 -14.374  -2.110 -0.23 -0.00    +0.000    24.721
ATOM     21  C   UNL     1      27.778 -14.289  -0.639 -0.18 -0.00    +0.000    24.721
ATOM     22  C   UNL     1      28.442 -15.230   0.151 -0.21 -0.00    +0.000    24.721
ATOM     23  N   UNL     1      28.456 -14.840   1.448 -0.20 -0.00    +0.000    24.721
ATOM     24  C   UNL     1      27.789 -13.674   1.488 -0.24 -0.00    +0.000    24.721
ATOM     25  C   UNL     1      27.355 -13.309   0.237 -0.21 -0.00    +0.000    24.721
ATOM     26  C   UNL     1      26.617 -12.144   0.028 -0.15 -0.00    +0.000    24.721
ATOM     27  C   UNL     1      26.331 -11.338   1.145 -0.32 +0.00    +0.000    24.721
ATOM     28  C   UNL     1      26.781 -11.710   2.431 -0.27 +0.00    +0.000    24.721
ATOM     29  C   UNL     1      27.519 -12.895   2.612 -0.28 -0.00    +0.000    24.721
ATOM     30  C   UNL     1      29.069 -16.496  -0.339 -0.23 -0.00    +0.000    24.721
ATOM     31  H   UNL     1      28.868 -15.315   2.206 -1.79 -0.00    +0.000    24.721
TER
ENDMDL
MODEL       69
USER    Run = 69
USER    Cluster Rank = 4
USER    Number of conformations in this cluster = 2
USER  
USER    RMSD from reference structure       = 28.272 A
USER  
USER    Estimated Free Energy of Binding    =  -11.83 kcal/mol  [=(1)+(2)+(3)-(4)]
USER    Estimated Inhibition Constant, Ki   =    2.13 nM (nanomolar)  [Temperature = 298.15 K]
USER    
USER    (1) Final Intermolecular Energy     =  -14.22 kcal/mol
USER        vdW + Hbond + desolv Energy     =  -14.22 kcal/mol
USER        Electrostatic Energy            =   +0.00 kcal/mol
USER    (2) Final Total Internal Energy     =   -1.66 kcal/mol
USER    (3) Torsional Free Energy           =   +2.39 kcal/mol
USER    (4) Unbound System's Energy  [=(2)] =   -1.66 kcal/mol
USER    
USER    
USER  
USER    DPF = ligand_dock.biased.dpf
USER    NEWDPF move	ligand.pdbqt
USER    NEWDPF about	0.693000 0.091000 0.076000
USER    NEWDPF tran0	29.227529 -16.627103 0.024107
USER    NEWDPF axisangle0	0.445268 0.316700 0.837519 -172.580821
USER    NEWDPF quaternion0	0.444335 0.316036 0.835764 -0.064699
USER    NEWDPF dihe0	11.74 151.40 174.49 167.54 -154.14 -178.36 123.96 -68.79 
USER  
USER                              x       y       z    vdW   Elec        q     RMS 
ATOM      1  N   UNL     1      29.856 -17.607  -0.323 -0.12 -0.00    +0.000    28.272
ATOM      2  H   UNL     1      29.151 -18.346  -0.305 -0.62 -0.00    +0.000    28.272
ATOM      3  H   UNL     1      30.246 -17.441   0.604 -0.31 -0.00    +0.000    28.272
ATOM      4  C   UNL     1      29.221 -16.362  -0.773 -0.24 -0.00    +0.000    28.272
ATOM      5  C   UNL     1      24.958 -16.940  -1.207 -0.58 -0.00    +0.000    28.272
ATOM      6  C   UNL     1      25.646 -16.033  -2.038 -0.48 -0.00    +0.000    28.272
ATOM      7  C   UNL     1      27.025 -15.852  -1.899 -0.33 -0.00    +0.000    28.272
ATOM      8  C   UNL     1      27.745 -16.586  -0.945 -0.35 -0.00    +0.000    28.272
ATOM      9  C   UNL     1      27.064 -17.490  -0.117 -0.42 -0.00    +0.000    28.272
ATOM     10  C   UNL     1      25.685 -17.673  -0.255 -0.56 -0.00    +0.000    28.272
ATOM     11  C   UNL     1      22.911 -18.342  -1.019 -0.82 -0.00    +0.000    28.272
ATOM     12  C   UNL     1      23.498 -17.177  -1.326 -0.59 -0.00    +0.000    28.272
ATOM     13  O   UNL     1      20.663 -17.713  -0.707 -2.24 -0.00    +0.000    28.272
ATOM     14  C   UNL     1      21.460 -18.578  -1.158 -0.68 -0.00    +0.000    28.272
ATOM     15  N   UNL     1      20.935 -19.738  -1.817 -0.70 -0.00    +0.000    28.272
ATOM     16  H   UNL     1      21.545 -20.364  -2.268 -0.54 -0.00    +0.000    28.272
ATOM     17  O   UNL     1      19.601 -19.976  -1.820 -1.56 -0.00    +0.000    28.272
ATOM     18  H   UNL     1      19.132 -19.188  -1.504 -0.53 -0.00    +0.000    28.272
ATOM     19  C   UNL     1      30.956 -18.025  -1.205 -0.19 -0.00    +0.000    28.272
ATOM     20  C   UNL     1      32.336 -17.848  -0.548 -0.10 -0.00    +0.000    28.272
ATOM     21  C   UNL     1      32.231 -18.017   0.940 -0.13 -0.00    +0.000    28.272
ATOM     22  C   UNL     1      32.176 -17.012   1.908 -0.17 -0.00    +0.000    28.272
ATOM     23  N   UNL     1      32.155 -17.546   3.152 -0.32 -0.00    +0.000    28.272
ATOM     24  C   UNL     1      32.217 -18.878   2.981 -0.26 -0.00    +0.000    28.272
ATOM     25  C   UNL     1      32.271 -19.204   1.648 -0.17 -0.00    +0.000    28.272
ATOM     26  C   UNL     1      32.364 -20.528   1.219 -0.15 -0.00    +0.000    28.272
ATOM     27  C   UNL     1      32.393 -21.535   2.201 -0.19 -0.00    +0.000    28.272
ATOM     28  C   UNL     1      32.333 -21.201   3.572 -0.32 -0.00    +0.000    28.272
ATOM     29  C   UNL     1      32.246 -19.856   3.974 -0.38 -0.00    +0.000    28.272
ATOM     30  C   UNL     1      32.138 -15.542   1.637 -0.13 -0.00    +0.000    28.272
ATOM     31  H   UNL     1      32.107 -17.059   4.006 -0.04 -0.00    +0.000    28.272
TER
ENDMDL
MODEL       28
USER    Run = 28
USER    Cluster Rank = 5
USER    Number of conformations in this cluster = 17
USER  
USER    RMSD from reference structure       = 27.700 A
USER  
USER    Estimated Free Energy of Binding    =  -11.79 kcal/mol  [=(1)+(2)+(3)-(4)]
USER    Estimated Inhibition Constant, Ki   =    2.27 nM (nanomolar)  [Temperature = 298.15 K]
USER    
USER    (1) Final Intermolecular Energy     =  -14.18 kcal/mol
USER        vdW + Hbond + desolv Energy     =  -14.18 kcal/mol
USER        Electrostatic Energy            =   +0.00 kcal/mol
USER    (2) Final Total Internal Energy     =   -1.93 kcal/mol
USER    (3) Torsional Free Energy           =   +2.39 kcal/mol
USER    (4) Unbound System's Energy  [=(2)] =   -1.93 kcal/mol
USER    
USER    
USER  
USER    DPF = ligand_dock.biased.dpf
USER    NEWDPF move	ligand.pdbqt
USER    NEWDPF about	0.693000 0.091000 0.076000
USER    NEWDPF tran0	29.003291 -17.483899 -0.254983
USER    NEWDPF axisangle0	-0.283408 -0.006305 -0.958979 -175.927260
USER    NEWDPF quaternion0	-0.283229 -0.006301 -0.958373 -0.035534
USER    NEWDPF dihe0	17.95 179.94 178.52 43.17 97.13 34.39 125.45 -39.69 
USER  
USER                              x       y       z    vdW   Elec        q     RMS 
ATOM      1  N   UNL     1      29.829 -18.102  -0.896 -0.23 -0.00    +0.000    27.700
ATOM      2  H   UNL     1      29.257 -18.613  -1.569 -0.03 -0.00    +0.000    27.700
ATOM      3  H   UNL     1      29.872 -18.587   0.000 -0.56 -0.00    +0.000    27.700
ATOM      4  C   UNL     1      29.223 -16.785  -0.666 -0.26 -0.00    +0.000    27.700
ATOM      5  C   UNL     1      24.913 -17.078  -0.864 -0.58 -0.00    +0.000    27.700
ATOM      6  C   UNL     1      25.572 -15.908  -1.292 -0.45 -0.00    +0.000    27.700
ATOM      7  C   UNL     1      26.966 -15.818  -1.232 -0.34 -0.00    +0.000    27.700
ATOM      8  C   UNL     1      27.727 -16.899  -0.764 -0.37 -0.00    +0.000    27.700
ATOM      9  C   UNL     1      27.076 -18.065  -0.337 -0.40 -0.00    +0.000    27.700
ATOM     10  C   UNL     1      25.682 -18.157  -0.398 -0.61 -0.00    +0.000    27.700
ATOM     11  C   UNL     1      22.817 -18.410  -1.006 -0.82 -0.00    +0.000    27.700
ATOM     12  C   UNL     1      23.438 -17.226  -0.922 -0.71 -0.00    +0.000    27.700
ATOM     13  O   UNL     1      20.631 -17.581  -0.719 -2.15 +0.00    +0.000    27.700
ATOM     14  C   UNL     1      21.349 -18.551  -1.082 -0.77 -0.00    +0.000    27.700
ATOM     15  N   UNL     1      20.721 -19.737  -1.587 -0.79 -0.00    +0.000    27.700
ATOM     16  H   UNL     1      21.269 -20.455  -1.975 -0.43 -0.00    +0.000    27.700
ATOM     17  O   UNL     1      19.373 -19.871  -1.532 -1.33 -0.00    +0.000    27.700
ATOM     18  H   UNL     1      18.967 -19.001  -1.398 -0.56 -0.00    +0.000    27.700
ATOM     19  C   UNL     1      31.200 -18.003  -1.419 -0.17 -0.00    +0.000    27.700
ATOM     20  C   UNL     1      31.364 -16.853  -2.427 -0.10 -0.00    +0.000    27.700
ATOM     21  C   UNL     1      30.815 -17.252  -3.768 -0.16 -0.00    +0.000    27.700
ATOM     22  C   UNL     1      30.004 -16.493  -4.613 -0.24 -0.00    +0.000    27.700
ATOM     23  N   UNL     1      29.650 -17.209  -5.706 -0.34 -0.00    +0.000    27.700
ATOM     24  C   UNL     1      30.212 -18.420  -5.549 -0.29 -0.00    +0.000    27.700
ATOM     25  C   UNL     1      30.925 -18.487  -4.377 -0.21 -0.00    +0.000    27.700
ATOM     26  C   UNL     1      31.579 -19.653  -3.982 -0.16 -0.00    +0.000    27.700
ATOM     27  C   UNL     1      31.497 -20.772  -4.831 -0.21 -0.00    +0.000    27.700
ATOM     28  C   UNL     1      30.768 -20.703  -6.039 -0.36 -0.00    +0.000    27.700
ATOM     29  C   UNL     1      30.113 -19.514  -6.408 -0.34 -0.00    +0.000    27.700
ATOM     30  C   UNL     1      29.576 -15.080  -4.375 -0.19 -0.00    +0.000    27.700
ATOM     31  H   UNL     1      29.093 -16.906  -6.459 -0.03 -0.00    +0.000    27.700
TER
ENDMDL
MODEL       18
USER    Run = 18
USER    Cluster Rank = 6
USER    Number of conformations in this cluster = 8
USER  
USER    RMSD from reference structure       = 26.393 A
USER  
USER    Estimated Free Energy of Binding    =  -11.68 kcal/mol  [=(1)+(2)+(3)-(4)]
USER    Estimated Inhibition Constant, Ki   =    2.75 nM (nanomolar)  [Temperature = 298.15 K]
USER    
USER    (1) Final Intermolecular Energy     =  -14.07 kcal/mol
USER        vdW + Hbond + desolv Energy     =  -14.07 kcal/mol
USER        Electrostatic Energy            =   +0.00 kcal/mol
USER    (2) Final Total Internal Energy     =   -2.05 kcal/mol
USER    (3) Torsional Free Energy           =   +2.39 kcal/mol
USER    (4) Unbound System's Energy  [=(2)] =   -2.05 kcal/mol
USER    
USER    
USER  
USER    DPF = ligand_dock.biased.dpf
USER    NEWDPF move	ligand.pdbqt
USER    NEWDPF about	0.693000 0.091000 0.076000
USER    NEWDPF tran0	29.937428 -16.251390 -0.655610
USER    NEWDPF axisangle0	-0.833504 -0.285078 -0.473289 -149.505902
USER    NEWDPF quaternion0	-0.804165 -0.275043 -0.456629 -0.262982
USER    NEWDPF dihe0	11.72 150.11 13.75 138.95 36.30 -174.90 -21.51 -137.38 
USER  
USER                              x       y       z    vdW   Elec        q     RMS 
ATOM      1  N   UNL     1      29.906 -17.012  -1.603 -0.21 -0.00    +0.000    26.393
ATOM      2  H   UNL     1      29.766 -17.920  -1.159 -0.06 -0.00    +0.000    26.393
ATOM      3  H   UNL     1      30.889 -16.742  -1.598 +0.00 -0.00    +0.000    26.393
ATOM      4  C   UNL     1      29.160 -15.998  -0.846 -0.22 -0.00    +0.000    26.393
ATOM      5  C   UNL     1      24.941 -16.882  -1.185 -0.57 -0.00    +0.000    26.393
ATOM      6  C   UNL     1      25.802 -17.756  -0.492 -0.58 -0.00    +0.000    26.393
ATOM      7  C   UNL     1      27.164 -17.465  -0.379 -0.44 -0.00    +0.000    26.393
ATOM      8  C   UNL     1      27.688 -16.289  -0.937 -0.33 -0.00    +0.000    26.393
ATOM      9  C   UNL     1      26.834 -15.417  -1.627 -0.32 -0.00    +0.000    26.393
ATOM     10  C   UNL     1      25.471 -15.706  -1.740 -0.44 -0.00    +0.000    26.393
ATOM     11  C   UNL     1      22.906 -18.299  -0.977 -0.82 -0.00    +0.000    26.393
ATOM     12  C   UNL     1      23.485 -17.140  -1.319 -0.58 -0.00    +0.000    26.393
ATOM     13  O   UNL     1      20.645 -17.694  -0.706 -2.23 +0.00    +0.000    26.393
ATOM     14  C   UNL     1      21.459 -18.557  -1.131 -0.70 -0.00    +0.000    26.393
ATOM     15  N   UNL     1      20.959 -19.735  -1.777 -0.70 -0.00    +0.000    26.393
ATOM     16  H   UNL     1      21.583 -20.360  -2.209 -0.53 -0.00    +0.000    26.393
ATOM     17  O   UNL     1      19.628 -19.989  -1.794 -1.57 -0.00    +0.000    26.393
ATOM     18  H   UNL     1      19.145 -19.203  -1.498 -0.51 -0.00    +0.000    26.393
ATOM     19  C   UNL     1      29.469 -17.097  -3.005 -0.21 -0.00    +0.000    26.393
ATOM     20  C   UNL     1      30.550 -16.615  -3.987 -0.19 -0.00    +0.000    26.393
ATOM     21  C   UNL     1      29.930 -15.802  -5.088 -0.23 -0.00    +0.000    26.393
ATOM     22  C   UNL     1      30.098 -15.966  -6.464 -0.31 -0.00    +0.000    26.393
ATOM     23  N   UNL     1      29.436 -15.001  -7.145 -0.31 -0.00    +0.000    26.393
ATOM     24  C   UNL     1      28.868 -14.217  -6.213 -0.30 -0.00    +0.000    26.393
ATOM     25  C   UNL     1      29.151 -14.669  -4.947 -0.21 -0.00    +0.000    26.393
ATOM     26  C   UNL     1      28.691 -14.004  -3.811 -0.13 -0.00    +0.000    26.393
ATOM     27  C   UNL     1      27.911 -12.848  -3.998 -0.14 -0.00    +0.000    26.393
ATOM     28  C   UNL     1      27.616 -12.386  -5.299 -0.18 -0.00    +0.000    26.393
ATOM     29  C   UNL     1      28.099 -13.074  -6.427 -0.21 -0.00    +0.000    26.393
ATOM     30  C   UNL     1      30.888 -17.052  -7.123 -0.33 -0.00    +0.000    26.393
ATOM     31  H   UNL     1      29.384 -14.895  -8.123 -0.50 -0.00    +0.000    26.393
TER
ENDMDL
MODEL       90
USER    Run = 90
USER    Cluster Rank = 7
USER    Number of conformations in this cluster = 9
USER  
USER    RMSD from reference structure       = 24.930 A
USER  
USER    Estimated Free Energy of Binding    =  -11.28 kcal/mol  [=(1)+(2)+(3)-(4)]
USER    Estimated Inhibition Constant, Ki   =    5.43 nM (nanomolar)  [Temperature = 298.15 K]
USER    
USER    (1) Final Intermolecular Energy     =  -13.66 kcal/mol
USER        vdW + Hbond + desolv Energy     =  -13.66 kcal/mol
USER        Electrostatic Energy            =   +0.00 kcal/mol
USER    (2) Final Total Internal Energy     =   -2.23 kcal/mol
USER    (3) Torsional Free Energy           =   +2.39 kcal/mol
USER    (4) Unbound System's Energy  [=(2)] =   -2.23 kcal/mol
USER    
USER    
USER  
USER    DPF = ligand_dock.biased.dpf
USER    NEWDPF move	ligand.pdbqt
USER    NEWDPF about	0.693000 0.091000 0.076000
USER    NEWDPF tran0	27.506416 -16.125819 0.404961
USER    NEWDPF axisangle0	0.412645 -0.738156 -0.533713 -140.157538
USER    NEWDPF quaternion0	0.387954 -0.693986 -0.501776 -0.340728
USER    NEWDPF dihe0	-3.78 -179.60 117.03 -36.58 -96.74 54.28 -175.48 38.28 
USER  
USER                              x       y       z    vdW   Elec        q     RMS 
ATOM      1  N   UNL     1      27.934 -15.160   1.005 -0.25 -0.00    +0.000    24.930
ATOM      2  H   UNL     1      28.542 -15.581   1.708 -1.18 -0.00    +0.000    24.930
ATOM      3  H   UNL     1      26.959 -15.163   1.305 -0.05 -0.00    +0.000    24.930
ATOM      4  C   UNL     1      28.026 -15.948  -0.231 -0.31 -0.00    +0.000    24.930
ATOM      5  C   UNL     1      24.311 -18.025  -0.994 -0.69 -0.00    +0.000    24.930
ATOM      6  C   UNL     1      25.307 -18.612  -0.188 -0.48 -0.00    +0.000    24.930
ATOM      7  C   UNL     1      26.504 -17.936   0.061 -0.52 -0.00    +0.000    24.930
ATOM      8  C   UNL     1      26.721 -16.656  -0.470 -0.43 -0.00    +0.000    24.930
ATOM      9  C   UNL     1      25.733 -16.069  -1.272 -0.46 -0.00    +0.000    24.930
ATOM     10  C   UNL     1      24.534 -16.743  -1.522 -0.56 -0.00    +0.000    24.930
ATOM     11  C   UNL     1      21.911 -18.505  -0.547 -0.85 -0.00    +0.000    24.930
ATOM     12  C   UNL     1      23.018 -18.697  -1.277 -0.79 -0.00    +0.000    24.930
ATOM     13  O   UNL     1      20.460 -19.714  -1.954 -1.72 -0.00    +0.000    24.930
ATOM     14  C   UNL     1      20.632 -19.191  -0.821 -0.90 -0.00    +0.000    24.930
ATOM     15  N   UNL     1      19.601 -19.307   0.169 -0.72 -0.00    +0.000    24.930
ATOM     16  H   UNL     1      19.767 -19.000   1.088 -0.23 -0.00    +0.000    24.930
ATOM     17  O   UNL     1      18.399 -19.841  -0.158 -0.81 -0.00    +0.000    24.930
ATOM     18  H   UNL     1      18.380 -20.036  -1.108 -0.42 -0.00    +0.000    24.930
ATOM     19  C   UNL     1      28.339 -13.760   0.807 -0.20 -0.00    +0.000    24.930
ATOM     20  C   UNL     1      29.171 -13.564  -0.472 -0.08 -0.00    +0.000    24.930
ATOM     21  C   UNL     1      28.271 -13.314  -1.648 -0.10 -0.00    +0.000    24.930
ATOM     22  C   UNL     1      27.300 -12.319  -1.778 -0.10 -0.00    +0.000    24.930
ATOM     23  N   UNL     1      26.638 -12.448  -2.952 -0.16 -0.00    +0.000    24.930
ATOM     24  C   UNL     1      27.167 -13.526  -3.556 -0.23 -0.00    +0.000    24.930
ATOM     25  C   UNL     1      28.160 -14.084  -2.789 -0.14 -0.00    +0.000    24.930
ATOM     26  C   UNL     1      28.844 -15.231  -3.195 -0.17 -0.00    +0.000    24.930
ATOM     27  C   UNL     1      28.490 -15.803  -4.431 -0.27 -0.00    +0.000    24.930
ATOM     28  C   UNL     1      27.472 -15.226  -5.222 -0.41 -0.00    +0.000    24.930
ATOM     29  C   UNL     1      26.796 -14.073  -4.783 -0.35 -0.00    +0.000    24.930
ATOM     30  C   UNL     1      27.013 -11.243  -0.780 -0.11 -0.00    +0.000    24.930
ATOM     31  H   UNL     1      25.916 -11.871  -3.293 -0.00 -0.00    +0.000    24.930
TER
ENDMDL
MODEL       32
USER    Run = 32
USER    Cluster Rank = 8
USER    Number of conformations in this cluster = 3
USER  
USER    RMSD from reference structure       = 25.169 A
USER  
USER    Estimated Free Energy of Binding    =  -10.87 kcal/mol  [=(1)+(2)+(3)-(4)]
USER    Estimated Inhibition Constant, Ki   =   10.69 nM (nanomolar)  [Temperature = 298.15 K]
USER    
USER    (1) Final Intermolecular Energy     =  -13.26 kcal/mol
USER        vdW + Hbond + desolv Energy     =  -13.26 kcal/mol
USER        Electrostatic Energy            =   +0.00 kcal/mol
USER    (2) Final Total Internal Energy     =   -1.75 kcal/mol
USER    (3) Torsional Free Energy           =   +2.39 kcal/mol
USER    (4) Unbound System's Energy  [=(2)] =   -1.75 kcal/mol
USER    
USER    
USER  
USER    DPF = ligand_dock.biased.dpf
USER    NEWDPF move	ligand.pdbqt
USER    NEWDPF about	0.693000 0.091000 0.076000
USER    NEWDPF tran0	26.989455 -15.283542 -0.068856
USER    NEWDPF axisangle0	-0.295181 0.954338 0.045899 126.797973
USER    NEWDPF quaternion0	-0.263935 0.853318 0.041040 0.447775
USER    NEWDPF dihe0	7.96 143.16 161.66 -26.97 39.67 151.61 115.24 57.59 
USER  
USER                              x       y       z    vdW   Elec        q     RMS 
ATOM      1  N   UNL     1      27.254 -14.194  -0.537 -0.23 -0.00    +0.000    25.169
ATOM      2  H   UNL     1      27.692 -13.711   0.248 +0.00 -0.00    +0.000    25.169
ATOM      3  H   UNL     1      26.236 -14.145  -0.484 -0.01 -0.00    +0.000    25.169
ATOM      4  C   UNL     1      27.637 -15.611  -0.491 -0.32 -0.00    +0.000    25.169
ATOM      5  C   UNL     1      24.133 -18.101  -0.958 -0.70 -0.00    +0.000    25.169
ATOM      6  C   UNL     1      25.292 -18.605  -0.335 -0.54 -0.00    +0.000    25.169
ATOM      7  C   UNL     1      26.421 -17.796  -0.180 -0.54 -0.00    +0.000    25.169
ATOM      8  C   UNL     1      26.408 -16.466  -0.625 -0.43 -0.00    +0.000    25.169
ATOM      9  C   UNL     1      25.257 -15.961  -1.245 -0.44 -0.00    +0.000    25.169
ATOM     10  C   UNL     1      24.126 -16.768  -1.400 -0.53 -0.00    +0.000    25.169
ATOM     11  C   UNL     1      21.669 -18.443  -0.923 -0.81 -0.00    +0.000    25.169
ATOM     12  C   UNL     1      22.905 -18.916  -1.132 -0.81 -0.00    +0.000    25.169
ATOM     13  O   UNL     1      20.256 -19.848  -2.179 -1.86 -0.00    +0.000    25.169
ATOM     14  C   UNL     1      20.451 -19.265  -1.079 -0.90 -0.00    +0.000    25.169
ATOM     15  N   UNL     1      19.510 -19.445  -0.013 -0.77 -0.00    +0.000    25.169
ATOM     16  H   UNL     1      19.707 -19.085   0.881 -0.17 -0.00    +0.000    25.169
ATOM     17  O   UNL     1      18.349 -20.109  -0.233 -0.85 -0.00    +0.000    25.169
ATOM     18  H   UNL     1      18.366 -20.503  -1.119 -0.40 -0.00    +0.000    25.169
ATOM     19  C   UNL     1      27.671 -13.541  -1.787 -0.17 -0.00    +0.000    25.169
ATOM     20  C   UNL     1      26.733 -13.866  -2.962 -0.30 -0.00    +0.000    25.169
ATOM     21  C   UNL     1      27.530 -14.183  -4.195 -0.27 -0.00    +0.000    25.169
ATOM     22  C   UNL     1      28.386 -15.267  -4.398 -0.29 -0.00    +0.000    25.169
ATOM     23  N   UNL     1      28.984 -15.183  -5.610 -0.33 -0.00    +0.000    25.169
ATOM     24  C   UNL     1      28.530 -14.047  -6.166 -0.31 -0.00    +0.000    25.169
ATOM     25  C   UNL     1      27.647 -13.406  -5.332 -0.24 -0.00    +0.000    25.169
ATOM     26  C   UNL     1      27.059 -12.190  -5.680 -0.18 -0.00    +0.000    25.169
ATOM     27  C   UNL     1      27.391 -11.634  -6.929 -0.16 -0.00    +0.000    25.169
ATOM     28  C   UNL     1      28.296 -12.294  -7.789 -0.21 -0.00    +0.000    25.169
ATOM     29  C   UNL     1      28.878 -13.517  -7.408 -0.28 -0.00    +0.000    25.169
ATOM     30  C   UNL     1      28.624 -16.384  -3.433 -0.22 -0.00    +0.000    25.169
ATOM     31  H   UNL     1      29.622 -15.822  -6.002 -0.02 -0.00    +0.000    25.169
TER
ENDMDL
MODEL       41
USER    Run = 41
USER    Cluster Rank = 9
USER    Number of conformations in this cluster = 1
USER  
USER    RMSD from reference structure       = 25.628 A
USER  
USER    Estimated Free Energy of Binding    =  -10.68 kcal/mol  [=(1)+(2)+(3)-(4)]
USER    Estimated Inhibition Constant, Ki   =   14.76 nM (nanomolar)  [Temperature = 298.15 K]
USER    
USER    (1) Final Intermolecular Energy     =  -13.07 kcal/mol
USER        vdW + Hbond + desolv Energy     =  -13.07 kcal/mol
USER        Electrostatic Energy            =   +0.00 kcal/mol
USER    (2) Final Total Internal Energy     =   -1.67 kcal/mol
USER    (3) Torsional Free Energy           =   +2.39 kcal/mol
USER    (4) Unbound System's Energy  [=(2)] =   -1.67 kcal/mol
USER    
USER    
USER  
USER    DPF = ligand_dock.biased.dpf
USER    NEWDPF move	ligand.pdbqt
USER    NEWDPF about	0.693000 0.091000 0.076000
USER    NEWDPF tran0	25.788225 -17.387561 -2.039223
USER    NEWDPF axisangle0	-0.609642 0.593418 -0.525540 -108.544503
USER    NEWDPF quaternion0	-0.494908 0.481737 -0.426634 -0.583934
USER    NEWDPF dihe0	16.24 -138.54 -88.54 172.02 -168.84 159.94 -153.72 -86.66 
USER  
USER                              x       y       z    vdW   Elec        q     RMS 
ATOM      1  N   UNL     1      25.523 -16.331  -2.578 -0.53 -0.00    +0.000    25.628
ATOM      2  H   UNL     1      24.679 -16.553  -3.108 -0.03 -0.00    +0.000    25.628
ATOM      3  H   UNL     1      26.364 -16.605  -3.084 -0.02 -0.00    +0.000    25.628
ATOM      4  C   UNL     1      25.496 -17.080  -1.315 -0.62 -0.00    +0.000    25.628
ATOM      5  C   UNL     1      21.547 -18.682  -0.581 -0.76 -0.00    +0.000    25.628
ATOM      6  C   UNL     1      21.765 -17.290  -0.589 -0.54 -0.00    +0.000    25.628
ATOM      7  C   UNL     1      23.041 -16.774  -0.832 -0.37 -0.00    +0.000    25.628
ATOM      8  C   UNL     1      24.117 -17.636  -1.091 -0.67 -0.00    +0.000    25.628
ATOM      9  C   UNL     1      23.905 -19.022  -1.085 -0.61 -0.00    +0.000    25.628
ATOM     10  C   UNL     1      22.629 -19.539  -0.844 -0.44 -0.00    +0.000    25.628
ATOM     11  C   UNL     1      19.901 -19.990   0.748 -0.78 -0.00    +0.000    25.628
ATOM     12  C   UNL     1      20.209 -19.277  -0.343 -0.86 -0.00    +0.000    25.628
ATOM     13  O   UNL     1      17.841 -20.828  -0.028 -0.81 -0.00    +0.000    25.628
ATOM     14  C   UNL     1      18.572 -20.596   0.971 -0.78 -0.00    +0.000    25.628
ATOM     15  N   UNL     1      18.107 -20.956   2.279 -0.67 -0.00    +0.000    25.628
ATOM     16  H   UNL     1      18.711 -20.881   3.052 -0.11 -0.00    +0.000    25.628
ATOM     17  O   UNL     1      16.839 -21.400   2.453 -0.77 -0.00    +0.000    25.628
ATOM     18  H   UNL     1      16.466 -21.659   1.596 -0.25 -0.00    +0.000    25.628
ATOM     19  C   UNL     1      25.579 -14.877  -2.366 -0.42 -0.00    +0.000    25.628
ATOM     20  C   UNL     1      27.020 -14.361  -2.213 -0.28 -0.00    +0.000    25.628
ATOM     21  C   UNL     1      27.999 -15.394  -2.691 -0.23 -0.00    +0.000    25.628
ATOM     22  C   UNL     1      28.682 -16.338  -1.922 -0.24 -0.00    +0.000    25.628
ATOM     23  N   UNL     1      29.534 -17.056  -2.691 -0.23 -0.00    +0.000    25.628
ATOM     24  C   UNL     1      29.411 -16.561  -3.935 -0.22 -0.00    +0.000    25.628
ATOM     25  C   UNL     1      28.491 -15.543  -3.974 -0.26 -0.00    +0.000    25.628
ATOM     26  C   UNL     1      28.207 -14.854  -5.153 -0.34 -0.00    +0.000    25.628
ATOM     27  C   UNL     1      28.893 -15.241  -6.320 -0.34 -0.00    +0.000    25.628
ATOM     28  C   UNL     1      29.836 -16.291  -6.282 -0.30 -0.00    +0.000    25.628
ATOM     29  C   UNL     1      30.105 -16.964  -5.075 -0.27 -0.00    +0.000    25.628
ATOM     30  C   UNL     1      28.511 -16.555  -0.452 -0.30 -0.00    +0.000    25.628
ATOM     31  H   UNL     1      30.123 -17.789  -2.399 -0.02 -0.00    +0.000    25.628
TER
ENDMDL
MODEL       37
USER    Run = 37
USER    Cluster Rank = 10
USER    Number of conformations in this cluster = 1
USER  
USER    RMSD from reference structure       = 25.017 A
USER  
USER    Estimated Free Energy of Binding    =  -10.37 kcal/mol  [=(1)+(2)+(3)-(4)]
USER    Estimated Inhibition Constant, Ki   =   25.09 nM (nanomolar)  [Temperature = 298.15 K]
USER    
USER    (1) Final Intermolecular Energy     =  -12.76 kcal/mol
USER        vdW + Hbond + desolv Energy     =  -12.76 kcal/mol
USER        Electrostatic Energy            =   +0.00 kcal/mol
USER    (2) Final Total Internal Energy     =   -2.79 kcal/mol
USER    (3) Torsional Free Energy           =   +2.39 kcal/mol
USER    (4) Unbound System's Energy  [=(2)] =   -2.79 kcal/mol
USER    
USER    
USER  
USER    DPF = ligand_dock.biased.dpf
USER    NEWDPF move	ligand.pdbqt
USER    NEWDPF about	0.693000 0.091000 0.076000
USER    NEWDPF tran0	29.483634 -14.981978 -1.393644
USER    NEWDPF axisangle0	-0.601663 -0.788695 0.126341 -100.795272
USER    NEWDPF quaternion0	-0.463573 -0.607679 0.097344 -0.637456
USER    NEWDPF dihe0	17.98 -170.01 -161.69 -173.41 110.39 -144.02 -172.69 122.03 
USER  
USER                              x       y       z    vdW   Elec        q     RMS 
ATOM      1  N   UNL     1      29.635 -15.346  -2.543 -0.11 -0.00    +0.000    25.017
ATOM      2  H   UNL     1      30.651 -15.406  -2.629 +0.00 -0.00    +0.000    25.017
ATOM      3  H   UNL     1      29.306 -14.391  -2.680 +0.01 -0.00    +0.000    25.017
ATOM      4  C   UNL     1      29.252 -15.762  -1.188 -0.19 -0.00    +0.000    25.017
ATOM      5  C   UNL     1      25.008 -16.565  -0.983 -0.51 -0.00    +0.000    25.017
ATOM      6  C   UNL     1      25.497 -15.253  -0.827 -0.27 -0.00    +0.000    25.017
ATOM      7  C   UNL     1      26.868 -14.995  -0.900 -0.29 -0.00    +0.000    25.017
ATOM      8  C   UNL     1      27.774 -16.037  -1.148 -0.30 -0.00    +0.000    25.017
ATOM      9  C   UNL     1      27.292 -17.344  -1.304 -0.35 -0.00    +0.000    25.017
ATOM     10  C   UNL     1      25.920 -17.603  -1.233 -0.50 -0.00    +0.000    25.017
ATOM     11  C   UNL     1      23.064 -18.105  -1.183 -0.77 -0.00    +0.000    25.017
ATOM     12  C   UNL     1      23.560 -16.887  -0.928 -0.59 -0.00    +0.000    25.017
ATOM     13  O   UNL     1      20.827 -17.539  -0.706 -2.11 +0.00    +0.000    25.017
ATOM     14  C   UNL     1      21.620 -18.414  -1.146 -0.64 -0.00    +0.000    25.017
ATOM     15  N   UNL     1      21.094 -19.659  -1.624 -0.69 -0.00    +0.000    25.017
ATOM     16  H   UNL     1      21.688 -20.304  -2.069 -0.51 -0.00    +0.000    25.017
ATOM     17  O   UNL     1      19.779 -19.950  -1.465 -1.58 -0.00    +0.000    25.017
ATOM     18  H   UNL     1      19.288 -19.134  -1.282 -0.34 -0.00    +0.000    25.017
ATOM     19  C   UNL     1      29.022 -16.187  -3.582 -0.26 -0.00    +0.000    25.017
ATOM     20  C   UNL     1      28.623 -15.382  -4.830 -0.34 -0.00    +0.000    25.017
ATOM     21  C   UNL     1      27.538 -14.399  -4.493 -0.31 -0.00    +0.000    25.017
ATOM     22  C   UNL     1      26.169 -14.650  -4.384 -0.48 -0.00    +0.000    25.017
ATOM     23  N   UNL     1      25.491 -13.505  -4.134 -0.46 -0.00    +0.000    25.017
ATOM     24  C   UNL     1      26.416 -12.530  -4.105 -0.27 -0.00    +0.000    25.017
ATOM     25  C   UNL     1      27.674 -13.035  -4.326 -0.19 -0.00    +0.000    25.017
ATOM     26  C   UNL     1      28.799 -12.211  -4.366 -0.08 -0.00    +0.000    25.017
ATOM     27  C   UNL     1      28.609 -10.831  -4.163 -0.05 -0.00    +0.000    25.017
ATOM     28  C   UNL     1      27.316 -10.312  -3.931 -0.09 -0.00    +0.000    25.017
ATOM     29  C   UNL     1      26.200 -11.167  -3.902 -0.15 -0.00    +0.000    25.017
ATOM     30  C   UNL     1      25.513 -15.988  -4.513 -0.25 -0.00    +0.000    25.017
ATOM     31  H   UNL     1      24.520 -13.406  -4.003 -0.11 -0.00    +0.000    25.017
TER
ENDMDL


AVSFLD: # AVS field file
AVSFLD: #
AVSFLD: # Created by AutoDock
AVSFLD: #
AVSFLD: ndim=2           # number of dimensions in the field
AVSFLD: nspace=1         # number of physical coordinates
AVSFLD: veclen=7         # vector size
AVSFLD: dim1=31          # atoms
AVSFLD: dim2=10          # conformations
AVSFLD: data=Real       # data type (byte,integer,Real,double)
AVSFLD: field=uniform    # field coordinate layout
AVSFLD: label= x y z vdW Elec q RMS
AVSFLD: variable 1 file = ligand_dock.biased.dlg.pdb filetype = ascii offset = 5 stride = 12
AVSFLD: variable 2 file = ligand_dock.biased.dlg.pdb filetype = ascii offset = 6 stride = 12
AVSFLD: variable 3 file = ligand_dock.biased.dlg.pdb filetype = ascii offset = 7 stride = 12
AVSFLD: variable 4 file = ligand_dock.biased.dlg.pdb filetype = ascii offset = 8 stride = 12
AVSFLD: variable 5 file = ligand_dock.biased.dlg.pdb filetype = ascii offset = 9 stride = 12
AVSFLD: variable 6 file = ligand_dock.biased.dlg.pdb filetype = ascii offset = 10 stride = 12
AVSFLD: variable 7 file = ligand_dock.biased.dlg.pdb filetype = ascii offset = 11 stride = 12
AVSFLD: # end of file

>>> Closing the docking parameter file (DPF)...
This docking finished at:			10:18 18" a.m., 11/08/2024


________________________________________________________________________________

autodock4: Successful Completion on "ThinkStation-P620"

Real= 15m 01.80s,  CPU= 15m 01.52s,  System= 0.18s
________________________________________________________________________________

