REMARK  Name = 
REMARK  10 active torsions:
REMARK  status: ('A' for Active; 'I' for Inactive)
REMARK    1  A    between atoms: C_2  and  C_5
REMARK    2  A    between atoms: C_6  and  C_7
REMARK    3  A    between atoms: C_10  and  C_11
REMARK    4  A    between atoms: C_11  and  N_12
REMARK    5  A    between atoms: N_12  and  C_13
REMARK    6  A    between atoms: N_12  and  C_16
REMARK    7  A    between atoms: C_13  and  C_14
REMARK    8  A    between atoms: C_14  and  O_15
REMARK    9  A    between atoms: C_16  and  C_17
REMARK   10  A    between atoms: C_17  and  C_18
REMARK                            x       y       z     vdW  Elec       q    Type
REMARK                         _______ _______ _______ _____ _____    ______ ____
ROOT
ATOM      1  N   UNL     1      -1.017  -0.217  -0.102  0.00  0.00    +0.000 N 
ATOM      2  H   UNL     1      -1.839  -0.189  -0.705  0.00  0.00    +0.000 HD
ENDROOT
BRANCH   1   3
ATOM      3  C   UNL     1       0.120  -0.173  -1.058  0.00  0.00    +0.000 C 
BRANCH   3   7
ATOM      4  C   UNL     1       4.066   0.090   0.738  0.00  0.00    +0.000 A 
ATOM      5  C   UNL     1       3.507  -1.156   0.417  0.00  0.00    +0.000 A 
ATOM      6  C   UNL     1       2.239  -1.241  -0.163  0.00  0.00    +0.000 A 
ATOM      7  C   UNL     1       1.488  -0.080  -0.409  0.00  0.00    +0.000 A 
ATOM      8  C   UNL     1       2.050   1.169  -0.102  0.00  0.00    +0.000 A 
ATOM      9  C   UNL     1       3.319   1.256   0.478  0.00  0.00    +0.000 A 
BRANCH   4  11
ATOM     10  C   UNL     1       6.211   1.202   1.352  0.00  0.00    +0.000 C 
ATOM     11  C   UNL     1       5.411   0.126   1.364  0.00  0.00    +0.000 C 
BRANCH  10  13
ATOM     12  O   UNL     1       7.975   0.167   2.570  0.00  0.00    +0.000 OA
ATOM     13  C   UNL     1       7.548   1.195   1.977  0.00  0.00    +0.000 C 
ATOM     14  N   UNL     1       8.368   2.364   1.912  0.00  0.00    +0.000 N 
ATOM     15  O   UNL     1       9.596   2.373   2.481  0.00  0.00    +0.000 OA
ATOM     16  H   UNL     1       8.037   3.168   1.450  0.00  0.00    +0.000 HD
ENDBRANCH  10  13
ENDBRANCH   4  11
ENDBRANCH   3   7
ENDBRANCH   1   3
BRANCH   1  17
ATOM     17  C   UNL     1      -1.154   0.978   0.761  0.00  0.00    +0.000 C 
BRANCH  17  18
ATOM     18  C   UNL     1      -1.606   2.207  -0.040  0.00  0.00    +0.000 C 
BRANCH  18  19
ATOM     19  O   UNL     1      -2.745   1.914  -0.803  0.00  0.00    +0.000 OA
ATOM     20  H   UNL     1      -2.540   1.202  -1.429  0.00  0.00    +0.000 HD
ENDBRANCH  18  19
ENDBRANCH  17  18
ENDBRANCH   1  17
BRANCH   1  21
ATOM     21  C   UNL     1      -1.105  -1.488   0.655  0.00  0.00    +0.000 C 
BRANCH  21  22
ATOM     22  C   UNL     1      -1.939  -2.515  -0.118  0.00  0.00    +0.000 C 
BRANCH  22  23
ATOM     23  C   UNL     1      -3.340  -2.019  -0.328  0.00  0.00    +0.000 A 
ATOM     24  C   UNL     1      -4.378  -2.067   0.599  0.00  0.00    +0.000 A 
ATOM     25  N   UNL     1      -5.463  -1.411   0.128  0.00  0.00    +0.000 N 
ATOM     26  C   UNL     1      -5.115  -0.937  -1.080  0.00  0.00    +0.000 A 
ATOM     27  C   UNL     1      -3.826  -1.284  -1.393  0.00  0.00    +0.000 A 
ATOM     28  C   UNL     1      -3.224  -0.876  -2.585  0.00  0.00    +0.000 A 
ATOM     29  C   UNL     1      -3.987  -0.093  -3.470  0.00  0.00    +0.000 A 
ATOM     30  C   UNL     1      -5.315   0.263  -3.148  0.00  0.00    +0.000 A 
ATOM     31  C   UNL     1      -5.893  -0.160  -1.937  0.00  0.00    +0.000 A 
ATOM     32  H   UNL     1      -6.331  -1.304   0.580  0.00  0.00    +0.000 HD
ENDBRANCH  22  23
ENDBRANCH  21  22
ENDBRANCH   1  21
TORSDOF 10
