          AutoDock 4.2 Release 4.2.6   
         (C) 1989-2012 The Scripps Research Institute
        AutoDock comes with ABSOLUTELY NO WARRANTY.
        AutoDock is free software, and you are welcome
        to redistribute it under certain conditions;
        for details type 'autodock4 -C'

                     main.cc  $Revision: 1.213 $

                   Compiled on Feb 20 2022 at 09:48:33


This file was created at:			11:05 18" a.m., 11/08/2024
                   on host:		"ThinkStation-P620"
Current Working Directory = "/home/antonio/Documenti/buccheri/IDROSSAMICO HDAC/HDAC 2/DP/Ligand_4"

      ________________________________________________________________

                   SETTING UP DEFAULT PARAMETER LIBRARY
      ________________________________________________________________


Random number generator was seeded with values 333839, 1731060318.
Docking parameter file (DPF) used for this docking:		ligand_dock.biased.dpf
DPF> autodock_parameter_version 4.2       # used by autodock to validate parameter set

	Autodock parameter version 4.2.
DPF> outlev 1                             # diagnostic output level

Output Level = 1  ADT-COMPATIBLE OUTPUT DURING DOCKING.
DPF> intelec                              # calculate internal electrostatics

Electrostatic energies will be calculated for all non-bonds between moving atoms.
DPF> seed pid time                        # seeds for random generator

Random number generator was seeded with values 333839, 1731060318.
DPF> ligand_types A C OA HD N             # atoms types in ligand

DPF> fld receptor.maps.fld                # grid_data_file

Opening Grid Map Dimensions file:		receptor.maps.fld
Grid Point Spacing =				0.375 Angstroms

Even Number of User-specified Grid Points =	70 x-points
						70 y-points
						70 z-points

Coordinates of Central Grid Point of Maps =	(24.757, -16.735, 0.794)
Macromolecule file used to create Grid Maps =	receptor.pdbqt
Grid Parameter file used to create Grid Maps =	receptor.gpf
Minimum coordinates in grid = (11.632, -29.860, -12.331)
Maximum coordinates in grid = (37.882, -3.610, 13.919)

DPF> map receptor.A.map                   # atom-specific affinity map

DPF> map receptor.C.map                   # atom-specific affinity map

DPF> map receptor.OA.biased.map

DPF> map receptor.HD.biased.map

DPF> map receptor.N.map                   # atom-specific affinity map

DPF> elecmap receptor.e.map               # electrostatics map

DPF> desolvmap receptor.d.map             # desolvation map

DPF> move ligand.pdbqt                    # small molecule

1,4-interactions will be _ignored_ in the non-bonded internal energy calculation.

Ligand PDBQT file = "ligand.pdbqt"

INPUT LIGAND PDBQT FILE:
________________________

INPUT-LIGAND-PDBQT: REMARK  Name = 
INPUT-LIGAND-PDBQT: REMARK  10 active torsions:
INPUT-LIGAND-PDBQT: REMARK  status: ('A' for Active; 'I' for Inactive)
INPUT-LIGAND-PDBQT: REMARK    1  A    between atoms: C_2  and  C_5
INPUT-LIGAND-PDBQT: REMARK    2  A    between atoms: C_6  and  C_7
INPUT-LIGAND-PDBQT: REMARK    3  A    between atoms: C_10  and  C_11
INPUT-LIGAND-PDBQT: REMARK    4  A    between atoms: C_11  and  N_12
INPUT-LIGAND-PDBQT: REMARK    5  A    between atoms: N_12  and  C_13
INPUT-LIGAND-PDBQT: REMARK    6  A    between atoms: N_12  and  C_16
INPUT-LIGAND-PDBQT: REMARK    7  A    between atoms: C_13  and  C_14
INPUT-LIGAND-PDBQT: REMARK    8  A    between atoms: C_14  and  O_15
INPUT-LIGAND-PDBQT: REMARK    9  A    between atoms: C_16  and  C_17
INPUT-LIGAND-PDBQT: REMARK   10  A    between atoms: C_17  and  C_18
INPUT-LIGAND-PDBQT: REMARK                            x       y       z     vdW  Elec       q    Type
INPUT-LIGAND-PDBQT: REMARK                         _______ _______ _______ _____ _____    ______ ____
INPUT-LIGAND-PDBQT: ROOT
INPUT-LIGAND-PDBQT: ATOM      1  N   UNL     1      -1.017  -0.217  -0.102  0.00  0.00    +0.000 N 
INPUT-LIGAND-PDBQT: ATOM      2  H   UNL     1      -1.839  -0.189  -0.705  0.00  0.00    +0.000 HD
INPUT-LIGAND-PDBQT: ENDROOT
INPUT-LIGAND-PDBQT: BRANCH   1   3
INPUT-LIGAND-PDBQT: ATOM      3  C   UNL     1       0.120  -0.173  -1.058  0.00  0.00    +0.000 C 
INPUT-LIGAND-PDBQT: BRANCH   3   7
INPUT-LIGAND-PDBQT: ATOM      4  C   UNL     1       4.066   0.090   0.738  0.00  0.00    +0.000 A 
INPUT-LIGAND-PDBQT: ATOM      5  C   UNL     1       3.507  -1.156   0.417  0.00  0.00    +0.000 A 
INPUT-LIGAND-PDBQT: ATOM      6  C   UNL     1       2.239  -1.241  -0.163  0.00  0.00    +0.000 A 
INPUT-LIGAND-PDBQT: ATOM      7  C   UNL     1       1.488  -0.080  -0.409  0.00  0.00    +0.000 A 
INPUT-LIGAND-PDBQT: ATOM      8  C   UNL     1       2.050   1.169  -0.102  0.00  0.00    +0.000 A 
INPUT-LIGAND-PDBQT: ATOM      9  C   UNL     1       3.319   1.256   0.478  0.00  0.00    +0.000 A 
INPUT-LIGAND-PDBQT: BRANCH   4  11
INPUT-LIGAND-PDBQT: ATOM     10  C   UNL     1       6.211   1.202   1.352  0.00  0.00    +0.000 C 
INPUT-LIGAND-PDBQT: ATOM     11  C   UNL     1       5.411   0.126   1.364  0.00  0.00    +0.000 C 
INPUT-LIGAND-PDBQT: BRANCH  10  13
INPUT-LIGAND-PDBQT: ATOM     12  O   UNL     1       7.975   0.167   2.570  0.00  0.00    +0.000 OA
INPUT-LIGAND-PDBQT: ATOM     13  C   UNL     1       7.548   1.195   1.977  0.00  0.00    +0.000 C 
INPUT-LIGAND-PDBQT: ATOM     14  N   UNL     1       8.368   2.364   1.912  0.00  0.00    +0.000 N 
INPUT-LIGAND-PDBQT: ATOM     15  O   UNL     1       9.596   2.373   2.481  0.00  0.00    +0.000 OA
INPUT-LIGAND-PDBQT: ATOM     16  H   UNL     1       8.037   3.168   1.450  0.00  0.00    +0.000 HD
INPUT-LIGAND-PDBQT: ENDBRANCH  10  13
INPUT-LIGAND-PDBQT: ENDBRANCH   4  11
INPUT-LIGAND-PDBQT: ENDBRANCH   3   7
INPUT-LIGAND-PDBQT: ENDBRANCH   1   3
INPUT-LIGAND-PDBQT: BRANCH   1  17
INPUT-LIGAND-PDBQT: ATOM     17  C   UNL     1      -1.154   0.978   0.761  0.00  0.00    +0.000 C 
INPUT-LIGAND-PDBQT: BRANCH  17  18
INPUT-LIGAND-PDBQT: ATOM     18  C   UNL     1      -1.606   2.207  -0.040  0.00  0.00    +0.000 C 
INPUT-LIGAND-PDBQT: BRANCH  18  19
INPUT-LIGAND-PDBQT: ATOM     19  O   UNL     1      -2.745   1.914  -0.803  0.00  0.00    +0.000 OA
INPUT-LIGAND-PDBQT: ATOM     20  H   UNL     1      -2.540   1.202  -1.429  0.00  0.00    +0.000 HD
INPUT-LIGAND-PDBQT: ENDBRANCH  18  19
INPUT-LIGAND-PDBQT: ENDBRANCH  17  18
INPUT-LIGAND-PDBQT: ENDBRANCH   1  17
INPUT-LIGAND-PDBQT: BRANCH   1  21
INPUT-LIGAND-PDBQT: ATOM     21  C   UNL     1      -1.105  -1.488   0.655  0.00  0.00    +0.000 C 
INPUT-LIGAND-PDBQT: BRANCH  21  22
INPUT-LIGAND-PDBQT: ATOM     22  C   UNL     1      -1.939  -2.515  -0.118  0.00  0.00    +0.000 C 
INPUT-LIGAND-PDBQT: BRANCH  22  23
INPUT-LIGAND-PDBQT: ATOM     23  C   UNL     1      -3.340  -2.019  -0.328  0.00  0.00    +0.000 A 
INPUT-LIGAND-PDBQT: ATOM     24  C   UNL     1      -4.378  -2.067   0.599  0.00  0.00    +0.000 A 
INPUT-LIGAND-PDBQT: ATOM     25  N   UNL     1      -5.463  -1.411   0.128  0.00  0.00    +0.000 N 
INPUT-LIGAND-PDBQT: ATOM     26  C   UNL     1      -5.115  -0.937  -1.080  0.00  0.00    +0.000 A 
INPUT-LIGAND-PDBQT: ATOM     27  C   UNL     1      -3.826  -1.284  -1.393  0.00  0.00    +0.000 A 
INPUT-LIGAND-PDBQT: ATOM     28  C   UNL     1      -3.224  -0.876  -2.585  0.00  0.00    +0.000 A 
INPUT-LIGAND-PDBQT: ATOM     29  C   UNL     1      -3.987  -0.093  -3.470  0.00  0.00    +0.000 A 
INPUT-LIGAND-PDBQT: ATOM     30  C   UNL     1      -5.315   0.263  -3.148  0.00  0.00    +0.000 A 
INPUT-LIGAND-PDBQT: ATOM     31  C   UNL     1      -5.893  -0.160  -1.937  0.00  0.00    +0.000 A 
INPUT-LIGAND-PDBQT: ATOM     32  H   UNL     1      -6.331  -1.304   0.580  0.00  0.00    +0.000 HD
INPUT-LIGAND-PDBQT: ENDBRANCH  22  23
INPUT-LIGAND-PDBQT: ENDBRANCH  21  22
INPUT-LIGAND-PDBQT: ENDBRANCH   1  21
INPUT-LIGAND-PDBQT: TORSDOF 10
________________________________________________________________________________

Total charge on ligand                               =	+0.000 e
REMARK  Name = 
REMARK  10 active torsions:
REMARK  status: ('A' for Active; 'I' for Inactive)
REMARK    1  A    between atoms: C_2  and  C_5
REMARK    2  A    between atoms: C_6  and  C_7
REMARK    3  A    between atoms: C_10  and  C_11
REMARK    4  A    between atoms: C_11  and  N_12
REMARK    5  A    between atoms: N_12  and  C_13
REMARK    6  A    between atoms: N_12  and  C_16
REMARK    7  A    between atoms: C_13  and  C_14
REMARK    8  A    between atoms: C_14  and  O_15
REMARK    9  A    between atoms: C_16  and  C_17
REMARK   10  A    between atoms: C_17  and  C_18
REMARK                            x       y       z     vdW  Elec       q    Type
REMARK                         _______ _______ _______ _____ _____    ______ ____


Number of Rotatable Bonds in Small Molecule =	10 torsions
Number of atoms in ligand:  32

Number of non-hydrogen atoms in ligand:  28

Number of vibrational degrees of freedom of ligand:  90


Number of torsional degrees of freedom = 10
Estimated loss of torsional free energy upon binding = +2.9830 kcal/mol


DPF> about 0.285 0.077 -0.044            # small molecule center

Small molecule center of rotation =	(+0.285, +0.077, -0.044)

DPF> tran0 random                         # initial coordinates/A or random

Initial translation =			(35.069, -19.781, -6.273) Angstroms
DPF> quaternion0 random                   # initial orientation

Each run will begin with a new, random initial orientation.
Initial quaternion,  (x,y,z,w) =	( 0.498, 0.470, -0.604, 0.408 ),
DPF> dihe0 random                         # initial dihedrals (relative) or random

DPF> torsdof 10                            # torsional degrees of freedom

Number of torsional degrees of freedom = 10
Free energy coefficient for torsional degrees of freedom = 0.2983, the factory default value.

Estimated loss of torsional free energy upon binding = +2.9830 kcal/mol

DPF> rmstol 2.0                           # cluster_tolerance/A

Maximum RMS tolerance for conformational cluster analysis = 2.00 Angstroms
DPF> extnrg 1000.0                        # external grid energy

External grid energy (beyond grid map walls) = 1000.00

DPF> e0max 0.0 10000                      # max initial energy; max number of retries

Using user-specified maximum number of retries for simanneal initialization, 10000 retries.
If the simanneal initial energy is greater than e0max, 0.000,
then a new, random initial state will be created.

DPF> ga_pop_size 150                      # number of individuals in population

A population of 150 individuals will be used
DPF> ga_num_evals 2500000                 # maximum number of energy evaluations

There will be at most 2500000 function evaluations used.
DPF> ga_num_generations 27000             # maximum number of generations

The GA will run for at most 27000 generations.
DPF> ga_elitism 1                         # number of top individuals to survive to next generation

The 1 best will be preserved each GA generation.
DPF> ga_mutation_rate 0.02                # rate of gene mutation

The mutation rate is 0.020000.
DPF> ga_crossover_rate 0.8                # rate of crossover

The crossover rate is 0.800000.
DPF> ga_window_size 10                    # 

The GA's selection window is 10 generations.
DPF> ga_cauchy_alpha 0.0                  # Alpha parameter of Cauchy distribution

The alpha parameter (for the Cauchy distribution) is being set to 0.000000.
DPF> ga_cauchy_beta 1.0                   # Beta parameter Cauchy distribution

The beta parameter (for the Cauchy distribution) is being set to 1.000000.
DPF> set_ga                               # set the above parameters for GA or LGA

DPF> sw_max_its 300                       # iterations of Solis & Wets local search

Solis & Wets algorithms will perform at most 300 iterations.
DPF> sw_max_succ 4                        # consecutive successes before changing rho

Solis & Wets algorithms expand rho every 4 in a row successes.
DPF> sw_max_fail 4                        # consecutive failures before changing rho

Solis & Wets algorithms contract rho every 4 in a row failures.
DPF> sw_rho 1.0                           # size of local search space to sample

rho is set to 1.000000.
DPF> sw_lb_rho 0.01                       # lower bound on rho

rho will never get smaller than 0.010000.
DPF> ls_search_freq 0.06                  # probability of performing local search on individual

Local search will be performed with frequency 0.060000.
DPF> set_psw1                             # set the above pseudo-Solis & Wets parameters

Creating a new Local Search object using the pseudo-Solis-Wets algorithm (pSW1) with the current settings.

DPF> unbound_model bound                  # state of unbound ligand

DPF> ga_run 100

centering ligand on specified point: 0.285 0.077 -0.044
Furthest true ligand atom from "about" center is 9.917 Angstroms (maxrad).
Number of requested GA dockings = 100 runs
Unbound model to be used is 'same as bound' [AutoDock 4.2 default].

	BEGINNING GENETIC ALGORITHM DOCKING 1 of 100
Run: 1 Seed: 1672235821 1417577023 [ Run 1 of 100 GA/GALS ]
Beginning LAMARCKIAN GENETIC ALGORITHM (LGA), with a maximum of 2500000 energy evaluations.

Final-Value: -15.686


	FINAL GENETIC ALGORITHM DOCKED STATE
	_______________________________________________


Detailed state:  trans 27.132 -15.594 -0.478 quatxyzw -0.195734 0.562423 0.707183 0.381132 center 0.285 0.077 -0.044 ntor 10 -69.2243 100.6456 -64.0098 17.9460 -173.8578 -133.3142 -178.5244 -59.1405 160.3101 23.9101
State:	 27.132 -15.594  -0.478  -0.212  0.608  0.765 135.192    -69.22  100.65  -64.01   17.95 -173.86 -133.31 -178.52  -59.14  160.31   23.91

DOCKED: MODEL        1
DOCKED: USER    Run = 1
DOCKED: USER    DPF = ligand_dock.biased.dpf
DOCKED: USER  
DOCKED: USER    Estimated Free Energy of Binding    =  -11.20 kcal/mol  [=(1)+(2)+(3)-(4)]
DOCKED: USER    Estimated Inhibition Constant, Ki   =    6.18 nM (nanomolar)  [Temperature = 298.15 K]
DOCKED: USER    
DOCKED: USER    (1) Final Intermolecular Energy     =  -14.18 kcal/mol
DOCKED: USER        vdW + Hbond + desolv Energy     =  -14.18 kcal/mol
DOCKED: USER        Electrostatic Energy            =   +0.00 kcal/mol
DOCKED: USER    (2) Final Total Internal Energy     =   -1.50 kcal/mol
DOCKED: USER    (3) Torsional Free Energy           =   +2.98 kcal/mol
DOCKED: USER    (4) Unbound System's Energy  [=(2)] =   -1.50 kcal/mol
DOCKED: USER    
DOCKED: USER    
DOCKED: USER    NEWDPF move ligand.pdbqt
DOCKED: USER    NEWDPF about 0.285000 0.077000 -0.044000
DOCKED: USER    NEWDPF tran0 27.131533 -15.594254 -0.478328
DOCKED: USER    NEWDPF quaternion0 -0.195734 0.562423 0.707183 0.381132
DOCKED: USER    NEWDPF axisangle0 -0.211714 0.608340 0.764918 135.192401
DOCKED: USER    NEWDPF quat0 -0.211714 0.608340 0.764918 135.192401
DOCKED: USER    NEWDPF dihe0 -69.22 100.65 -64.01 17.95 -173.86 -133.31 -178.52 -59.14 160.31 23.91 
DOCKED: USER  keepresnum = 1 
DOCKED: USER  
DOCKED: REMARK  Name = 
DOCKED: REMARK  10 active torsions:
DOCKED: REMARK  status: ('A' for Active; 'I' for Inactive)
DOCKED: REMARK    1  A    between atoms: C_2  and  C_5
DOCKED: REMARK    2  A    between atoms: C_6  and  C_7
DOCKED: REMARK    3  A    between atoms: C_10  and  C_11
DOCKED: REMARK    4  A    between atoms: C_11  and  N_12
DOCKED: REMARK    5  A    between atoms: N_12  and  C_13
DOCKED: REMARK    6  A    between atoms: N_12  and  C_16
DOCKED: REMARK    7  A    between atoms: C_13  and  C_14
DOCKED: REMARK    8  A    between atoms: C_14  and  O_15
DOCKED: REMARK    9  A    between atoms: C_16  and  C_17
DOCKED: REMARK   10  A    between atoms: C_17  and  C_18
DOCKED: REMARK                            x       y       z     vdW  Elec       q    Type
DOCKED: REMARK                         _______ _______ _______ _____ _____    ______ ____
DOCKED: USER                              x       y       z     vdW  Elec       q    Type
DOCKED: USER                           _______ _______ _______ _____ _____    ______ ____
DOCKED: ROOT
DOCKED: ATOM      1  N   UNL     1      27.903 -14.621  -0.971 -0.17 -0.00    +0.000 N 
DOCKED: ATOM      2  H   UNL     1      28.857 -14.388  -1.244 +0.01 -0.00    +0.000 HD
DOCKED: ENDROOT
DOCKED: BRANCH   1   3
DOCKED: ATOM      3  C   UNL     1      27.872 -16.105  -1.034 -0.34 -0.00    +0.000 C 
DOCKED: BRANCH   3   7
DOCKED: ATOM      4  C   UNL     1      23.863 -17.766  -1.230 -0.67 -0.00    +0.000 A 
DOCKED: ATOM      5  C   UNL     1      24.622 -17.864  -0.054 -0.56 -0.00    +0.000 A 
DOCKED: ATOM      6  C   UNL     1      25.910 -17.328   0.010 -0.36 -0.00    +0.000 A 
DOCKED: ATOM      7  C   UNL     1      26.481 -16.705  -1.113 -0.45 -0.00    +0.000 A 
DOCKED: ATOM      8  C   UNL     1      25.719 -16.593  -2.286 -0.47 -0.00    +0.000 A 
DOCKED: ATOM      9  C   UNL     1      24.429 -17.129  -2.352 +0.08 -0.00    +0.000 A 
DOCKED: BRANCH   4  11
DOCKED: ATOM     10  C   UNL     1      22.056 -19.229  -0.332 -0.75 -0.00    +0.000 C 
DOCKED: ATOM     11  C   UNL     1      22.505 -18.363  -1.251 -0.71 -0.00    +0.000 C 
DOCKED: BRANCH  10  13
DOCKED: ATOM     12  O   UNL     1      20.030 -19.765  -1.460 -2.25 -0.00    +0.000 OA
DOCKED: ATOM     13  C   UNL     1      20.700 -19.810  -0.393 -0.80 -0.00    +0.000 C 
DOCKED: ATOM     14  N   UNL     1      20.140 -20.429   0.767 -0.68 -0.00    +0.000 N 
DOCKED: ATOM     15  O   UNL     1      18.898 -20.965   0.726 -0.82 -0.00    +0.000 OA
DOCKED: ATOM     16  H   UNL     1      20.661 -20.465   1.601 -0.56 -0.00    +0.000 HD
DOCKED: ENDBRANCH  10  13
DOCKED: ENDBRANCH   4  11
DOCKED: ENDBRANCH   3   7
DOCKED: ENDBRANCH   1   3
DOCKED: BRANCH   1  17
DOCKED: ATOM     17  C   UNL     1      27.762 -14.051   0.388 -0.24 -0.00    +0.000 C 
DOCKED: BRANCH  17  18
DOCKED: ATOM     18  C   UNL     1      27.757 -15.145   1.464 +0.06 -0.00    +0.000 C 
DOCKED: BRANCH  18  19
DOCKED: ATOM     19  O   UNL     1      28.250 -14.652   2.680 -0.34 -0.00    +0.000 OA
DOCKED: ATOM     20  H   UNL     1      28.932 -15.251   3.019 -1.86 -0.00    +0.000 HD
DOCKED: ENDBRANCH  18  19
DOCKED: ENDBRANCH  17  18
DOCKED: ENDBRANCH   1  17
DOCKED: BRANCH   1  21
DOCKED: ATOM     21  C   UNL     1      27.019 -13.967  -1.965 -0.25 -0.00    +0.000 C 
DOCKED: BRANCH  21  22
DOCKED: ATOM     22  C   UNL     1      27.624 -12.637  -2.426 -0.14 -0.00    +0.000 C 
DOCKED: BRANCH  22  23
DOCKED: ATOM     23  C   UNL     1      27.858 -12.640  -3.909 -0.14 -0.00    +0.000 A 
DOCKED: ATOM     24  C   UNL     1      27.742 -11.547  -4.763 -0.12 -0.00    +0.000 A 
DOCKED: ATOM     25  N   UNL     1      28.156 -11.874  -6.009 -0.14 -0.00    +0.000 N 
DOCKED: ATOM     26  C   UNL     1      28.546 -13.158  -5.945 -0.21 -0.00    +0.000 A 
DOCKED: ATOM     27  C   UNL     1      28.382 -13.661  -4.680 -0.18 -0.00    +0.000 A 
DOCKED: ATOM     28  C   UNL     1      28.751 -14.968  -4.355 -0.23 -0.00    +0.000 A 
DOCKED: ATOM     29  C   UNL     1      29.297 -15.767  -5.376 -0.30 -0.00    +0.000 A 
DOCKED: ATOM     30  C   UNL     1      29.464 -15.250  -6.679 -0.30 -0.00    +0.000 A 
DOCKED: ATOM     31  C   UNL     1      29.086 -13.927  -6.974 -0.30 -0.00    +0.000 A 
DOCKED: ATOM     32  H   UNL     1      28.168 -11.289  -6.800 +0.00 -0.00    +0.000 HD
DOCKED: ENDBRANCH  22  23
DOCKED: ENDBRANCH  21  22
DOCKED: ENDBRANCH   1  21
DOCKED: TORSDOF 10
DOCKED: TER
DOCKED: ENDMDL
________________________________________________________________________________


	BEGINNING GENETIC ALGORITHM DOCKING 2 of 100
Run: 2 Seed: 1917326473 824555481 [ Run 2 of 100 GA/GALS ]
Beginning LAMARCKIAN GENETIC ALGORITHM (LGA), with a maximum of 2500000 energy evaluations.

Final-Value: -16.710


	FINAL GENETIC ALGORITHM DOCKED STATE
	_______________________________________________


Detailed state:  trans 27.662 -15.725 -0.409 quatxyzw 0.062713 -0.290685 -0.813170 -0.500324 center 0.285 0.077 -0.044 ntor 10 127.8416 -24.6248 62.9059 142.5172 -92.2703 144.4646 153.8541 -174.5158 -19.9530 33.3292
State:	 27.662 -15.725  -0.409   0.072 -0.336 -0.939 -119.957    127.84  -24.62   62.91  142.52  -92.27  144.46  153.85 -174.52  -19.95   33.33

DOCKED: MODEL        2
DOCKED: USER    Run = 2
DOCKED: USER    DPF = ligand_dock.biased.dpf
DOCKED: USER  
DOCKED: USER    Estimated Free Energy of Binding    =  -11.32 kcal/mol  [=(1)+(2)+(3)-(4)]
DOCKED: USER    Estimated Inhibition Constant, Ki   =    5.02 nM (nanomolar)  [Temperature = 298.15 K]
DOCKED: USER    
DOCKED: USER    (1) Final Intermolecular Energy     =  -14.31 kcal/mol
DOCKED: USER        vdW + Hbond + desolv Energy     =  -14.31 kcal/mol
DOCKED: USER        Electrostatic Energy            =   +0.00 kcal/mol
DOCKED: USER    (2) Final Total Internal Energy     =   -2.40 kcal/mol
DOCKED: USER    (3) Torsional Free Energy           =   +2.98 kcal/mol
DOCKED: USER    (4) Unbound System's Energy  [=(2)] =   -2.40 kcal/mol
DOCKED: USER    
DOCKED: USER    
DOCKED: USER    NEWDPF move ligand.pdbqt
DOCKED: USER    NEWDPF about 0.285000 0.077000 -0.044000
DOCKED: USER    NEWDPF tran0 27.661698 -15.724594 -0.408624
DOCKED: USER    NEWDPF quaternion0 0.062713 -0.290685 -0.813170 -0.500324
DOCKED: USER    NEWDPF axisangle0 0.072431 -0.335727 -0.939171 -119.957142
DOCKED: USER    NEWDPF quat0 0.072431 -0.335727 -0.939171 -119.957142
DOCKED: USER    NEWDPF dihe0 127.84 -24.62 62.91 142.52 -92.27 144.46 153.85 -174.52 -19.95 33.33 
DOCKED: USER  keepresnum = 1 
DOCKED: USER  
DOCKED: REMARK  Name = 
DOCKED: REMARK  10 active torsions:
DOCKED: REMARK  status: ('A' for Active; 'I' for Inactive)
DOCKED: REMARK    1  A    between atoms: C_2  and  C_5
DOCKED: REMARK    2  A    between atoms: C_6  and  C_7
DOCKED: REMARK    3  A    between atoms: C_10  and  C_11
DOCKED: REMARK    4  A    between atoms: C_11  and  N_12
DOCKED: REMARK    5  A    between atoms: N_12  and  C_13
DOCKED: REMARK    6  A    between atoms: N_12  and  C_16
DOCKED: REMARK    7  A    between atoms: C_13  and  C_14
DOCKED: REMARK    8  A    between atoms: C_14  and  O_15
DOCKED: REMARK    9  A    between atoms: C_16  and  C_17
DOCKED: REMARK   10  A    between atoms: C_17  and  C_18
DOCKED: REMARK                            x       y       z     vdW  Elec       q    Type
DOCKED: REMARK                         _______ _______ _______ _____ _____    ______ ____
DOCKED: USER                              x       y       z     vdW  Elec       q    Type
DOCKED: USER                           _______ _______ _______ _____ _____    ______ ____
DOCKED: ROOT
DOCKED: ATOM      1  N   UNL     1      28.096 -14.544  -0.860 -0.16 -0.00    +0.000 N 
DOCKED: ATOM      2  H   UNL     1      28.759 -14.102  -1.496 +0.01 -0.00    +0.000 HD
DOCKED: ENDROOT
DOCKED: BRANCH   1   3
DOCKED: ATOM      3  C   UNL     1      27.947 -15.917  -1.408 -0.30 -0.00    +0.000 C 
DOCKED: BRANCH   3   7
DOCKED: ATOM      4  C   UNL     1      24.118 -17.824  -0.653 -0.68 -0.00    +0.000 A 
DOCKED: ATOM      5  C   UNL     1      24.226 -16.778  -1.582 -0.50 -0.00    +0.000 A 
DOCKED: ATOM      6  C   UNL     1      25.458 -16.166  -1.827 -0.50 -0.00    +0.000 A 
DOCKED: ATOM      7  C   UNL     1      26.606 -16.569  -1.126 -0.43 -0.00    +0.000 A 
DOCKED: ATOM      8  C   UNL     1      26.504 -17.624  -0.206 -0.52 -0.00    +0.000 A 
DOCKED: ATOM      9  C   UNL     1      25.272 -18.238   0.040 -0.59 -0.00    +0.000 A 
DOCKED: BRANCH   4  11
DOCKED: ATOM     10  C   UNL     1      22.119 -19.146  -1.340 -0.70 -0.00    +0.000 C 
DOCKED: ATOM     11  C   UNL     1      22.784 -18.432  -0.420 -0.83 -0.00    +0.000 C 
DOCKED: BRANCH  10  13
DOCKED: ATOM     12  O   UNL     1      19.899 -19.734  -1.967 -2.37 -0.00    +0.000 OA
DOCKED: ATOM     13  C   UNL     1      20.788 -19.726  -1.073 -0.79 -0.00    +0.000 C 
DOCKED: ATOM     14  N   UNL     1      20.502 -20.284   0.212 -0.68 -0.00    +0.000 N 
DOCKED: ATOM     15  O   UNL     1      19.286 -20.819   0.472 -0.91 -0.00    +0.000 OA
DOCKED: ATOM     16  H   UNL     1      21.194 -20.279   0.912 -0.56 -0.00    +0.000 HD
DOCKED: ENDBRANCH  10  13
DOCKED: ENDBRANCH   4  11
DOCKED: ENDBRANCH   3   7
DOCKED: ENDBRANCH   1   3
DOCKED: BRANCH   1  17
DOCKED: ATOM     17  C   UNL     1      28.753 -14.469   0.465 -0.20 -0.00    +0.000 C 
DOCKED: BRANCH  17  18
DOCKED: ATOM     18  C   UNL     1      29.845 -13.390   0.495 -0.07 -0.00    +0.000 C 
DOCKED: BRANCH  18  19
DOCKED: ATOM     19  O   UNL     1      29.573 -12.379  -0.437 -0.04 -0.00    +0.000 OA
DOCKED: ATOM     20  H   UNL     1      28.780 -11.892  -0.164 +0.00 -0.00    +0.000 HD
DOCKED: ENDBRANCH  18  19
DOCKED: ENDBRANCH  17  18
DOCKED: ENDBRANCH   1  17
DOCKED: BRANCH   1  21
DOCKED: ATOM     21  C   UNL     1      26.854 -13.739  -0.934 -0.25 -0.00    +0.000 C 
DOCKED: BRANCH  21  22
DOCKED: ATOM     22  C   UNL     1      26.109 -13.780   0.405 -0.24 -0.00    +0.000 C 
DOCKED: BRANCH  22  23
DOCKED: ATOM     23  C   UNL     1      26.506 -12.622   1.274 -0.31 -0.00    +0.000 A 
DOCKED: ATOM     24  C   UNL     1      26.294 -11.274   0.997 -0.31 +0.00    +0.000 A 
DOCKED: ATOM     25  N   UNL     1      26.653 -10.512   2.056 -0.31 +0.00    +0.000 N 
DOCKED: ATOM     26  C   UNL     1      27.075 -11.367   3.002 -0.25 +0.00    +0.000 A 
DOCKED: ATOM     27  C   UNL     1      26.998 -12.664   2.565 -0.29 -0.00    +0.000 A 
DOCKED: ATOM     28  C   UNL     1      27.349 -13.738   3.385 -0.40 -0.00    +0.000 A 
DOCKED: ATOM     29  C   UNL     1      27.794 -13.450   4.688 -0.47 -0.00    +0.000 A 
DOCKED: ATOM     30  C   UNL     1      27.876 -12.114   5.137 -0.36 +0.00    +0.000 A 
DOCKED: ATOM     31  C   UNL     1      27.511 -11.053   4.289 -0.27 +0.00    +0.000 A 
DOCKED: ATOM     32  H   UNL     1      26.613  -9.531   2.118 -0.02 +0.00    +0.000 HD
DOCKED: ENDBRANCH  22  23
DOCKED: ENDBRANCH  21  22
DOCKED: ENDBRANCH   1  21
DOCKED: TORSDOF 10
DOCKED: TER
DOCKED: ENDMDL
________________________________________________________________________________


	BEGINNING GENETIC ALGORITHM DOCKING 3 of 100
Run: 3 Seed: 495565915 278443941 [ Run 3 of 100 GA/GALS ]
Beginning LAMARCKIAN GENETIC ALGORITHM (LGA), with a maximum of 2500000 energy evaluations.

Final-Value: -17.992


	FINAL GENETIC ALGORITHM DOCKED STATE
	_______________________________________________


Detailed state:  trans 28.877 -15.799 -1.095 quatxyzw -0.461809 0.624623 0.362998 -0.514597 center 0.285 0.077 -0.044 ntor 10 15.7739 -8.9875 46.3268 -6.1583 -170.5162 -150.0992 -21.8856 73.8704 175.0597 -102.5993
State:	 28.877 -15.799  -1.095  -0.539  0.728  0.423 -118.059     15.77   -8.99   46.33   -6.16 -170.52 -150.10  -21.89   73.87  175.06 -102.60

DOCKED: MODEL        3
DOCKED: USER    Run = 3
DOCKED: USER    DPF = ligand_dock.biased.dpf
DOCKED: USER  
DOCKED: USER    Estimated Free Energy of Binding    =  -12.72 kcal/mol  [=(1)+(2)+(3)-(4)]
DOCKED: USER    Estimated Inhibition Constant, Ki   =  474.45 pM (picomolar)  [Temperature = 298.15 K]
DOCKED: USER    
DOCKED: USER    (1) Final Intermolecular Energy     =  -15.70 kcal/mol
DOCKED: USER        vdW + Hbond + desolv Energy     =  -15.70 kcal/mol
DOCKED: USER        Electrostatic Energy            =   +0.00 kcal/mol
DOCKED: USER    (2) Final Total Internal Energy     =   -2.29 kcal/mol
DOCKED: USER    (3) Torsional Free Energy           =   +2.98 kcal/mol
DOCKED: USER    (4) Unbound System's Energy  [=(2)] =   -2.29 kcal/mol
DOCKED: USER    
DOCKED: USER    
DOCKED: USER    NEWDPF move ligand.pdbqt
DOCKED: USER    NEWDPF about 0.285000 0.077000 -0.044000
DOCKED: USER    NEWDPF tran0 28.876950 -15.798754 -1.094994
DOCKED: USER    NEWDPF quaternion0 -0.461809 0.624623 0.362998 -0.514597
DOCKED: USER    NEWDPF axisangle0 -0.538596 0.728482 0.423355 -118.058921
DOCKED: USER    NEWDPF quat0 -0.538596 0.728482 0.423355 -118.058921
DOCKED: USER    NEWDPF dihe0 15.77 -8.99 46.33 -6.16 -170.52 -150.10 -21.89 73.87 175.06 -102.60 
DOCKED: USER  keepresnum = 1 
DOCKED: USER  
DOCKED: REMARK  Name = 
DOCKED: REMARK  10 active torsions:
DOCKED: REMARK  status: ('A' for Active; 'I' for Inactive)
DOCKED: REMARK    1  A    between atoms: C_2  and  C_5
DOCKED: REMARK    2  A    between atoms: C_6  and  C_7
DOCKED: REMARK    3  A    between atoms: C_10  and  C_11
DOCKED: REMARK    4  A    between atoms: C_11  and  N_12
DOCKED: REMARK    5  A    between atoms: N_12  and  C_13
DOCKED: REMARK    6  A    between atoms: N_12  and  C_16
DOCKED: REMARK    7  A    between atoms: C_13  and  C_14
DOCKED: REMARK    8  A    between atoms: C_14  and  O_15
DOCKED: REMARK    9  A    between atoms: C_16  and  C_17
DOCKED: REMARK   10  A    between atoms: C_17  and  C_18
DOCKED: REMARK                            x       y       z     vdW  Elec       q    Type
DOCKED: REMARK                         _______ _______ _______ _____ _____    ______ ____
DOCKED: USER                              x       y       z     vdW  Elec       q    Type
DOCKED: USER                           _______ _______ _______ _____ _____    ______ ____
DOCKED: ROOT
DOCKED: ATOM      1  N   UNL     1      29.196 -15.679   0.197 -0.18 -0.00    +0.000 N 
DOCKED: ATOM      2  H   UNL     1      29.020 -16.063   1.125 -0.80 -0.00    +0.000 HD
DOCKED: ENDROOT
DOCKED: BRANCH   1   3
DOCKED: ATOM      3  C   UNL     1      28.810 -16.784  -0.718 -0.30 -0.00    +0.000 C 
DOCKED: BRANCH   3   7
DOCKED: ATOM      4  C   UNL     1      24.523 -17.442  -0.954 -0.64 -0.00    +0.000 A 
DOCKED: ATOM      5  C   UNL     1      25.306 -18.150  -0.030 -0.59 -0.00    +0.000 A 
DOCKED: ATOM      6  C   UNL     1      26.685 -17.937   0.048 -0.48 -0.00    +0.000 A 
DOCKED: ATOM      7  C   UNL     1      27.316 -17.030  -0.819 -0.41 -0.00    +0.000 A 
DOCKED: ATOM      8  C   UNL     1      26.533 -16.309  -1.734 -0.41 -0.00    +0.000 A 
DOCKED: ATOM      9  C   UNL     1      25.154 -16.521  -1.813 -0.54 -0.00    +0.000 A 
DOCKED: BRANCH   4  11
DOCKED: ATOM     10  C   UNL     1      22.475 -18.744  -0.382 -0.82 -0.00    +0.000 C 
DOCKED: ATOM     11  C   UNL     1      23.065 -17.714  -1.006 -0.76 -0.00    +0.000 C 
DOCKED: BRANCH  10  13
DOCKED: ATOM     12  O   UNL     1      20.261 -18.148  -1.021 -2.13 -0.00    +0.000 OA
DOCKED: ATOM     13  C   UNL     1      21.022 -18.987  -0.466 -0.87 -0.00    +0.000 C 
DOCKED: ATOM     14  N   UNL     1      20.469 -20.184   0.086 -0.71 -0.00    +0.000 N 
DOCKED: ATOM     15  O   UNL     1      19.139 -20.421   0.017 -1.10 -0.00    +0.000 OA
DOCKED: ATOM     16  H   UNL     1      21.061 -20.841   0.520 -0.52 -0.00    +0.000 HD
DOCKED: ENDBRANCH  10  13
DOCKED: ENDBRANCH   4  11
DOCKED: ENDBRANCH   3   7
DOCKED: ENDBRANCH   1   3
DOCKED: BRANCH   1  17
DOCKED: ATOM     17  C   UNL     1      28.331 -14.479   0.126 -0.21 -0.00    +0.000 C 
DOCKED: BRANCH  17  18
DOCKED: ATOM     18  C   UNL     1      27.597 -14.231   1.451 -0.29 -0.00    +0.000 C 
DOCKED: BRANCH  18  19
DOCKED: ATOM     19  O   UNL     1      28.454 -14.431   2.542 -0.34 -0.00    +0.000 OA
DOCKED: ATOM     20  H   UNL     1      28.962 -15.247   2.408 -1.93 -0.00    +0.000 HD
DOCKED: ENDBRANCH  18  19
DOCKED: ENDBRANCH  17  18
DOCKED: ENDBRANCH   1  17
DOCKED: BRANCH   1  21
DOCKED: ATOM     21  C   UNL     1      30.640 -15.352   0.154 -0.12 -0.00    +0.000 C 
DOCKED: BRANCH  21  22
DOCKED: ATOM     22  C   UNL     1      31.420 -16.464  -0.556 -0.12 -0.00    +0.000 C 
DOCKED: BRANCH  22  23
DOCKED: ATOM     23  C   UNL     1      31.728 -17.589   0.388 -0.13 -0.00    +0.000 A 
DOCKED: ATOM     24  C   UNL     1      31.475 -18.941   0.169 -0.11 -0.00    +0.000 A 
DOCKED: ATOM     25  N   UNL     1      32.002 -19.688   1.165 -0.18 -0.00    +0.000 N 
DOCKED: ATOM     26  C   UNL     1      32.599 -18.824   2.002 -0.17 -0.00    +0.000 A 
DOCKED: ATOM     27  C   UNL     1      32.457 -17.533   1.562 -0.15 -0.00    +0.000 A 
DOCKED: ATOM     28  C   UNL     1      33.023 -16.456   2.247 -0.14 -0.00    +0.000 A 
DOCKED: ATOM     29  C   UNL     1      33.748 -16.734   3.420 -0.15 -0.00    +0.000 A 
DOCKED: ATOM     30  C   UNL     1      33.893 -18.063   3.874 -0.21 -0.00    +0.000 A 
DOCKED: ATOM     31  C   UNL     1      33.314 -19.128   3.159 -0.22 -0.00    +0.000 A 
DOCKED: ATOM     32  H   UNL     1      31.957 -20.668   1.256 -0.00 -0.00    +0.000 HD
DOCKED: ENDBRANCH  22  23
DOCKED: ENDBRANCH  21  22
DOCKED: ENDBRANCH   1  21
DOCKED: TORSDOF 10
DOCKED: TER
DOCKED: ENDMDL
________________________________________________________________________________


	BEGINNING GENETIC ALGORITHM DOCKING 4 of 100
Run: 4 Seed: 1141625431 1813410868 [ Run 4 of 100 GA/GALS ]
Beginning LAMARCKIAN GENETIC ALGORITHM (LGA), with a maximum of 2500000 energy evaluations.

Final-Value: -15.900


	FINAL GENETIC ALGORITHM DOCKED STATE
	_______________________________________________


Detailed state:  trans 29.848 -16.505 -0.940 quatxyzw 0.777740 -0.137473 0.609735 -0.066673 center 0.285 0.077 -0.044 ntor 10 -24.6983 61.4273 -126.8202 -165.8645 -171.4723 -174.5372 120.2874 -37.6790 -177.6906 -129.2024
State:	 29.848 -16.505  -0.940   0.779 -0.138  0.611 -172.354    -24.70   61.43 -126.82 -165.86 -171.47 -174.54  120.29  -37.68 -177.69 -129.20

DOCKED: MODEL        4
DOCKED: USER    Run = 4
DOCKED: USER    DPF = ligand_dock.biased.dpf
DOCKED: USER  
DOCKED: USER    Estimated Free Energy of Binding    =  -10.46 kcal/mol  [=(1)+(2)+(3)-(4)]
DOCKED: USER    Estimated Inhibition Constant, Ki   =   21.63 nM (nanomolar)  [Temperature = 298.15 K]
DOCKED: USER    
DOCKED: USER    (1) Final Intermolecular Energy     =  -13.44 kcal/mol
DOCKED: USER        vdW + Hbond + desolv Energy     =  -13.44 kcal/mol
DOCKED: USER        Electrostatic Energy            =   +0.00 kcal/mol
DOCKED: USER    (2) Final Total Internal Energy     =   -2.46 kcal/mol
DOCKED: USER    (3) Torsional Free Energy           =   +2.98 kcal/mol
DOCKED: USER    (4) Unbound System's Energy  [=(2)] =   -2.46 kcal/mol
DOCKED: USER    
DOCKED: USER    
DOCKED: USER    NEWDPF move ligand.pdbqt
DOCKED: USER    NEWDPF about 0.285000 0.077000 -0.044000
DOCKED: USER    NEWDPF tran0 29.847915 -16.504590 -0.939591
DOCKED: USER    NEWDPF quaternion0 0.777740 -0.137473 0.609735 -0.066673
DOCKED: USER    NEWDPF axisangle0 0.779474 -0.137780 0.611095 -172.354158
DOCKED: USER    NEWDPF quat0 0.779474 -0.137780 0.611095 -172.354158
DOCKED: USER    NEWDPF dihe0 -24.70 61.43 -126.82 -165.86 -171.47 -174.54 120.29 -37.68 -177.69 -129.20 
DOCKED: USER  keepresnum = 1 
DOCKED: USER  
DOCKED: REMARK  Name = 
DOCKED: REMARK  10 active torsions:
DOCKED: REMARK  status: ('A' for Active; 'I' for Inactive)
DOCKED: REMARK    1  A    between atoms: C_2  and  C_5
DOCKED: REMARK    2  A    between atoms: C_6  and  C_7
DOCKED: REMARK    3  A    between atoms: C_10  and  C_11
DOCKED: REMARK    4  A    between atoms: C_11  and  N_12
DOCKED: REMARK    5  A    between atoms: N_12  and  C_13
DOCKED: REMARK    6  A    between atoms: N_12  and  C_16
DOCKED: REMARK    7  A    between atoms: C_13  and  C_14
DOCKED: REMARK    8  A    between atoms: C_14  and  O_15
DOCKED: REMARK    9  A    between atoms: C_16  and  C_17
DOCKED: REMARK   10  A    between atoms: C_17  and  C_18
DOCKED: REMARK                            x       y       z     vdW  Elec       q    Type
DOCKED: REMARK                         _______ _______ _______ _____ _____    ______ ____
DOCKED: USER                              x       y       z     vdW  Elec       q    Type
DOCKED: USER                           _______ _______ _______ _____ _____    ______ ____
DOCKED: ROOT
DOCKED: ATOM      1  N   UNL     1      29.596 -16.036  -2.165 -0.16 -0.00    +0.000 N 
DOCKED: ATOM      2  H   UNL     1      28.847 -15.790  -2.812 +0.00 -0.00    +0.000 HD
DOCKED: ENDROOT
DOCKED: BRANCH   1   3
DOCKED: ATOM      3  C   UNL     1      28.943 -15.969  -0.832 -0.24 -0.00    +0.000 C 
DOCKED: BRANCH   3   7
DOCKED: ATOM      4  C   UNL     1      25.062 -17.916  -0.690 -0.64 -0.00    +0.000 A 
DOCKED: ATOM      5  C   UNL     1      25.182 -16.588  -1.126 -0.53 -0.00    +0.000 A 
DOCKED: ATOM      6  C   UNL     1      26.430 -15.962  -1.174 -0.39 -0.00    +0.000 A 
DOCKED: ATOM      7  C   UNL     1      27.585 -16.643  -0.759 -0.37 -0.00    +0.000 A 
DOCKED: ATOM      8  C   UNL     1      27.471 -17.977  -0.336 -0.16 -0.00    +0.000 A 
DOCKED: ATOM      9  C   UNL     1      26.223 -18.604  -0.287 -0.54 -0.00    +0.000 A 
DOCKED: BRANCH   4  11
DOCKED: ATOM     10  C   UNL     1      22.572 -17.837  -0.768 -0.80 -0.00    +0.000 C 
DOCKED: ATOM     11  C   UNL     1      23.712 -18.531  -0.645 -0.81 -0.00    +0.000 C 
DOCKED: BRANCH  10  13
DOCKED: ATOM     12  O   UNL     1      20.210 -17.861  -1.063 -2.13 -0.00    +0.000 OA
DOCKED: ATOM     13  C   UNL     1      21.247 -18.484  -0.707 -0.83 -0.00    +0.000 C 
DOCKED: ATOM     14  N   UNL     1      21.136 -19.831  -0.240 -0.68 -0.00    +0.000 N 
DOCKED: ATOM     15  O   UNL     1      19.927 -20.438  -0.178 -1.27 -0.00    +0.000 OA
DOCKED: ATOM     16  H   UNL     1      21.944 -20.320   0.038 -0.55 -0.00    +0.000 HD
DOCKED: ENDBRANCH  10  13
DOCKED: ENDBRANCH   4  11
DOCKED: ENDBRANCH   3   7
DOCKED: ENDBRANCH   1   3
DOCKED: BRANCH   1  17
DOCKED: ATOM     17  C   UNL     1      30.016 -17.391  -2.588 -0.19 -0.00    +0.000 C 
DOCKED: BRANCH  17  18
DOCKED: ATOM     18  C   UNL     1      30.968 -18.033  -1.569 -0.19 -0.00    +0.000 C 
DOCKED: BRANCH  18  19
DOCKED: ATOM     19  O   UNL     1      30.363 -19.132  -0.944 -0.27 -0.00    +0.000 OA
DOCKED: ATOM     20  H   UNL     1      29.837 -18.825  -0.189 -0.57 -0.00    +0.000 HD
DOCKED: ENDBRANCH  18  19
DOCKED: ENDBRANCH  17  18
DOCKED: ENDBRANCH   1  17
DOCKED: BRANCH   1  21
DOCKED: ATOM     21  C   UNL     1      30.656 -15.018  -2.356 -0.06 -0.00    +0.000 C 
DOCKED: BRANCH  21  22
DOCKED: ATOM     22  C   UNL     1      30.391 -14.200  -3.625 -0.06 -0.00    +0.000 C 
DOCKED: BRANCH  22  23
DOCKED: ATOM     23  C   UNL     1      29.062 -13.506  -3.547 -0.08 -0.00    +0.000 A 
DOCKED: ATOM     24  C   UNL     1      28.854 -12.151  -3.302 -0.06 -0.00    +0.000 A 
DOCKED: ATOM     25  N   UNL     1      27.544 -11.842  -3.436 -0.12 -0.00    +0.000 N 
DOCKED: ATOM     26  C   UNL     1      26.926 -12.985  -3.777 -0.23 -0.00    +0.000 A 
DOCKED: ATOM     27  C   UNL     1      27.818 -14.023  -3.858 -0.21 -0.00    +0.000 A 
DOCKED: ATOM     28  C   UNL     1      27.419 -15.308  -4.232 -0.36 -0.00    +0.000 A 
DOCKED: ATOM     29  C   UNL     1      26.058 -15.513  -4.522 -0.50 -0.00    +0.000 A 
DOCKED: ATOM     30  C   UNL     1      25.139 -14.445  -4.437 -0.13 -0.00    +0.000 A 
DOCKED: ATOM     31  C   UNL     1      25.572 -13.160  -4.061 -0.33 -0.00    +0.000 A 
DOCKED: ATOM     32  H   UNL     1      27.129 -10.959  -3.308 -0.00 -0.00    +0.000 HD
DOCKED: ENDBRANCH  22  23
DOCKED: ENDBRANCH  21  22
DOCKED: ENDBRANCH   1  21
DOCKED: TORSDOF 10
DOCKED: TER
DOCKED: ENDMDL
________________________________________________________________________________


	BEGINNING GENETIC ALGORITHM DOCKING 5 of 100
Run: 5 Seed: 1989309938 48623777 [ Run 5 of 100 GA/GALS ]
Beginning LAMARCKIAN GENETIC ALGORITHM (LGA), with a maximum of 2500000 energy evaluations.

Final-Value: -15.852


	FINAL GENETIC ALGORITHM DOCKED STATE
	_______________________________________________


Detailed state:  trans 27.696 -16.131 -1.552 quatxyzw -0.311519 0.778184 -0.539662 0.078423 center 0.285 0.077 -0.044 ntor 10 156.8782 142.1585 -18.3342 -87.7603 164.6296 -173.0177 171.0143 -10.0459 150.5511 -14.1015
State:	 27.696 -16.131  -1.552  -0.312  0.781 -0.541 171.004    156.88  142.16  -18.33  -87.76  164.63 -173.02  171.01  -10.05  150.55  -14.10

DOCKED: MODEL        5
DOCKED: USER    Run = 5
DOCKED: USER    DPF = ligand_dock.biased.dpf
DOCKED: USER  
DOCKED: USER    Estimated Free Energy of Binding    =  -11.06 kcal/mol  [=(1)+(2)+(3)-(4)]
DOCKED: USER    Estimated Inhibition Constant, Ki   =    7.78 nM (nanomolar)  [Temperature = 298.15 K]
DOCKED: USER    
DOCKED: USER    (1) Final Intermolecular Energy     =  -14.05 kcal/mol
DOCKED: USER        vdW + Hbond + desolv Energy     =  -14.05 kcal/mol
DOCKED: USER        Electrostatic Energy            =   +0.00 kcal/mol
DOCKED: USER    (2) Final Total Internal Energy     =   -1.81 kcal/mol
DOCKED: USER    (3) Torsional Free Energy           =   +2.98 kcal/mol
DOCKED: USER    (4) Unbound System's Energy  [=(2)] =   -1.81 kcal/mol
DOCKED: USER    
DOCKED: USER    
DOCKED: USER    NEWDPF move ligand.pdbqt
DOCKED: USER    NEWDPF about 0.285000 0.077000 -0.044000
DOCKED: USER    NEWDPF tran0 27.695675 -16.130764 -1.551806
DOCKED: USER    NEWDPF quaternion0 -0.311519 0.778184 -0.539662 0.078423
DOCKED: USER    NEWDPF axisangle0 -0.312482 0.780588 -0.541329 171.004180
DOCKED: USER    NEWDPF quat0 -0.312482 0.780588 -0.541329 171.004180
DOCKED: USER    NEWDPF dihe0 156.88 142.16 -18.33 -87.76 164.63 -173.02 171.01 -10.05 150.55 -14.10 
DOCKED: USER  keepresnum = 1 
DOCKED: USER  
DOCKED: REMARK  Name = 
DOCKED: REMARK  10 active torsions:
DOCKED: REMARK  status: ('A' for Active; 'I' for Inactive)
DOCKED: REMARK    1  A    between atoms: C_2  and  C_5
DOCKED: REMARK    2  A    between atoms: C_6  and  C_7
DOCKED: REMARK    3  A    between atoms: C_10  and  C_11
DOCKED: REMARK    4  A    between atoms: C_11  and  N_12
DOCKED: REMARK    5  A    between atoms: N_12  and  C_13
DOCKED: REMARK    6  A    between atoms: N_12  and  C_16
DOCKED: REMARK    7  A    between atoms: C_13  and  C_14
DOCKED: REMARK    8  A    between atoms: C_14  and  O_15
DOCKED: REMARK    9  A    between atoms: C_16  and  C_17
DOCKED: REMARK   10  A    between atoms: C_17  and  C_18
DOCKED: REMARK                            x       y       z     vdW  Elec       q    Type
DOCKED: REMARK                         _______ _______ _______ _____ _____    ______ ____
DOCKED: USER                              x       y       z     vdW  Elec       q    Type
DOCKED: USER                           _______ _______ _______ _____ _____    ______ ____
DOCKED: ROOT
DOCKED: ATOM      1  N   UNL     1      28.884 -15.624  -1.892 -0.17 -0.00    +0.000 N 
DOCKED: ATOM      2  H   UNL     1      29.391 -14.753  -2.047 +0.01 -0.00    +0.000 HD
DOCKED: ENDROOT
DOCKED: BRANCH   1   3
DOCKED: ATOM      3  C   UNL     1      27.752 -15.219  -1.019 -0.26 -0.00    +0.000 C 
DOCKED: BRANCH   3   7
DOCKED: ATOM      4  C   UNL     1      24.440 -18.030  -1.022 -0.68 -0.00    +0.000 A 
DOCKED: ATOM      5  C   UNL     1      24.270 -16.722  -1.501 -0.52 -0.00    +0.000 A 
DOCKED: ATOM      6  C   UNL     1      25.336 -15.819  -1.503 -0.43 -0.00    +0.000 A 
DOCKED: ATOM      7  C   UNL     1      26.591 -16.195  -0.997 -0.40 -0.00    +0.000 A 
DOCKED: ATOM      8  C   UNL     1      26.768 -17.507  -0.530 -0.50 -0.00    +0.000 A 
DOCKED: ATOM      9  C   UNL     1      25.703 -18.412  -0.528 -0.55 -0.00    +0.000 A 
DOCKED: BRANCH   4  11
DOCKED: ATOM     10  C   UNL     1      22.015 -18.557  -0.782 -0.84 -0.00    +0.000 C 
DOCKED: ATOM     11  C   UNL     1      23.274 -18.947  -1.030 -0.81 -0.00    +0.000 C 
DOCKED: BRANCH  10  13
DOCKED: ATOM     12  O   UNL     1      20.251 -19.741  -1.854 -2.37 -0.00    +0.000 OA
DOCKED: ATOM     13  C   UNL     1      20.882 -19.502  -0.789 -0.85 -0.00    +0.000 C 
DOCKED: ATOM     14  N   UNL     1      20.495 -20.154   0.422 -0.68 -0.00    +0.000 N 
DOCKED: ATOM     15  O   UNL     1      19.457 -21.024   0.432 -0.89 -0.00    +0.000 OA
DOCKED: ATOM     16  H   UNL     1      20.986 -19.969   1.255 -0.51 -0.00    +0.000 HD
DOCKED: ENDBRANCH  10  13
DOCKED: ENDBRANCH   4  11
DOCKED: ENDBRANCH   3   7
DOCKED: ENDBRANCH   1   3
DOCKED: BRANCH   1  17
DOCKED: ATOM     17  C   UNL     1      28.497 -16.069  -3.250 -0.27 -0.00    +0.000 C 
DOCKED: BRANCH  17  18
DOCKED: ATOM     18  C   UNL     1      27.585 -15.047  -3.944 -0.36 -0.00    +0.000 C 
DOCKED: BRANCH  18  19
DOCKED: ATOM     19  O   UNL     1      26.985 -15.605  -5.081 -1.04 +0.00    +0.000 OA
DOCKED: ATOM     20  H   UNL     1      26.100 -15.929  -4.853 -0.07 +0.00    +0.000 HD
DOCKED: ENDBRANCH  18  19
DOCKED: ENDBRANCH  17  18
DOCKED: ENDBRANCH   1  17
DOCKED: BRANCH   1  21
DOCKED: ATOM     21  C   UNL     1      29.840 -16.545  -1.234 -0.21 -0.00    +0.000 C 
DOCKED: BRANCH  21  22
DOCKED: ATOM     22  C   UNL     1      31.052 -15.772  -0.705 -0.10 -0.00    +0.000 C 
DOCKED: BRANCH  22  23
DOCKED: ATOM     23  C   UNL     1      31.047 -15.729   0.796 -0.10 -0.00    +0.000 A 
DOCKED: ATOM     24  C   UNL     1      31.879 -16.456   1.643 -0.15 -0.00    +0.000 A 
DOCKED: ATOM     25  N   UNL     1      31.697 -16.074   2.927 -0.26 -0.00    +0.000 N 
DOCKED: ATOM     26  C   UNL     1      30.769 -15.102   2.897 -0.10 -0.00    +0.000 A 
DOCKED: ATOM     27  C   UNL     1      30.350 -14.860   1.615 -0.09 -0.00    +0.000 A 
DOCKED: ATOM     28  C   UNL     1      29.412 -13.867   1.323 -0.13 -0.00    +0.000 A 
DOCKED: ATOM     29  C   UNL     1      28.899 -13.115   2.395 -0.16 -0.00    +0.000 A 
DOCKED: ATOM     30  C   UNL     1      29.330 -13.366   3.716 -0.23 -0.00    +0.000 A 
DOCKED: ATOM     31  C   UNL     1      30.280 -14.371   3.978 -0.28 -0.00    +0.000 A 
DOCKED: ATOM     32  H   UNL     1      32.152 -16.435   3.722 -0.04 -0.00    +0.000 HD
DOCKED: ENDBRANCH  22  23
DOCKED: ENDBRANCH  21  22
DOCKED: ENDBRANCH   1  21
DOCKED: TORSDOF 10
DOCKED: TER
DOCKED: ENDMDL
________________________________________________________________________________


	BEGINNING GENETIC ALGORITHM DOCKING 6 of 100
Run: 6 Seed: 2145757442 202021823 [ Run 6 of 100 GA/GALS ]
Beginning LAMARCKIAN GENETIC ALGORITHM (LGA), with a maximum of 2500000 energy evaluations.

Final-Value: -16.824


	FINAL GENETIC ALGORITHM DOCKED STATE
	_______________________________________________


Detailed state:  trans 28.490 -14.980 -0.975 quatxyzw -0.263855 -0.790837 -0.242888 0.495947 center 0.285 0.077 -0.044 ntor 10 76.0694 -157.8474 86.1893 -83.1488 -178.7731 -174.3169 -75.7294 179.2399 105.0738 140.7612
State:	 28.490 -14.980  -0.975  -0.304 -0.911 -0.280 120.536     76.07 -157.85   86.19  -83.15 -178.77 -174.32  -75.73  179.24  105.07  140.76

DOCKED: MODEL        6
DOCKED: USER    Run = 6
DOCKED: USER    DPF = ligand_dock.biased.dpf
DOCKED: USER  
DOCKED: USER    Estimated Free Energy of Binding    =  -12.33 kcal/mol  [=(1)+(2)+(3)-(4)]
DOCKED: USER    Estimated Inhibition Constant, Ki   =  908.70 pM (picomolar)  [Temperature = 298.15 K]
DOCKED: USER    
DOCKED: USER    (1) Final Intermolecular Energy     =  -15.32 kcal/mol
DOCKED: USER        vdW + Hbond + desolv Energy     =  -15.32 kcal/mol
DOCKED: USER        Electrostatic Energy            =   +0.00 kcal/mol
DOCKED: USER    (2) Final Total Internal Energy     =   -1.51 kcal/mol
DOCKED: USER    (3) Torsional Free Energy           =   +2.98 kcal/mol
DOCKED: USER    (4) Unbound System's Energy  [=(2)] =   -1.51 kcal/mol
DOCKED: USER    
DOCKED: USER    
DOCKED: USER    NEWDPF move ligand.pdbqt
DOCKED: USER    NEWDPF about 0.285000 0.077000 -0.044000
DOCKED: USER    NEWDPF tran0 28.489803 -14.980061 -0.975080
DOCKED: USER    NEWDPF quaternion0 -0.263855 -0.790837 -0.242888 0.495947
DOCKED: USER    NEWDPF axisangle0 -0.303856 -0.910732 -0.279711 120.535585
DOCKED: USER    NEWDPF quat0 -0.303856 -0.910732 -0.279711 120.535585
DOCKED: USER    NEWDPF dihe0 76.07 -157.85 86.19 -83.15 -178.77 -174.32 -75.73 179.24 105.07 140.76 
DOCKED: USER  keepresnum = 1 
DOCKED: USER  
DOCKED: REMARK  Name = 
DOCKED: REMARK  10 active torsions:
DOCKED: REMARK  status: ('A' for Active; 'I' for Inactive)
DOCKED: REMARK    1  A    between atoms: C_2  and  C_5
DOCKED: REMARK    2  A    between atoms: C_6  and  C_7
DOCKED: REMARK    3  A    between atoms: C_10  and  C_11
DOCKED: REMARK    4  A    between atoms: C_11  and  N_12
DOCKED: REMARK    5  A    between atoms: N_12  and  C_13
DOCKED: REMARK    6  A    between atoms: N_12  and  C_16
DOCKED: REMARK    7  A    between atoms: C_13  and  C_14
DOCKED: REMARK    8  A    between atoms: C_14  and  O_15
DOCKED: REMARK    9  A    between atoms: C_16  and  C_17
DOCKED: REMARK   10  A    between atoms: C_17  and  C_18
DOCKED: REMARK                            x       y       z     vdW  Elec       q    Type
DOCKED: REMARK                         _______ _______ _______ _____ _____    ______ ____
DOCKED: USER                              x       y       z     vdW  Elec       q    Type
DOCKED: USER                           _______ _______ _______ _____ _____    ______ ____
DOCKED: ROOT
DOCKED: ATOM      1  N   UNL     1      28.865 -16.063  -0.288 -0.23 -0.00    +0.000 N 
DOCKED: ATOM      2  H   UNL     1      28.623 -16.657   0.505 -0.49 -0.00    +0.000 HD
DOCKED: ENDROOT
DOCKED: BRANCH   1   3
DOCKED: ATOM      3  C   UNL     1      27.581 -15.399  -0.633 -0.31 -0.00    +0.000 C 
DOCKED: BRANCH   3   7
DOCKED: ATOM      4  C   UNL     1      24.154 -18.065  -0.746 -0.70 -0.00    +0.000 A 
DOCKED: ATOM      5  C   UNL     1      24.106 -16.809  -1.370 -0.54 -0.00    +0.000 A 
DOCKED: ATOM      6  C   UNL     1      25.208 -15.953  -1.336 -0.44 -0.00    +0.000 A 
DOCKED: ATOM      7  C   UNL     1      26.377 -16.321  -0.651 -0.42 -0.00    +0.000 A 
DOCKED: ATOM      8  C   UNL     1      26.434 -17.582  -0.037 -0.50 -0.00    +0.000 A 
DOCKED: ATOM      9  C   UNL     1      25.332 -18.441  -0.070 -0.51 -0.00    +0.000 A 
DOCKED: BRANCH   4  11
DOCKED: ATOM     10  C   UNL     1      21.717 -18.482  -1.064 -0.78 -0.00    +0.000 C 
DOCKED: ATOM     11  C   UNL     1      22.952 -18.933  -0.800 -0.82 -0.00    +0.000 C 
DOCKED: BRANCH  10  13
DOCKED: ATOM     12  O   UNL     1      20.257 -20.021  -2.143 -2.28 -0.00    +0.000 OA
DOCKED: ATOM     13  C   UNL     1      20.543 -19.376  -1.098 -0.90 -0.00    +0.000 C 
DOCKED: ATOM     14  N   UNL     1      19.722 -19.513   0.064 -0.76 -0.00    +0.000 N 
DOCKED: ATOM     15  O   UNL     1      18.642 -20.329   0.047 -1.00 -0.00    +0.000 OA
DOCKED: ATOM     16  H   UNL     1      19.943 -19.011   0.881 -0.16 -0.00    +0.000 HD
DOCKED: ENDBRANCH  10  13
DOCKED: ENDBRANCH   4  11
DOCKED: ENDBRANCH   3   7
DOCKED: ENDBRANCH   1   3
DOCKED: BRANCH   1  17
DOCKED: ATOM     17  C   UNL     1      29.914 -15.159   0.237 -0.15 -0.00    +0.000 C 
DOCKED: BRANCH  17  18
DOCKED: ATOM     18  C   UNL     1      30.937 -15.917   1.095 -0.01 -0.00    +0.000 C 
DOCKED: BRANCH  18  19
DOCKED: ATOM     19  O   UNL     1      30.757 -15.630   2.456 -0.07 -0.00    +0.000 OA
DOCKED: ATOM     20  H   UNL     1      29.889 -15.217   2.586 -1.48 -0.00    +0.000 HD
DOCKED: ENDBRANCH  18  19
DOCKED: ENDBRANCH  17  18
DOCKED: ENDBRANCH   1  17
DOCKED: BRANCH   1  21
DOCKED: ATOM     21  C   UNL     1      29.364 -16.972  -1.346 -0.27 -0.00    +0.000 C 
DOCKED: BRANCH  21  22
DOCKED: ATOM     22  C   UNL     1      30.289 -16.218  -2.308 -0.14 -0.00    +0.000 C 
DOCKED: BRANCH  22  23
DOCKED: ATOM     23  C   UNL     1      29.994 -16.585  -3.733 -0.19 -0.00    +0.000 A 
DOCKED: ATOM     24  C   UNL     1      29.317 -15.799  -4.662 -0.26 -0.00    +0.000 A 
DOCKED: ATOM     25  N   UNL     1      29.349 -16.378  -5.884 -0.35 -0.00    +0.000 N 
DOCKED: ATOM     26  C   UNL     1      30.053 -17.514  -5.738 -0.30 -0.00    +0.000 A 
DOCKED: ATOM     27  C   UNL     1      30.467 -17.674  -4.441 -0.23 -0.00    +0.000 A 
DOCKED: ATOM     28  C   UNL     1      31.247 -18.763  -4.048 -0.18 -0.00    +0.000 A 
DOCKED: ATOM     29  C   UNL     1      31.597 -19.707  -5.030 -0.19 -0.00    +0.000 A 
DOCKED: ATOM     30  C   UNL     1      31.169 -19.543  -6.366 -0.30 -0.00    +0.000 A 
DOCKED: ATOM     31  C   UNL     1      30.388 -18.432  -6.732 -0.33 -0.00    +0.000 A 
DOCKED: ATOM     32  H   UNL     1      28.939 -16.036  -6.711 -0.05 +0.00    +0.000 HD
DOCKED: ENDBRANCH  22  23
DOCKED: ENDBRANCH  21  22
DOCKED: ENDBRANCH   1  21
DOCKED: TORSDOF 10
DOCKED: TER
DOCKED: ENDMDL
________________________________________________________________________________


	BEGINNING GENETIC ALGORITHM DOCKING 7 of 100
Run: 7 Seed: 122392051 859761038 [ Run 7 of 100 GA/GALS ]
Beginning LAMARCKIAN GENETIC ALGORITHM (LGA), with a maximum of 2500000 energy evaluations.

Final-Value: -17.170


	FINAL GENETIC ALGORITHM DOCKED STATE
	_______________________________________________


Detailed state:  trans 28.786 -15.146 -0.727 quatxyzw -0.454771 0.536474 0.446069 -0.553536 center 0.285 0.077 -0.044 ntor 10 51.2109 -67.7450 92.7976 -53.1870 -143.5710 -179.9629 151.5705 113.6949 -154.6850 -105.1473
State:	 28.786 -15.146  -0.727  -0.546  0.644  0.536 -112.780     51.21  -67.74   92.80  -53.19 -143.57 -179.96  151.57  113.69 -154.68 -105.15

DOCKED: MODEL        7
DOCKED: USER    Run = 7
DOCKED: USER    DPF = ligand_dock.biased.dpf
DOCKED: USER  
DOCKED: USER    Estimated Free Energy of Binding    =  -11.59 kcal/mol  [=(1)+(2)+(3)-(4)]
DOCKED: USER    Estimated Inhibition Constant, Ki   =    3.21 nM (nanomolar)  [Temperature = 298.15 K]
DOCKED: USER    
DOCKED: USER    (1) Final Intermolecular Energy     =  -14.57 kcal/mol
DOCKED: USER        vdW + Hbond + desolv Energy     =  -14.57 kcal/mol
DOCKED: USER        Electrostatic Energy            =   +0.00 kcal/mol
DOCKED: USER    (2) Final Total Internal Energy     =   -2.60 kcal/mol
DOCKED: USER    (3) Torsional Free Energy           =   +2.98 kcal/mol
DOCKED: USER    (4) Unbound System's Energy  [=(2)] =   -2.60 kcal/mol
DOCKED: USER    
DOCKED: USER    
DOCKED: USER    NEWDPF move ligand.pdbqt
DOCKED: USER    NEWDPF about 0.285000 0.077000 -0.044000
DOCKED: USER    NEWDPF tran0 28.786002 -15.146283 -0.727252
DOCKED: USER    NEWDPF quaternion0 -0.454771 0.536474 0.446069 -0.553536
DOCKED: USER    NEWDPF axisangle0 -0.546058 0.644161 0.535610 -112.780165
DOCKED: USER    NEWDPF quat0 -0.546058 0.644161 0.535610 -112.780165
DOCKED: USER    NEWDPF dihe0 51.21 -67.74 92.80 -53.19 -143.57 -179.96 151.57 113.69 -154.68 -105.15 
DOCKED: USER  keepresnum = 1 
DOCKED: USER  
DOCKED: REMARK  Name = 
DOCKED: REMARK  10 active torsions:
DOCKED: REMARK  status: ('A' for Active; 'I' for Inactive)
DOCKED: REMARK    1  A    between atoms: C_2  and  C_5
DOCKED: REMARK    2  A    between atoms: C_6  and  C_7
DOCKED: REMARK    3  A    between atoms: C_10  and  C_11
DOCKED: REMARK    4  A    between atoms: C_11  and  N_12
DOCKED: REMARK    5  A    between atoms: N_12  and  C_13
DOCKED: REMARK    6  A    between atoms: N_12  and  C_16
DOCKED: REMARK    7  A    between atoms: C_13  and  C_14
DOCKED: REMARK    8  A    between atoms: C_14  and  O_15
DOCKED: REMARK    9  A    between atoms: C_16  and  C_17
DOCKED: REMARK   10  A    between atoms: C_17  and  C_18
DOCKED: REMARK                            x       y       z     vdW  Elec       q    Type
DOCKED: REMARK                         _______ _______ _______ _____ _____    ______ ____
DOCKED: USER                              x       y       z     vdW  Elec       q    Type
DOCKED: USER                           _______ _______ _______ _____ _____    ______ ____
DOCKED: ROOT
DOCKED: ATOM      1  N   UNL     1      29.029 -15.266   0.581 -0.17 -0.00    +0.000 N 
DOCKED: ATOM      2  H   UNL     1      28.867 -15.858   1.395 -0.98 -0.00    +0.000 HD
DOCKED: ENDROOT
DOCKED: BRANCH   1   3
DOCKED: ATOM      3  C   UNL     1      28.836 -16.190  -0.567 -0.26 -0.00    +0.000 C 
DOCKED: BRANCH   3   7
DOCKED: ATOM      4  C   UNL     1      24.711 -17.417  -1.153 -0.63 -0.00    +0.000 A 
DOCKED: ATOM      5  C   UNL     1      25.392 -17.737   0.031 -0.48 -0.00    +0.000 A 
DOCKED: ATOM      6  C   UNL     1      26.718 -17.340   0.221 -0.32 -0.00    +0.000 A 
DOCKED: ATOM      7  C   UNL     1      27.403 -16.638  -0.784 -0.38 -0.00    +0.000 A 
DOCKED: ATOM      8  C   UNL     1      26.721 -16.304  -1.964 -0.38 -0.00    +0.000 A 
DOCKED: ATOM      9  C   UNL     1      25.394 -16.700  -2.155 -0.52 -0.00    +0.000 A 
DOCKED: BRANCH   4  11
DOCKED: ATOM     10  C   UNL     1      22.544 -18.304  -0.297 -0.83 -0.00    +0.000 C 
DOCKED: ATOM     11  C   UNL     1      23.307 -17.872  -1.311 -0.73 -0.00    +0.000 C 
DOCKED: BRANCH  10  13
DOCKED: ATOM     12  O   UNL     1      20.311 -18.016  -1.069 -2.15 -0.00    +0.000 OA
DOCKED: ATOM     13  C   UNL     1      21.154 -18.759  -0.497 -0.82 -0.00    +0.000 C 
DOCKED: ATOM     14  N   UNL     1      20.758 -20.053  -0.037 -0.70 -0.00    +0.000 N 
DOCKED: ATOM     15  O   UNL     1      19.487 -20.484  -0.212 -1.19 -0.00    +0.000 OA
DOCKED: ATOM     16  H   UNL     1      21.415 -20.634   0.411 -0.60 -0.00    +0.000 HD
DOCKED: ENDBRANCH  10  13
DOCKED: ENDBRANCH   4  11
DOCKED: ENDBRANCH   3   7
DOCKED: ENDBRANCH   1   3
DOCKED: BRANCH   1  17
DOCKED: ATOM     17  C   UNL     1      28.015 -14.194   0.697 -0.24 -0.00    +0.000 C 
DOCKED: BRANCH  17  18
DOCKED: ATOM     18  C   UNL     1      28.017 -13.562   2.096 -0.28 -0.00    +0.000 C 
DOCKED: BRANCH  18  19
DOCKED: ATOM     19  O   UNL     1      28.695 -14.378   3.012 -0.36 -0.00    +0.000 OA
DOCKED: ATOM     20  H   UNL     1      28.888 -15.235   2.600 -1.97 -0.00    +0.000 HD
DOCKED: ENDBRANCH  18  19
DOCKED: ENDBRANCH  17  18
DOCKED: ENDBRANCH   1  17
DOCKED: BRANCH   1  21
DOCKED: ATOM     21  C   UNL     1      30.417 -14.763   0.709 -0.13 -0.00    +0.000 C 
DOCKED: BRANCH  21  22
DOCKED: ATOM     22  C   UNL     1      31.123 -14.786  -0.651 -0.05 -0.00    +0.000 C 
DOCKED: BRANCH  22  23
DOCKED: ATOM     23  C   UNL     1      30.932 -13.486  -1.377 -0.01 -0.00    +0.000 A 
DOCKED: ATOM     24  C   UNL     1      31.845 -12.437  -1.439 -0.00 -0.00    +0.000 A 
DOCKED: ATOM     25  N   UNL     1      31.406 -11.479  -2.288 -0.00 -0.00    +0.000 N 
DOCKED: ATOM     26  C   UNL     1      30.234 -11.921  -2.773 -0.01 -0.00    +0.000 A 
DOCKED: ATOM     27  C   UNL     1      29.911 -13.144  -2.244 -0.03 -0.00    +0.000 A 
DOCKED: ATOM     28  C   UNL     1      28.753 -13.826  -2.622 -0.09 -0.00    +0.000 A 
DOCKED: ATOM     29  C   UNL     1      27.912 -13.214  -3.569 -0.14 -0.00    +0.000 A 
DOCKED: ATOM     30  C   UNL     1      28.244 -11.953  -4.113 -0.09 -0.00    +0.000 A 
DOCKED: ATOM     31  C   UNL     1      29.421 -11.293  -3.715 -0.03 -0.00    +0.000 A 
DOCKED: ATOM     32  H   UNL     1      31.856 -10.630  -2.504 +0.00 -0.00    +0.000 HD
DOCKED: ENDBRANCH  22  23
DOCKED: ENDBRANCH  21  22
DOCKED: ENDBRANCH   1  21
DOCKED: TORSDOF 10
DOCKED: TER
DOCKED: ENDMDL
________________________________________________________________________________


	BEGINNING GENETIC ALGORITHM DOCKING 8 of 100
Run: 8 Seed: 135118501 308345005 [ Run 8 of 100 GA/GALS ]
Beginning LAMARCKIAN GENETIC ALGORITHM (LGA), with a maximum of 2500000 energy evaluations.

Final-Value: -16.211


	FINAL GENETIC ALGORITHM DOCKED STATE
	_______________________________________________


Detailed state:  trans 28.555 -15.341 -2.294 quatxyzw -0.781596 -0.016364 -0.388688 -0.487608 center 0.285 0.077 -0.044 ntor 10 -179.8998 -79.2558 45.0402 -179.5093 180.0000 -130.3207 -96.3106 95.3958 -56.0127 165.5349
State:	 28.555 -15.341  -2.294  -0.895 -0.019 -0.445 -121.633   -179.90  -79.26   45.04 -179.51  180.00 -130.32  -96.31   95.40  -56.01  165.53

DOCKED: MODEL        8
DOCKED: USER    Run = 8
DOCKED: USER    DPF = ligand_dock.biased.dpf
DOCKED: USER  
DOCKED: USER    Estimated Free Energy of Binding    =  -11.03 kcal/mol  [=(1)+(2)+(3)-(4)]
DOCKED: USER    Estimated Inhibition Constant, Ki   =    8.25 nM (nanomolar)  [Temperature = 298.15 K]
DOCKED: USER    
DOCKED: USER    (1) Final Intermolecular Energy     =  -14.01 kcal/mol
DOCKED: USER        vdW + Hbond + desolv Energy     =  -14.01 kcal/mol
DOCKED: USER        Electrostatic Energy            =   +0.00 kcal/mol
DOCKED: USER    (2) Final Total Internal Energy     =   -2.20 kcal/mol
DOCKED: USER    (3) Torsional Free Energy           =   +2.98 kcal/mol
DOCKED: USER    (4) Unbound System's Energy  [=(2)] =   -2.20 kcal/mol
DOCKED: USER    
DOCKED: USER    
DOCKED: USER    NEWDPF move ligand.pdbqt
DOCKED: USER    NEWDPF about 0.285000 0.077000 -0.044000
DOCKED: USER    NEWDPF tran0 28.555138 -15.340885 -2.294068
DOCKED: USER    NEWDPF quaternion0 -0.781596 -0.016364 -0.388688 -0.487608
DOCKED: USER    NEWDPF axisangle0 -0.895235 -0.018744 -0.445200 -121.633022
DOCKED: USER    NEWDPF quat0 -0.895235 -0.018744 -0.445200 -121.633022
DOCKED: USER    NEWDPF dihe0 -179.90 -79.26 45.04 -179.51 180.00 -130.32 -96.31 95.40 -56.01 165.53 
DOCKED: USER  keepresnum = 1 
DOCKED: USER  
DOCKED: REMARK  Name = 
DOCKED: REMARK  10 active torsions:
DOCKED: REMARK  status: ('A' for Active; 'I' for Inactive)
DOCKED: REMARK    1  A    between atoms: C_2  and  C_5
DOCKED: REMARK    2  A    between atoms: C_6  and  C_7
DOCKED: REMARK    3  A    between atoms: C_10  and  C_11
DOCKED: REMARK    4  A    between atoms: C_11  and  N_12
DOCKED: REMARK    5  A    between atoms: N_12  and  C_13
DOCKED: REMARK    6  A    between atoms: N_12  and  C_16
DOCKED: REMARK    7  A    between atoms: C_13  and  C_14
DOCKED: REMARK    8  A    between atoms: C_14  and  O_15
DOCKED: REMARK    9  A    between atoms: C_16  and  C_17
DOCKED: REMARK   10  A    between atoms: C_17  and  C_18
DOCKED: REMARK                            x       y       z     vdW  Elec       q    Type
DOCKED: REMARK                         _______ _______ _______ _____ _____    ______ ____
DOCKED: USER                              x       y       z     vdW  Elec       q    Type
DOCKED: USER                           _______ _______ _______ _____ _____    ______ ____
DOCKED: ROOT
DOCKED: ATOM      1  N   UNL     1      27.494 -14.772  -2.873 -0.23 -0.00    +0.000 N 
DOCKED: ATOM      2  H   UNL     1      26.575 -14.963  -3.272 -0.00 -0.00    +0.000 HD
DOCKED: ENDROOT
DOCKED: BRANCH   1   3
DOCKED: ATOM      3  C   UNL     1      27.739 -15.937  -1.984 -0.31 -0.00    +0.000 C 
DOCKED: BRANCH   3   7
DOCKED: ATOM      4  C   UNL     1      24.193 -18.193  -0.887 -0.70 -0.00    +0.000 A 
DOCKED: ATOM      5  C   UNL     1      24.318 -17.634  -2.167 -0.32 -0.00    +0.000 A 
DOCKED: ATOM      6  C   UNL     1      25.459 -16.910  -2.521 -0.39 -0.00    +0.000 A 
DOCKED: ATOM      7  C   UNL     1      26.491 -16.705  -1.591 -0.43 -0.00    +0.000 A 
DOCKED: ATOM      8  C   UNL     1      26.376 -17.276  -0.314 -0.51 -0.00    +0.000 A 
DOCKED: ATOM      9  C   UNL     1      25.235 -18.001   0.042 -0.55 -0.00    +0.000 A 
DOCKED: BRANCH   4  11
DOCKED: ATOM     10  C   UNL     1      21.797 -18.799  -1.215 -0.73 -0.00    +0.000 C 
DOCKED: ATOM     11  C   UNL     1      22.956 -18.943  -0.556 -0.80 -0.00    +0.000 C 
DOCKED: BRANCH  10  13
DOCKED: ATOM     12  O   UNL     1      19.506 -19.386  -1.481 -1.93 -0.00    +0.000 OA
DOCKED: ATOM     13  C   UNL     1      20.584 -19.555  -0.849 -0.87 -0.00    +0.000 C 
DOCKED: ATOM     14  N   UNL     1      20.629 -20.486   0.235 -0.62 -0.00    +0.000 N 
DOCKED: ATOM     15  O   UNL     1      19.524 -21.187   0.583 -0.79 -0.00    +0.000 OA
DOCKED: ATOM     16  H   UNL     1      21.469 -20.620   0.730 -0.56 -0.00    +0.000 HD
DOCKED: ENDBRANCH  10  13
DOCKED: ENDBRANCH   4  11
DOCKED: ENDBRANCH   3   7
DOCKED: ENDBRANCH   1   3
DOCKED: BRANCH   1  17
DOCKED: ATOM     17  C   UNL     1      28.393 -14.680  -4.046 -0.25 -0.00    +0.000 C 
DOCKED: BRANCH  17  18
DOCKED: ATOM     18  C   UNL     1      27.623 -14.847  -5.363 -0.43 -0.00    +0.000 C 
DOCKED: BRANCH  18  19
DOCKED: ATOM     19  O   UNL     1      26.478 -15.634  -5.177 -1.16 +0.00    +0.000 OA
DOCKED: ATOM     20  H   UNL     1      25.690 -15.116  -5.405 -0.07 -0.00    +0.000 HD
DOCKED: ENDBRANCH  18  19
DOCKED: ENDBRANCH  17  18
DOCKED: ENDBRANCH   1  17
DOCKED: BRANCH   1  21
DOCKED: ATOM     21  C   UNL     1      27.366 -13.488  -2.143 -0.20 -0.00    +0.000 C 
DOCKED: BRANCH  21  22
DOCKED: ATOM     22  C   UNL     1      27.701 -13.679  -0.660 -0.19 -0.00    +0.000 C 
DOCKED: BRANCH  22  23
DOCKED: ATOM     23  C   UNL     1      27.075 -12.600   0.174 -0.20 -0.00    +0.000 A 
DOCKED: ATOM     24  C   UNL     1      26.631 -12.729   1.488 -0.31 -0.00    +0.000 A 
DOCKED: ATOM     25  N   UNL     1      26.248 -11.527   1.977 -0.37 +0.00    +0.000 N 
DOCKED: ATOM     26  C   UNL     1      26.459 -10.640   0.990 -0.29 +0.00    +0.000 A 
DOCKED: ATOM     27  C   UNL     1      26.966 -11.255  -0.125 -0.14 +0.00    +0.000 A 
DOCKED: ATOM     28  C   UNL     1      27.301 -10.535  -1.273 -0.10 -0.00    +0.000 A 
DOCKED: ATOM     29  C   UNL     1      27.098  -9.143  -1.256 -0.11 +0.00    +0.000 A 
DOCKED: ATOM     30  C   UNL     1      26.574  -8.510  -0.108 -0.19 +0.00    +0.000 A 
DOCKED: ATOM     31  C   UNL     1      26.249  -9.263   1.036 -0.24 +0.00    +0.000 A 
DOCKED: ATOM     32  H   UNL     1      25.887 -11.342   2.874 -0.03 +0.00    +0.000 HD
DOCKED: ENDBRANCH  22  23
DOCKED: ENDBRANCH  21  22
DOCKED: ENDBRANCH   1  21
DOCKED: TORSDOF 10
DOCKED: TER
DOCKED: ENDMDL
________________________________________________________________________________


	BEGINNING GENETIC ALGORITHM DOCKING 9 of 100
Run: 9 Seed: 790491234 254658798 [ Run 9 of 100 GA/GALS ]
Beginning LAMARCKIAN GENETIC ALGORITHM (LGA), with a maximum of 2500000 energy evaluations.

Final-Value: -16.433


	FINAL GENETIC ALGORITHM DOCKED STATE
	_______________________________________________


Detailed state:  trans 27.523 -15.514 -2.303 quatxyzw -0.064278 0.979421 -0.162470 0.101029 center 0.285 0.077 -0.044 ntor 10 -73.5066 60.8383 176.6586 -85.3610 -22.6095 -171.0583 -27.5657 -45.5884 -7.6284 32.7572
State:	 27.523 -15.514  -2.303  -0.065  0.984 -0.163 168.403    -73.51   60.84  176.66  -85.36  -22.61 -171.06  -27.57  -45.59   -7.63   32.76

DOCKED: MODEL        9
DOCKED: USER    Run = 9
DOCKED: USER    DPF = ligand_dock.biased.dpf
DOCKED: USER  
DOCKED: USER    Estimated Free Energy of Binding    =  -11.58 kcal/mol  [=(1)+(2)+(3)-(4)]
DOCKED: USER    Estimated Inhibition Constant, Ki   =    3.27 nM (nanomolar)  [Temperature = 298.15 K]
DOCKED: USER    
DOCKED: USER    (1) Final Intermolecular Energy     =  -14.56 kcal/mol
DOCKED: USER        vdW + Hbond + desolv Energy     =  -14.56 kcal/mol
DOCKED: USER        Electrostatic Energy            =   +0.00 kcal/mol
DOCKED: USER    (2) Final Total Internal Energy     =   -1.87 kcal/mol
DOCKED: USER    (3) Torsional Free Energy           =   +2.98 kcal/mol
DOCKED: USER    (4) Unbound System's Energy  [=(2)] =   -1.87 kcal/mol
DOCKED: USER    
DOCKED: USER    
DOCKED: USER    NEWDPF move ligand.pdbqt
DOCKED: USER    NEWDPF about 0.285000 0.077000 -0.044000
DOCKED: USER    NEWDPF tran0 27.523302 -15.513696 -2.303407
DOCKED: USER    NEWDPF quaternion0 -0.064278 0.979421 -0.162470 0.101029
DOCKED: USER    NEWDPF axisangle0 -0.064609 0.984458 -0.163306 168.403130
DOCKED: USER    NEWDPF quat0 -0.064609 0.984458 -0.163306 168.403130
DOCKED: USER    NEWDPF dihe0 -73.51 60.84 176.66 -85.36 -22.61 -171.06 -27.57 -45.59 -7.63 32.76 
DOCKED: USER  keepresnum = 1 
DOCKED: USER  
DOCKED: REMARK  Name = 
DOCKED: REMARK  10 active torsions:
DOCKED: REMARK  status: ('A' for Active; 'I' for Inactive)
DOCKED: REMARK    1  A    between atoms: C_2  and  C_5
DOCKED: REMARK    2  A    between atoms: C_6  and  C_7
DOCKED: REMARK    3  A    between atoms: C_10  and  C_11
DOCKED: REMARK    4  A    between atoms: C_11  and  N_12
DOCKED: REMARK    5  A    between atoms: N_12  and  C_13
DOCKED: REMARK    6  A    between atoms: N_12  and  C_16
DOCKED: REMARK    7  A    between atoms: C_13  and  C_14
DOCKED: REMARK    8  A    between atoms: C_14  and  O_15
DOCKED: REMARK    9  A    between atoms: C_16  and  C_17
DOCKED: REMARK   10  A    between atoms: C_17  and  C_18
DOCKED: REMARK                            x       y       z     vdW  Elec       q    Type
DOCKED: REMARK                         _______ _______ _______ _____ _____    ______ ____
DOCKED: USER                              x       y       z     vdW  Elec       q    Type
DOCKED: USER                           _______ _______ _______ _____ _____    ______ ____
DOCKED: ROOT
DOCKED: ATOM      1  N   UNL     1      28.845 -15.649  -2.445 -0.18 -0.00    +0.000 N 
DOCKED: ATOM      2  H   UNL     1      29.746 -15.347  -2.074 +0.00 -0.00    +0.000 HD
DOCKED: ENDROOT
DOCKED: BRANCH   1   3
DOCKED: ATOM      3  C   UNL     1      27.903 -15.397  -1.323 -0.26 -0.00    +0.000 C 
DOCKED: BRANCH   3   7
DOCKED: ATOM      4  C   UNL     1      24.404 -17.969  -1.206 -0.66 -0.00    +0.000 A 
DOCKED: ATOM      5  C   UNL     1      25.616 -18.381  -0.630 -0.56 -0.00    +0.000 A 
DOCKED: ATOM      6  C   UNL     1      26.740 -17.553  -0.666 -0.50 -0.00    +0.000 A 
DOCKED: ATOM      7  C   UNL     1      26.686 -16.303  -1.304 -0.40 -0.00    +0.000 A 
DOCKED: ATOM      8  C   UNL     1      25.472 -15.882  -1.869 -0.47 -0.00    +0.000 A 
DOCKED: ATOM      9  C   UNL     1      24.345 -16.709  -1.834 -0.46 -0.00    +0.000 A 
DOCKED: BRANCH   4  11
DOCKED: ATOM     10  C   UNL     1      21.995 -18.501  -0.852 -0.83 -0.00    +0.000 C 
DOCKED: ATOM     11  C   UNL     1      23.242 -18.890  -1.153 -0.80 -0.00    +0.000 C 
DOCKED: BRANCH  10  13
DOCKED: ATOM     12  O   UNL     1      20.216 -19.735  -1.841 -2.37 -0.00    +0.000 OA
DOCKED: ATOM     13  C   UNL     1      20.866 -19.450  -0.798 -0.87 -0.00    +0.000 C 
DOCKED: ATOM     14  N   UNL     1      20.503 -20.052   0.446 -0.69 -0.00    +0.000 N 
DOCKED: ATOM     15  O   UNL     1      19.470 -20.924   0.511 -0.89 -0.00    +0.000 OA
DOCKED: ATOM     16  H   UNL     1      21.008 -19.831   1.262 -0.51 -0.00    +0.000 HD
DOCKED: ENDBRANCH  10  13
DOCKED: ENDBRANCH   4  11
DOCKED: ENDBRANCH   3   7
DOCKED: ENDBRANCH   1   3
DOCKED: BRANCH   1  17
DOCKED: ATOM     17  C   UNL     1      28.636 -14.800  -3.639 -0.21 -0.00    +0.000 C 
DOCKED: BRANCH  17  18
DOCKED: ATOM     18  C   UNL     1      28.168 -15.626  -4.846 -0.38 -0.00    +0.000 C 
DOCKED: BRANCH  18  19
DOCKED: ATOM     19  O   UNL     1      26.846 -15.307  -5.187 -1.03 +0.00    +0.000 OA
DOCKED: ATOM     20  H   UNL     1      26.345 -16.124  -5.338 -0.07 +0.00    +0.000 HD
DOCKED: ENDBRANCH  18  19
DOCKED: ENDBRANCH  17  18
DOCKED: ENDBRANCH   1  17
DOCKED: BRANCH   1  21
DOCKED: ATOM     21  C   UNL     1      28.998 -17.085  -2.778 -0.14 -0.00    +0.000 C 
DOCKED: BRANCH  21  22
DOCKED: ATOM     22  C   UNL     1      30.479 -17.442  -2.942 -0.19 -0.00    +0.000 C 
DOCKED: BRANCH  22  23
DOCKED: ATOM     23  C   UNL     1      30.928 -17.225  -4.358 -0.17 -0.00    +0.000 A 
DOCKED: ATOM     24  C   UNL     1      31.762 -16.206  -4.810 -0.07 -0.00    +0.000 A 
DOCKED: ATOM     25  N   UNL     1      32.070 -16.390  -6.114 -0.09 -0.00    +0.000 N 
DOCKED: ATOM     26  C   UNL     1      31.451 -17.524  -6.485 -0.21 -0.00    +0.000 A 
DOCKED: ATOM     27  C   UNL     1      30.747 -18.065  -5.441 -0.27 -0.00    +0.000 A 
DOCKED: ATOM     28  C   UNL     1      30.046 -19.266  -5.571 -0.25 -0.00    +0.000 A 
DOCKED: ATOM     29  C   UNL     1      30.079 -19.912  -6.820 -0.39 -0.00    +0.000 A 
DOCKED: ATOM     30  C   UNL     1      30.804 -19.353  -7.896 -0.36 -0.00    +0.000 A 
DOCKED: ATOM     31  C   UNL     1      31.503 -18.144  -7.733 -0.26 -0.00    +0.000 A 
DOCKED: ATOM     32  H   UNL     1      32.633 -15.811  -6.676 +0.00 -0.00    +0.000 HD
DOCKED: ENDBRANCH  22  23
DOCKED: ENDBRANCH  21  22
DOCKED: ENDBRANCH   1  21
DOCKED: TORSDOF 10
DOCKED: TER
DOCKED: ENDMDL
________________________________________________________________________________


	BEGINNING GENETIC ALGORITHM DOCKING 10 of 100
Run: 10 Seed: 1058646163 403209989 [ Run 10 of 100 GA/GALS ]
Beginning LAMARCKIAN GENETIC ALGORITHM (LGA), with a maximum of 2500000 energy evaluations.

Final-Value: -15.824


	FINAL GENETIC ALGORITHM DOCKED STATE
	_______________________________________________


Detailed state:  trans 29.935 -16.448 -1.311 quatxyzw 0.689787 0.203138 0.618035 -0.317745 center 0.285 0.077 -0.044 ntor 10 8.0498 115.7314 -106.0269 3.5200 174.4802 148.9997 125.8045 -109.1682 -7.7016 -158.6273
State:	 29.935 -16.448  -1.311   0.727  0.214  0.652 -142.947      8.05  115.73 -106.03    3.52  174.48  149.00  125.80 -109.17   -7.70 -158.63

DOCKED: MODEL       10
DOCKED: USER    Run = 10
DOCKED: USER    DPF = ligand_dock.biased.dpf
DOCKED: USER  
DOCKED: USER    Estimated Free Energy of Binding    =  -11.18 kcal/mol  [=(1)+(2)+(3)-(4)]
DOCKED: USER    Estimated Inhibition Constant, Ki   =    6.38 nM (nanomolar)  [Temperature = 298.15 K]
DOCKED: USER    
DOCKED: USER    (1) Final Intermolecular Energy     =  -14.16 kcal/mol
DOCKED: USER        vdW + Hbond + desolv Energy     =  -14.16 kcal/mol
DOCKED: USER        Electrostatic Energy            =   +0.00 kcal/mol
DOCKED: USER    (2) Final Total Internal Energy     =   -1.66 kcal/mol
DOCKED: USER    (3) Torsional Free Energy           =   +2.98 kcal/mol
DOCKED: USER    (4) Unbound System's Energy  [=(2)] =   -1.66 kcal/mol
DOCKED: USER    
DOCKED: USER    
DOCKED: USER    NEWDPF move ligand.pdbqt
DOCKED: USER    NEWDPF about 0.285000 0.077000 -0.044000
DOCKED: USER    NEWDPF tran0 29.934616 -16.448458 -1.311404
DOCKED: USER    NEWDPF quaternion0 0.689787 0.203138 0.618035 -0.317745
DOCKED: USER    NEWDPF axisangle0 0.727488 0.214241 0.651814 -142.946830
DOCKED: USER    NEWDPF quat0 0.727488 0.214241 0.651814 -142.946830
DOCKED: USER    NEWDPF dihe0 8.05 115.73 -106.03 3.52 174.48 149.00 125.80 -109.17 -7.70 -158.63 
DOCKED: USER  keepresnum = 1 
DOCKED: USER  
DOCKED: REMARK  Name = 
DOCKED: REMARK  10 active torsions:
DOCKED: REMARK  status: ('A' for Active; 'I' for Inactive)
DOCKED: REMARK    1  A    between atoms: C_2  and  C_5
DOCKED: REMARK    2  A    between atoms: C_6  and  C_7
DOCKED: REMARK    3  A    between atoms: C_10  and  C_11
DOCKED: REMARK    4  A    between atoms: C_11  and  N_12
DOCKED: REMARK    5  A    between atoms: N_12  and  C_13
DOCKED: REMARK    6  A    between atoms: N_12  and  C_16
DOCKED: REMARK    7  A    between atoms: C_13  and  C_14
DOCKED: REMARK    8  A    between atoms: C_14  and  O_15
DOCKED: REMARK    9  A    between atoms: C_16  and  C_17
DOCKED: REMARK   10  A    between atoms: C_17  and  C_18
DOCKED: REMARK                            x       y       z     vdW  Elec       q    Type
DOCKED: REMARK                         _______ _______ _______ _____ _____    ______ ____
DOCKED: USER                              x       y       z     vdW  Elec       q    Type
DOCKED: USER                           _______ _______ _______ _____ _____    ______ ____
DOCKED: ROOT
DOCKED: ATOM      1  N   UNL     1      29.711 -17.103  -2.454 -0.22 -0.00    +0.000 N 
DOCKED: ATOM      2  H   UNL     1      28.990 -17.564  -3.009 -0.02 -0.00    +0.000 HD
DOCKED: ENDROOT
DOCKED: BRANCH   1   3
DOCKED: ATOM      3  C   UNL     1      28.942 -16.191  -1.569 -0.25 -0.00    +0.000 C 
DOCKED: BRANCH   3   7
DOCKED: ATOM      4  C   UNL     1      24.692 -17.031  -1.253 -0.59 -0.00    +0.000 A 
DOCKED: ATOM      5  C   UNL     1      25.617 -17.702  -0.439 -0.59 -0.00    +0.000 A 
DOCKED: ATOM      6  C   UNL     1      26.984 -17.430  -0.538 -0.47 -0.00    +0.000 A 
DOCKED: ATOM      7  C   UNL     1      27.460 -16.500  -1.477 -0.34 -0.00    +0.000 A 
DOCKED: ATOM      8  C   UNL     1      26.536 -15.817  -2.283 -0.38 -0.00    +0.000 A 
DOCKED: ATOM      9  C   UNL     1      25.168 -16.087  -2.185 -0.50 -0.00    +0.000 A 
DOCKED: BRANCH   4  11
DOCKED: ATOM     10  C   UNL     1      22.799 -18.549  -0.684 -0.83 -0.00    +0.000 C 
DOCKED: ATOM     11  C   UNL     1      23.253 -17.365  -1.118 -0.69 -0.00    +0.000 C 
DOCKED: BRANCH  10  13
DOCKED: ATOM     12  O   UNL     1      20.496 -17.997  -0.930 -2.21 -0.00    +0.000 OA
DOCKED: ATOM     13  C   UNL     1      21.357 -18.847  -0.574 -0.86 -0.00    +0.000 C 
DOCKED: ATOM     14  N   UNL     1      20.931 -20.110  -0.057 -0.66 -0.00    +0.000 N 
DOCKED: ATOM     15  O   UNL     1      19.613 -20.397   0.050 -1.16 -0.00    +0.000 OA
DOCKED: ATOM     16  H   UNL     1      21.601 -20.775   0.222 -0.55 -0.00    +0.000 HD
DOCKED: ENDBRANCH  10  13
DOCKED: ENDBRANCH   4  11
DOCKED: ENDBRANCH   3   7
DOCKED: ENDBRANCH   1   3
DOCKED: BRANCH   1  17
DOCKED: ATOM     17  C   UNL     1      30.403 -18.212  -1.759 -0.17 -0.00    +0.000 C 
DOCKED: BRANCH  17  18
DOCKED: ATOM     18  C   UNL     1      30.943 -17.774  -0.390 -0.18 -0.00    +0.000 C 
DOCKED: BRANCH  18  19
DOCKED: ATOM     19  O   UNL     1      31.329 -18.885   0.372 -0.20 -0.00    +0.000 OA
DOCKED: ATOM     20  H   UNL     1      30.598 -19.521   0.411 -0.38 -0.00    +0.000 HD
DOCKED: ENDBRANCH  18  19
DOCKED: ENDBRANCH  17  18
DOCKED: ENDBRANCH   1  17
DOCKED: BRANCH   1  21
DOCKED: ATOM     21  C   UNL     1      30.584 -16.395  -3.420 -0.15 -0.00    +0.000 C 
DOCKED: BRANCH  21  22
DOCKED: ATOM     22  C   UNL     1      31.640 -17.349  -3.987 -0.12 -0.00    +0.000 C 
DOCKED: BRANCH  22  23
DOCKED: ATOM     23  C   UNL     1      30.999 -18.439  -4.795 -0.23 -0.00    +0.000 A 
DOCKED: ATOM     24  C   UNL     1      30.343 -18.284  -6.013 -0.33 -0.00    +0.000 A 
DOCKED: ATOM     25  N   UNL     1      30.007 -19.489  -6.527 -0.46 -0.00    +0.000 N 
DOCKED: ATOM     26  C   UNL     1      30.459 -20.404  -5.652 -0.39 -0.00    +0.000 A 
DOCKED: ATOM     27  C   UNL     1      31.073 -19.803  -4.584 -0.21 -0.00    +0.000 A 
DOCKED: ATOM     28  C   UNL     1      31.655 -20.549  -3.556 -0.15 -0.00    +0.000 A 
DOCKED: ATOM     29  C   UNL     1      31.589 -21.951  -3.646 -0.15 -0.00    +0.000 A 
DOCKED: ATOM     30  C   UNL     1      30.956 -22.569  -4.746 -0.25 -0.00    +0.000 A 
DOCKED: ATOM     31  C   UNL     1      30.382 -21.791  -5.768 -0.26 -0.00    +0.000 A 
DOCKED: ATOM     32  H   UNL     1      29.529 -19.660  -7.370 -0.21 -0.00    +0.000 HD
DOCKED: ENDBRANCH  22  23
DOCKED: ENDBRANCH  21  22
DOCKED: ENDBRANCH   1  21
DOCKED: TORSDOF 10
DOCKED: TER
DOCKED: ENDMDL
________________________________________________________________________________


	BEGINNING GENETIC ALGORITHM DOCKING 11 of 100
Run: 11 Seed: 292286002 1923275677 [ Run 11 of 100 GA/GALS ]
Beginning LAMARCKIAN GENETIC ALGORITHM (LGA), with a maximum of 2500000 energy evaluations.

Final-Value: -16.379


	FINAL GENETIC ALGORITHM DOCKED STATE
	_______________________________________________


Detailed state:  trans 28.147 -15.913 -2.441 quatxyzw -0.179904 0.952908 -0.091620 0.226288 center 0.285 0.077 -0.044 ntor 10 -86.8762 77.2933 176.0233 -82.5196 85.2035 55.2036 -117.5318 -77.6629 -151.5685 3.5919
State:	 28.147 -15.913  -2.441  -0.185  0.978 -0.094 153.843    -86.88   77.29  176.02  -82.52   85.20   55.20 -117.53  -77.66 -151.57    3.59

DOCKED: MODEL       11
DOCKED: USER    Run = 11
DOCKED: USER    DPF = ligand_dock.biased.dpf
DOCKED: USER  
DOCKED: USER    Estimated Free Energy of Binding    =  -12.14 kcal/mol  [=(1)+(2)+(3)-(4)]
DOCKED: USER    Estimated Inhibition Constant, Ki   =    1.26 nM (nanomolar)  [Temperature = 298.15 K]
DOCKED: USER    
DOCKED: USER    (1) Final Intermolecular Energy     =  -15.12 kcal/mol
DOCKED: USER        vdW + Hbond + desolv Energy     =  -15.12 kcal/mol
DOCKED: USER        Electrostatic Energy            =   +0.00 kcal/mol
DOCKED: USER    (2) Final Total Internal Energy     =   -1.26 kcal/mol
DOCKED: USER    (3) Torsional Free Energy           =   +2.98 kcal/mol
DOCKED: USER    (4) Unbound System's Energy  [=(2)] =   -1.26 kcal/mol
DOCKED: USER    
DOCKED: USER    
DOCKED: USER    NEWDPF move ligand.pdbqt
DOCKED: USER    NEWDPF about 0.285000 0.077000 -0.044000
DOCKED: USER    NEWDPF tran0 28.147492 -15.913116 -2.441454
DOCKED: USER    NEWDPF quaternion0 -0.179904 0.952908 -0.091620 0.226288
DOCKED: USER    NEWDPF axisangle0 -0.184695 0.978284 -0.094060 153.842756
DOCKED: USER    NEWDPF quat0 -0.184695 0.978284 -0.094060 153.842756
DOCKED: USER    NEWDPF dihe0 -86.88 77.29 176.02 -82.52 85.20 55.20 -117.53 -77.66 -151.57 3.59 
DOCKED: USER  keepresnum = 1 
DOCKED: USER  
DOCKED: REMARK  Name = 
DOCKED: REMARK  10 active torsions:
DOCKED: REMARK  status: ('A' for Active; 'I' for Inactive)
DOCKED: REMARK    1  A    between atoms: C_2  and  C_5
DOCKED: REMARK    2  A    between atoms: C_6  and  C_7
DOCKED: REMARK    3  A    between atoms: C_10  and  C_11
DOCKED: REMARK    4  A    between atoms: C_11  and  N_12
DOCKED: REMARK    5  A    between atoms: N_12  and  C_13
DOCKED: REMARK    6  A    between atoms: N_12  and  C_16
DOCKED: REMARK    7  A    between atoms: C_13  and  C_14
DOCKED: REMARK    8  A    between atoms: C_14  and  O_15
DOCKED: REMARK    9  A    between atoms: C_16  and  C_17
DOCKED: REMARK   10  A    between atoms: C_17  and  C_18
DOCKED: REMARK                            x       y       z     vdW  Elec       q    Type
DOCKED: REMARK                         _______ _______ _______ _____ _____    ______ ____
DOCKED: USER                              x       y       z     vdW  Elec       q    Type
DOCKED: USER                           _______ _______ _______ _____ _____    ______ ____
DOCKED: ROOT
DOCKED: ATOM      1  N   UNL     1      29.368 -15.776  -2.967 -0.17 -0.00    +0.000 N 
DOCKED: ATOM      2  H   UNL     1      30.282 -15.348  -2.820 +0.00 -0.00    +0.000 HD
DOCKED: ENDROOT
DOCKED: BRANCH   1   3
DOCKED: ATOM      3  C   UNL     1      28.785 -15.833  -1.602 -0.23 -0.00    +0.000 C 
DOCKED: BRANCH   3   7
DOCKED: ATOM      4  C   UNL     1      24.780 -17.510  -1.475 -0.61 -0.00    +0.000 A 
DOCKED: ATOM      5  C   UNL     1      25.054 -16.368  -2.242 -0.49 -0.00    +0.000 A 
DOCKED: ATOM      6  C   UNL     1      26.343 -15.829  -2.285 -0.41 -0.00    +0.000 A 
DOCKED: ATOM      7  C   UNL     1      27.382 -16.407  -1.537 -0.34 -0.00    +0.000 A 
DOCKED: ATOM      8  C   UNL     1      27.114 -17.558  -0.780 -0.44 -0.00    +0.000 A 
DOCKED: ATOM      9  C   UNL     1      25.826 -18.098  -0.736 -0.56 -0.00    +0.000 A 
DOCKED: BRANCH   4  11
DOCKED: ATOM     10  C   UNL     1      22.626 -18.071  -0.353 -0.82 -0.00    +0.000 C 
DOCKED: ATOM     11  C   UNL     1      23.392 -18.035  -1.453 -0.73 -0.00    +0.000 C 
DOCKED: BRANCH  10  13
DOCKED: ATOM     12  O   UNL     1      20.282 -17.891  -0.727 -2.21 +0.00    +0.000 OA
DOCKED: ATOM     13  C   UNL     1      21.253 -18.612  -0.369 -0.79 -0.00    +0.000 C 
DOCKED: ATOM     14  N   UNL     1      21.018 -19.966   0.026 -0.66 -0.00    +0.000 N 
DOCKED: ATOM     15  O   UNL     1      19.765 -20.476   0.017 -1.19 -0.00    +0.000 OA
DOCKED: ATOM     16  H   UNL     1      21.774 -20.531   0.306 -0.59 -0.00    +0.000 HD
DOCKED: ENDBRANCH  10  13
DOCKED: ENDBRANCH   4  11
DOCKED: ENDBRANCH   3   7
DOCKED: ENDBRANCH   1   3
DOCKED: BRANCH   1  17
DOCKED: ATOM     17  C   UNL     1      28.679 -14.858  -3.902 -0.22 -0.00    +0.000 C 
DOCKED: BRANCH  17  18
DOCKED: ATOM     18  C   UNL     1      28.010 -15.620  -5.055 -0.36 -0.00    +0.000 C 
DOCKED: BRANCH  18  19
DOCKED: ATOM     19  O   UNL     1      26.667 -15.242  -5.190 -1.03 +0.00    +0.000 OA
DOCKED: ATOM     20  H   UNL     1      26.148 -16.000  -5.502 -0.09 +0.00    +0.000 HD
DOCKED: ENDBRANCH  18  19
DOCKED: ENDBRANCH  17  18
DOCKED: ENDBRANCH   1  17
DOCKED: BRANCH   1  21
DOCKED: ATOM     21  C   UNL     1      29.628 -17.111  -3.557 -0.24 -0.00    +0.000 C 
DOCKED: BRANCH  21  22
DOCKED: ATOM     22  C   UNL     1      30.535 -16.986  -4.785 -0.25 -0.00    +0.000 C 
DOCKED: BRANCH  22  23
DOCKED: ATOM     23  C   UNL     1      30.777 -18.328  -5.412 -0.28 -0.00    +0.000 A 
DOCKED: ATOM     24  C   UNL     1      30.724 -19.560  -4.765 -0.20 -0.00    +0.000 A 
DOCKED: ATOM     25  N   UNL     1      30.858 -20.569  -5.656 -0.33 -0.00    +0.000 N 
DOCKED: ATOM     26  C   UNL     1      30.980 -19.986  -6.860 -0.34 -0.00    +0.000 A 
DOCKED: ATOM     27  C   UNL     1      30.933 -18.619  -6.754 -0.32 -0.00    +0.000 A 
DOCKED: ATOM     28  C   UNL     1      31.004 -17.792  -7.876 -0.29 -0.00    +0.000 A 
DOCKED: ATOM     29  C   UNL     1      31.133 -18.405  -9.136 -0.29 -0.00    +0.000 A 
DOCKED: ATOM     30  C   UNL     1      31.183 -19.812  -9.245 -0.32 -0.00    +0.000 A 
DOCKED: ATOM     31  C   UNL     1      31.105 -20.620  -8.096 -0.29 -0.00    +0.000 A 
DOCKED: ATOM     32  H   UNL     1      30.865 -21.533  -5.460 -0.01 -0.00    +0.000 HD
DOCKED: ENDBRANCH  22  23
DOCKED: ENDBRANCH  21  22
DOCKED: ENDBRANCH   1  21
DOCKED: TORSDOF 10
DOCKED: TER
DOCKED: ENDMDL
________________________________________________________________________________


	BEGINNING GENETIC ALGORITHM DOCKING 12 of 100
Run: 12 Seed: 2082463918 630120847 [ Run 12 of 100 GA/GALS ]
Beginning LAMARCKIAN GENETIC ALGORITHM (LGA), with a maximum of 2500000 energy evaluations.

Final-Value: -17.269


	FINAL GENETIC ALGORITHM DOCKED STATE
	_______________________________________________


Detailed state:  trans 28.205 -15.366 -2.616 quatxyzw 0.724976 -0.309387 0.187751 0.586037 center 0.285 0.077 -0.044 ntor 10 -136.9373 2.3527 -1.2677 -127.5228 -171.8768 123.8770 -78.0508 47.3996 -49.0311 179.6668
State:	 28.205 -15.366  -2.616   0.895 -0.382  0.232 108.247   -136.94    2.35   -1.27 -127.52 -171.88  123.88  -78.05   47.40  -49.03  179.67

DOCKED: MODEL       12
DOCKED: USER    Run = 12
DOCKED: USER    DPF = ligand_dock.biased.dpf
DOCKED: USER  
DOCKED: USER    Estimated Free Energy of Binding    =  -12.20 kcal/mol  [=(1)+(2)+(3)-(4)]
DOCKED: USER    Estimated Inhibition Constant, Ki   =    1.13 nM (nanomolar)  [Temperature = 298.15 K]
DOCKED: USER    
DOCKED: USER    (1) Final Intermolecular Energy     =  -15.19 kcal/mol
DOCKED: USER        vdW + Hbond + desolv Energy     =  -15.19 kcal/mol
DOCKED: USER        Electrostatic Energy            =   +0.00 kcal/mol
DOCKED: USER    (2) Final Total Internal Energy     =   -2.08 kcal/mol
DOCKED: USER    (3) Torsional Free Energy           =   +2.98 kcal/mol
DOCKED: USER    (4) Unbound System's Energy  [=(2)] =   -2.08 kcal/mol
DOCKED: USER    
DOCKED: USER    
DOCKED: USER    NEWDPF move ligand.pdbqt
DOCKED: USER    NEWDPF about 0.285000 0.077000 -0.044000
DOCKED: USER    NEWDPF tran0 28.204518 -15.366066 -2.615857
DOCKED: USER    NEWDPF quaternion0 0.724976 -0.309387 0.187751 0.586037
DOCKED: USER    NEWDPF axisangle0 0.894718 -0.381825 0.231710 108.247453
DOCKED: USER    NEWDPF quat0 0.894718 -0.381825 0.231710 108.247453
DOCKED: USER    NEWDPF dihe0 -136.94 2.35 -1.27 -127.52 -171.88 123.88 -78.05 47.40 -49.03 179.67 
DOCKED: USER  keepresnum = 1 
DOCKED: USER  
DOCKED: REMARK  Name = 
DOCKED: REMARK  10 active torsions:
DOCKED: REMARK  status: ('A' for Active; 'I' for Inactive)
DOCKED: REMARK    1  A    between atoms: C_2  and  C_5
DOCKED: REMARK    2  A    between atoms: C_6  and  C_7
DOCKED: REMARK    3  A    between atoms: C_10  and  C_11
DOCKED: REMARK    4  A    between atoms: C_11  and  N_12
DOCKED: REMARK    5  A    between atoms: N_12  and  C_13
DOCKED: REMARK    6  A    between atoms: N_12  and  C_16
DOCKED: REMARK    7  A    between atoms: C_13  and  C_14
DOCKED: REMARK    8  A    between atoms: C_14  and  O_15
DOCKED: REMARK    9  A    between atoms: C_16  and  C_17
DOCKED: REMARK   10  A    between atoms: C_17  and  C_18
DOCKED: REMARK                            x       y       z     vdW  Elec       q    Type
DOCKED: REMARK                         _______ _______ _______ _____ _____    ______ ____
DOCKED: USER                              x       y       z     vdW  Elec       q    Type
DOCKED: USER                           _______ _______ _______ _____ _____    ______ ____
DOCKED: ROOT
DOCKED: ATOM      1  N   UNL     1      27.274 -14.502  -2.200 -0.22 -0.00    +0.000 N 
DOCKED: ATOM      2  H   UNL     1      26.278 -14.398  -2.007 -0.01 -0.00    +0.000 HD
DOCKED: ENDROOT
DOCKED: BRANCH   1   3
DOCKED: ATOM      3  C   UNL     1      27.496 -15.969  -2.113 -0.34 -0.00    +0.000 C 
DOCKED: BRANCH   3   7
DOCKED: ATOM      4  C   UNL     1      24.041 -18.291  -0.873 -0.71 -0.00    +0.000 A 
DOCKED: ATOM      5  C   UNL     1      23.908 -17.253  -1.807 -0.37 -0.00    +0.000 A 
DOCKED: ATOM      6  C   UNL     1      25.020 -16.507  -2.209 -0.50 -0.00    +0.000 A 
DOCKED: ATOM      7  C   UNL     1      26.287 -16.766  -1.661 -0.45 -0.00    +0.000 A 
DOCKED: ATOM      8  C   UNL     1      26.426 -17.813  -0.737 -0.52 -0.00    +0.000 A 
DOCKED: ATOM      9  C   UNL     1      25.315 -18.560  -0.335 -0.55 -0.00    +0.000 A 
DOCKED: BRANCH   4  11
DOCKED: ATOM     10  C   UNL     1      21.577 -18.650  -0.750 -0.86 -0.00    +0.000 C 
DOCKED: ATOM     11  C   UNL     1      22.828 -19.045  -0.471 -0.76 -0.00    +0.000 C 
DOCKED: BRANCH  10  13
DOCKED: ATOM     12  O   UNL     1      19.498 -19.737  -1.152 -1.92 -0.00    +0.000 OA
DOCKED: ATOM     13  C   UNL     1      20.395 -19.423  -0.323 -0.88 -0.00    +0.000 C 
DOCKED: ATOM     14  N   UNL     1      20.262 -19.819   1.044 -0.69 -0.00    +0.000 N 
DOCKED: ATOM     15  O   UNL     1      19.183 -20.527   1.452 -0.73 -0.00    +0.000 OA
DOCKED: ATOM     16  H   UNL     1      20.961 -19.575   1.694 -0.46 -0.00    +0.000 HD
DOCKED: ENDBRANCH  10  13
DOCKED: ENDBRANCH   4  11
DOCKED: ENDBRANCH   3   7
DOCKED: ENDBRANCH   1   3
DOCKED: BRANCH   1  17
DOCKED: ATOM     17  C   UNL     1      27.448 -13.923  -3.551 -0.26 -0.00    +0.000 C 
DOCKED: BRANCH  17  18
DOCKED: ATOM     18  C   UNL     1      26.342 -14.383  -4.512 -0.48 -0.00    +0.000 C 
DOCKED: BRANCH  18  19
DOCKED: ATOM     19  O   UNL     1      25.074 -14.121  -3.975 -0.92 -0.00    +0.000 OA
DOCKED: ATOM     20  H   UNL     1      24.411 -14.153  -4.682 -0.40 -0.00    +0.000 HD
DOCKED: ENDBRANCH  18  19
DOCKED: ENDBRANCH  17  18
DOCKED: ENDBRANCH   1  17
DOCKED: BRANCH   1  21
DOCKED: ATOM     21  C   UNL     1      27.980 -13.733  -1.148 -0.15 -0.00    +0.000 C 
DOCKED: BRANCH  21  22
DOCKED: ATOM     22  C   UNL     1      27.891 -14.461   0.197 -0.25 -0.00    +0.000 C 
DOCKED: BRANCH  22  23
DOCKED: ATOM     23  C   UNL     1      27.644 -13.491   1.316 -0.23 -0.00    +0.000 A 
DOCKED: ATOM     24  C   UNL     1      26.754 -12.421   1.296 -0.29 -0.00    +0.000 A 
DOCKED: ATOM     25  N   UNL     1      26.686 -11.840   2.516 -0.32 +0.00    +0.000 N 
DOCKED: ATOM     26  C   UNL     1      27.512 -12.542   3.308 -0.28 -0.00    +0.000 A 
DOCKED: ATOM     27  C   UNL     1      28.114 -13.560   2.614 -0.27 -0.00    +0.000 A 
DOCKED: ATOM     28  C   UNL     1      28.991 -14.453   3.233 -0.23 -0.00    +0.000 A 
DOCKED: ATOM     29  C   UNL     1      29.249 -14.275   4.604 -0.39 -0.00    +0.000 A 
DOCKED: ATOM     30  C   UNL     1      28.631 -13.225   5.318 -0.39 -0.00    +0.000 A 
DOCKED: ATOM     31  C   UNL     1      27.747 -12.344   4.668 -0.33 +0.00    +0.000 A 
DOCKED: ATOM     32  H   UNL     1      26.141 -11.060   2.769 -0.03 +0.00    +0.000 HD
DOCKED: ENDBRANCH  22  23
DOCKED: ENDBRANCH  21  22
DOCKED: ENDBRANCH   1  21
DOCKED: TORSDOF 10
DOCKED: TER
DOCKED: ENDMDL
________________________________________________________________________________


	BEGINNING GENETIC ALGORITHM DOCKING 13 of 100
Run: 13 Seed: 523062615 1054460843 [ Run 13 of 100 GA/GALS ]
Beginning LAMARCKIAN GENETIC ALGORITHM (LGA), with a maximum of 2500000 energy evaluations.

Final-Value: -18.694


	FINAL GENETIC ALGORITHM DOCKED STATE
	_______________________________________________


Detailed state:  trans 28.174 -15.595 -1.034 quatxyzw -0.485319 0.585364 0.569560 -0.312114 center 0.285 0.077 -0.044 ntor 10 -23.4274 -13.6451 52.5651 -39.7830 -126.1650 -137.4458 -2.3595 -166.6081 168.0014 -70.6046
State:	 28.174 -15.595  -1.034  -0.511  0.616  0.600 -143.627    -23.43  -13.65   52.57  -39.78 -126.16 -137.45   -2.36 -166.61  168.00  -70.60

DOCKED: MODEL       13
DOCKED: USER    Run = 13
DOCKED: USER    DPF = ligand_dock.biased.dpf
DOCKED: USER  
DOCKED: USER    Estimated Free Energy of Binding    =  -12.77 kcal/mol  [=(1)+(2)+(3)-(4)]
DOCKED: USER    Estimated Inhibition Constant, Ki   =  433.31 pM (picomolar)  [Temperature = 298.15 K]
DOCKED: USER    
DOCKED: USER    (1) Final Intermolecular Energy     =  -15.76 kcal/mol
DOCKED: USER        vdW + Hbond + desolv Energy     =  -15.76 kcal/mol
DOCKED: USER        Electrostatic Energy            =   +0.00 kcal/mol
DOCKED: USER    (2) Final Total Internal Energy     =   -2.94 kcal/mol
DOCKED: USER    (3) Torsional Free Energy           =   +2.98 kcal/mol
DOCKED: USER    (4) Unbound System's Energy  [=(2)] =   -2.94 kcal/mol
DOCKED: USER    
DOCKED: USER    
DOCKED: USER    NEWDPF move ligand.pdbqt
DOCKED: USER    NEWDPF about 0.285000 0.077000 -0.044000
DOCKED: USER    NEWDPF tran0 28.173923 -15.594897 -1.033560
DOCKED: USER    NEWDPF quaternion0 -0.485319 0.585364 0.569560 -0.312114
DOCKED: USER    NEWDPF axisangle0 -0.510838 0.616144 0.599509 -143.626592
DOCKED: USER    NEWDPF quat0 -0.510838 0.616144 0.599509 -143.626592
DOCKED: USER    NEWDPF dihe0 -23.43 -13.65 52.57 -39.78 -126.16 -137.45 -2.36 -166.61 168.00 -70.60 
DOCKED: USER  keepresnum = 1 
DOCKED: USER  
DOCKED: REMARK  Name = 
DOCKED: REMARK  10 active torsions:
DOCKED: REMARK  status: ('A' for Active; 'I' for Inactive)
DOCKED: REMARK    1  A    between atoms: C_2  and  C_5
DOCKED: REMARK    2  A    between atoms: C_6  and  C_7
DOCKED: REMARK    3  A    between atoms: C_10  and  C_11
DOCKED: REMARK    4  A    between atoms: C_11  and  N_12
DOCKED: REMARK    5  A    between atoms: N_12  and  C_13
DOCKED: REMARK    6  A    between atoms: N_12  and  C_16
DOCKED: REMARK    7  A    between atoms: C_13  and  C_14
DOCKED: REMARK    8  A    between atoms: C_14  and  O_15
DOCKED: REMARK    9  A    between atoms: C_16  and  C_17
DOCKED: REMARK   10  A    between atoms: C_17  and  C_18
DOCKED: REMARK                            x       y       z     vdW  Elec       q    Type
DOCKED: REMARK                         _______ _______ _______ _____ _____    ______ ____
DOCKED: USER                              x       y       z     vdW  Elec       q    Type
DOCKED: USER                           _______ _______ _______ _____ _____    ______ ____
DOCKED: ROOT
DOCKED: ATOM      1  N   UNL     1      28.891 -15.339   0.064 -0.20 -0.00    +0.000 N 
DOCKED: ATOM      2  H   UNL     1      29.253 -15.752   0.923 -0.69 -0.00    +0.000 HD
DOCKED: ENDROOT
DOCKED: BRANCH   1   3
DOCKED: ATOM      3  C   UNL     1      28.650 -16.513  -0.814 -0.30 -0.00    +0.000 C 
DOCKED: BRANCH   3   7
DOCKED: ATOM      4  C   UNL     1      24.459 -17.598  -1.172 -0.65 -0.00    +0.000 A 
DOCKED: ATOM      5  C   UNL     1      25.305 -18.289  -0.292 -0.61 -0.00    +0.000 A 
DOCKED: ATOM      6  C   UNL     1      26.653 -17.939  -0.175 -0.51 -0.00    +0.000 A 
DOCKED: ATOM      7  C   UNL     1      27.192 -16.906  -0.958 -0.41 -0.00    +0.000 A 
DOCKED: ATOM      8  C   UNL     1      26.345 -16.203  -1.829 -0.42 -0.00    +0.000 A 
DOCKED: ATOM      9  C   UNL     1      24.996 -16.551  -1.947 -0.53 -0.00    +0.000 A 
DOCKED: BRANCH   4  11
DOCKED: ATOM     10  C   UNL     1      22.334 -18.507  -0.239 -0.82 -0.00    +0.000 C 
DOCKED: ATOM     11  C   UNL     1      23.039 -18.016  -1.268 -0.72 -0.00    +0.000 C 
DOCKED: BRANCH  10  13
DOCKED: ATOM     12  O   UNL     1      20.116 -18.237  -1.061 -1.99 -0.00    +0.000 OA
DOCKED: ATOM     13  C   UNL     1      20.925 -18.923  -0.378 -0.82 -0.00    +0.000 C 
DOCKED: ATOM     14  N   UNL     1      20.469 -20.114   0.268 -0.70 -0.00    +0.000 N 
DOCKED: ATOM     15  O   UNL     1      19.179 -20.507   0.151 -1.04 -0.00    +0.000 OA
DOCKED: ATOM     16  H   UNL     1      21.098 -20.651   0.803 -0.59 -0.00    +0.000 HD
DOCKED: ENDBRANCH  10  13
DOCKED: ENDBRANCH   4  11
DOCKED: ENDBRANCH   3   7
DOCKED: ENDBRANCH   1   3
DOCKED: BRANCH   1  17
DOCKED: ATOM     17  C   UNL     1      27.672 -14.616   0.490 -0.28 -0.00    +0.000 C 
DOCKED: BRANCH  17  18
DOCKED: ATOM     18  C   UNL     1      27.553 -14.555   2.019 -0.11 -0.00    +0.000 C 
DOCKED: BRANCH  18  19
DOCKED: ATOM     19  O   UNL     1      28.812 -14.375   2.610 -0.31 -0.00    +0.000 OA
DOCKED: ATOM     20  H   UNL     1      29.250 -15.235   2.705 -2.02 -0.00    +0.000 HD
DOCKED: ENDBRANCH  18  19
DOCKED: ENDBRANCH  17  18
DOCKED: ENDBRANCH   1  17
DOCKED: BRANCH   1  21
DOCKED: ATOM     21  C   UNL     1      29.953 -14.434  -0.436 -0.09 -0.00    +0.000 C 
DOCKED: BRANCH  21  22
DOCKED: ATOM     22  C   UNL     1      29.337 -13.159  -1.023 -0.06 -0.00    +0.000 C 
DOCKED: BRANCH  22  23
DOCKED: ATOM     23  C   UNL     1      28.485 -13.476  -2.217 -0.09 -0.00    +0.000 A 
DOCKED: ATOM     24  C   UNL     1      27.275 -12.872  -2.548 -0.15 -0.00    +0.000 A 
DOCKED: ATOM     25  N   UNL     1      26.847 -13.303  -3.757 -0.25 -0.00    +0.000 N 
DOCKED: ATOM     26  C   UNL     1      27.782 -14.161  -4.198 -0.24 -0.00    +0.000 A 
DOCKED: ATOM     27  C   UNL     1      28.799 -14.292  -3.288 -0.12 -0.00    +0.000 A 
DOCKED: ATOM     28  C   UNL     1      29.907 -15.104  -3.536 -0.11 -0.00    +0.000 A 
DOCKED: ATOM     29  C   UNL     1      29.951 -15.798  -4.759 -0.20 -0.00    +0.000 A 
DOCKED: ATOM     30  C   UNL     1      28.902 -15.664  -5.695 -0.33 -0.00    +0.000 A 
DOCKED: ATOM     31  C   UNL     1      27.800 -14.834  -5.418 -0.38 -0.00    +0.000 A 
DOCKED: ATOM     32  H   UNL     1      26.018 -13.040  -4.218 -0.02 -0.00    +0.000 HD
DOCKED: ENDBRANCH  22  23
DOCKED: ENDBRANCH  21  22
DOCKED: ENDBRANCH   1  21
DOCKED: TORSDOF 10
DOCKED: TER
DOCKED: ENDMDL
________________________________________________________________________________


	BEGINNING GENETIC ALGORITHM DOCKING 14 of 100
Run: 14 Seed: 1189710899 2001690039 [ Run 14 of 100 GA/GALS ]
Beginning LAMARCKIAN GENETIC ALGORITHM (LGA), with a maximum of 2500000 energy evaluations.

Final-Value: -15.687


	FINAL GENETIC ALGORITHM DOCKED STATE
	_______________________________________________


Detailed state:  trans 26.918 -15.468 -0.834 quatxyzw -0.128355 0.919408 0.255688 0.269886 center 0.285 0.077 -0.044 ntor 10 138.7957 -166.1384 -40.4088 -61.0016 -174.5021 -56.0756 159.2900 -168.2926 -162.4614 31.0440
State:	 26.918 -15.468  -0.834  -0.133  0.955  0.266 148.685    138.80 -166.14  -40.41  -61.00 -174.50  -56.08  159.29 -168.29 -162.46   31.04

DOCKED: MODEL       14
DOCKED: USER    Run = 14
DOCKED: USER    DPF = ligand_dock.biased.dpf
DOCKED: USER  
DOCKED: USER    Estimated Free Energy of Binding    =  -10.88 kcal/mol  [=(1)+(2)+(3)-(4)]
DOCKED: USER    Estimated Inhibition Constant, Ki   =   10.56 nM (nanomolar)  [Temperature = 298.15 K]
DOCKED: USER    
DOCKED: USER    (1) Final Intermolecular Energy     =  -13.86 kcal/mol
DOCKED: USER        vdW + Hbond + desolv Energy     =  -13.86 kcal/mol
DOCKED: USER        Electrostatic Energy            =   +0.00 kcal/mol
DOCKED: USER    (2) Final Total Internal Energy     =   -1.82 kcal/mol
DOCKED: USER    (3) Torsional Free Energy           =   +2.98 kcal/mol
DOCKED: USER    (4) Unbound System's Energy  [=(2)] =   -1.82 kcal/mol
DOCKED: USER    
DOCKED: USER    
DOCKED: USER    NEWDPF move ligand.pdbqt
DOCKED: USER    NEWDPF about 0.285000 0.077000 -0.044000
DOCKED: USER    NEWDPF tran0 26.917781 -15.467526 -0.834078
DOCKED: USER    NEWDPF quaternion0 -0.128355 0.919408 0.255688 0.269886
DOCKED: USER    NEWDPF axisangle0 -0.133301 0.954840 0.265541 148.685034
DOCKED: USER    NEWDPF quat0 -0.133301 0.954840 0.265541 148.685034
DOCKED: USER    NEWDPF dihe0 138.80 -166.14 -40.41 -61.00 -174.50 -56.08 159.29 -168.29 -162.46 31.04 
DOCKED: USER  keepresnum = 1 
DOCKED: USER  
DOCKED: REMARK  Name = 
DOCKED: REMARK  10 active torsions:
DOCKED: REMARK  status: ('A' for Active; 'I' for Inactive)
DOCKED: REMARK    1  A    between atoms: C_2  and  C_5
DOCKED: REMARK    2  A    between atoms: C_6  and  C_7
DOCKED: REMARK    3  A    between atoms: C_10  and  C_11
DOCKED: REMARK    4  A    between atoms: C_11  and  N_12
DOCKED: REMARK    5  A    between atoms: N_12  and  C_13
DOCKED: REMARK    6  A    between atoms: N_12  and  C_16
DOCKED: REMARK    7  A    between atoms: C_13  and  C_14
DOCKED: REMARK    8  A    between atoms: C_14  and  O_15
DOCKED: REMARK    9  A    between atoms: C_16  and  C_17
DOCKED: REMARK   10  A    between atoms: C_17  and  C_18
DOCKED: REMARK                            x       y       z     vdW  Elec       q    Type
DOCKED: REMARK                         _______ _______ _______ _____ _____    ______ ____
DOCKED: USER                              x       y       z     vdW  Elec       q    Type
DOCKED: USER                           _______ _______ _______ _____ _____    ______ ____
DOCKED: ROOT
DOCKED: ATOM      1  N   UNL     1      28.049 -15.250  -1.511 -0.19 -0.00    +0.000 N 
DOCKED: ATOM      2  H   UNL     1      29.060 -15.161  -1.414 +0.00 -0.00    +0.000 HD
DOCKED: ENDROOT
DOCKED: BRANCH   1   3
DOCKED: ATOM      3  C   UNL     1      27.648 -16.021  -0.306 -0.35 -0.00    +0.000 C 
DOCKED: BRANCH   3   7
DOCKED: ATOM      4  C   UNL     1      23.986 -18.299  -0.827 -0.71 -0.00    +0.000 A 
DOCKED: ATOM      5  C   UNL     1      23.955 -16.898  -0.764 -0.54 -0.00    +0.000 A 
DOCKED: ATOM      6  C   UNL     1      25.133 -16.165  -0.599 -0.24 -0.00    +0.000 A 
DOCKED: ATOM      7  C   UNL     1      26.367 -16.820  -0.464 -0.46 -0.00    +0.000 A 
DOCKED: ATOM      8  C   UNL     1      26.404 -18.221  -0.541 -0.52 -0.00    +0.000 A 
DOCKED: ATOM      9  C   UNL     1      25.226 -18.956  -0.707 -0.19 -0.00    +0.000 A 
DOCKED: BRANCH   4  11
DOCKED: ATOM     10  C   UNL     1      21.500 -18.481  -0.790 -0.83 -0.00    +0.000 C 
DOCKED: ATOM     11  C   UNL     1      22.706 -19.032  -0.991 -0.81 -0.00    +0.000 C 
DOCKED: BRANCH  10  13
DOCKED: ATOM     12  O   UNL     1      19.935 -19.735  -2.073 -2.35 -0.00    +0.000 OA
DOCKED: ATOM     13  C   UNL     1      20.249 -19.247  -0.953 -0.89 -0.00    +0.000 C 
DOCKED: ATOM     14  N   UNL     1      19.382 -19.437   0.168 -0.75 -0.00    +0.000 N 
DOCKED: ATOM     15  O   UNL     1      18.231 -20.137   0.034 -0.86 -0.00    +0.000 OA
DOCKED: ATOM     16  H   UNL     1      19.625 -19.057   1.043 -0.22 -0.00    +0.000 HD
DOCKED: ENDBRANCH  10  13
DOCKED: ENDBRANCH   4  11
DOCKED: ENDBRANCH   3   7
DOCKED: ENDBRANCH   1   3
DOCKED: BRANCH   1  17
DOCKED: ATOM     17  C   UNL     1      27.559 -13.853  -1.550 -0.19 -0.00    +0.000 C 
DOCKED: BRANCH  17  18
DOCKED: ATOM     18  C   UNL     1      27.392 -13.271  -0.139 -0.22 -0.00    +0.000 C 
DOCKED: BRANCH  18  19
DOCKED: ATOM     19  O   UNL     1      26.044 -13.000   0.132 -0.33 -0.00    +0.000 OA
DOCKED: ATOM     20  H   UNL     1      25.586 -13.827   0.353 -0.03 -0.00    +0.000 HD
DOCKED: ENDBRANCH  18  19
DOCKED: ENDBRANCH  17  18
DOCKED: ENDBRANCH   1  17
DOCKED: BRANCH   1  21
DOCKED: ATOM     21  C   UNL     1      27.820 -15.976  -2.783 -0.31 -0.00    +0.000 C 
DOCKED: BRANCH  21  22
DOCKED: ATOM     22  C   UNL     1      26.576 -15.433  -3.493 -0.47 -0.00    +0.000 C 
DOCKED: BRANCH  22  23
DOCKED: ATOM     23  C   UNL     1      26.955 -14.450  -4.563 -0.39 -0.00    +0.000 A 
DOCKED: ATOM     24  C   UNL     1      26.327 -13.236  -4.824 -0.22 -0.00    +0.000 A 
DOCKED: ATOM     25  N   UNL     1      27.011 -12.543  -5.764 -0.21 -0.00    +0.000 N 
DOCKED: ATOM     26  C   UNL     1      28.072 -13.302  -6.086 -0.23 -0.00    +0.000 A 
DOCKED: ATOM     27  C   UNL     1      28.075 -14.472  -5.372 -0.33 -0.00    +0.000 A 
DOCKED: ATOM     28  C   UNL     1      29.099 -15.412  -5.508 -0.31 -0.00    +0.000 A 
DOCKED: ATOM     29  C   UNL     1      30.138 -15.125  -6.411 -0.26 -0.00    +0.000 A 
DOCKED: ATOM     30  C   UNL     1      30.133 -13.919  -7.147 -0.22 -0.00    +0.000 A 
DOCKED: ATOM     31  C   UNL     1      29.089 -12.990  -6.986 -0.22 -0.00    +0.000 A 
DOCKED: ATOM     32  H   UNL     1      26.777 -11.662  -6.135 -0.01 -0.00    +0.000 HD
DOCKED: ENDBRANCH  22  23
DOCKED: ENDBRANCH  21  22
DOCKED: ENDBRANCH   1  21
DOCKED: TORSDOF 10
DOCKED: TER
DOCKED: ENDMDL
________________________________________________________________________________


	BEGINNING GENETIC ALGORITHM DOCKING 15 of 100
Run: 15 Seed: 2072730090 481492937 [ Run 15 of 100 GA/GALS ]
Beginning LAMARCKIAN GENETIC ALGORITHM (LGA), with a maximum of 2500000 energy evaluations.

Final-Value: -17.015


	FINAL GENETIC ALGORITHM DOCKED STATE
	_______________________________________________


Detailed state:  trans 28.235 -15.267 -1.096 quatxyzw 0.199611 -0.559749 -0.583001 0.554028 center 0.285 0.077 -0.044 ntor 10 51.1068 -140.8797 149.2608 176.3918 71.0880 45.5380 -45.2879 119.0503 -149.5526 -122.1568
State:	 28.235 -15.267  -1.096   0.240 -0.672 -0.700 112.712     51.11 -140.88  149.26  176.39   71.09   45.54  -45.29  119.05 -149.55 -122.16

DOCKED: MODEL       15
DOCKED: USER    Run = 15
DOCKED: USER    DPF = ligand_dock.biased.dpf
DOCKED: USER  
DOCKED: USER    Estimated Free Energy of Binding    =  -12.35 kcal/mol  [=(1)+(2)+(3)-(4)]
DOCKED: USER    Estimated Inhibition Constant, Ki   =  884.47 pM (picomolar)  [Temperature = 298.15 K]
DOCKED: USER    
DOCKED: USER    (1) Final Intermolecular Energy     =  -15.33 kcal/mol
DOCKED: USER        vdW + Hbond + desolv Energy     =  -15.33 kcal/mol
DOCKED: USER        Electrostatic Energy            =   +0.00 kcal/mol
DOCKED: USER    (2) Final Total Internal Energy     =   -1.68 kcal/mol
DOCKED: USER    (3) Torsional Free Energy           =   +2.98 kcal/mol
DOCKED: USER    (4) Unbound System's Energy  [=(2)] =   -1.68 kcal/mol
DOCKED: USER    
DOCKED: USER    
DOCKED: USER    NEWDPF move ligand.pdbqt
DOCKED: USER    NEWDPF about 0.285000 0.077000 -0.044000
DOCKED: USER    NEWDPF tran0 28.235237 -15.266973 -1.096347
DOCKED: USER    NEWDPF quaternion0 0.199611 -0.559749 -0.583001 0.554028
DOCKED: USER    NEWDPF axisangle0 0.239774 -0.672373 -0.700303 112.712440
DOCKED: USER    NEWDPF quat0 0.239774 -0.672373 -0.700303 112.712440
DOCKED: USER    NEWDPF dihe0 51.11 -140.88 149.26 176.39 71.09 45.54 -45.29 119.05 -149.55 -122.16 
DOCKED: USER  keepresnum = 1 
DOCKED: USER  
DOCKED: REMARK  Name = 
DOCKED: REMARK  10 active torsions:
DOCKED: REMARK  status: ('A' for Active; 'I' for Inactive)
DOCKED: REMARK    1  A    between atoms: C_2  and  C_5
DOCKED: REMARK    2  A    between atoms: C_6  and  C_7
DOCKED: REMARK    3  A    between atoms: C_10  and  C_11
DOCKED: REMARK    4  A    between atoms: C_11  and  N_12
DOCKED: REMARK    5  A    between atoms: N_12  and  C_13
DOCKED: REMARK    6  A    between atoms: N_12  and  C_16
DOCKED: REMARK    7  A    between atoms: C_13  and  C_14
DOCKED: REMARK    8  A    between atoms: C_14  and  O_15
DOCKED: REMARK    9  A    between atoms: C_16  and  C_17
DOCKED: REMARK   10  A    between atoms: C_17  and  C_18
DOCKED: REMARK                            x       y       z     vdW  Elec       q    Type
DOCKED: REMARK                         _______ _______ _______ _____ _____    ______ ____
DOCKED: USER                              x       y       z     vdW  Elec       q    Type
DOCKED: USER                           _______ _______ _______ _____ _____    ______ ____
DOCKED: ROOT
DOCKED: ATOM      1  N   UNL     1      28.867 -15.939  -0.130 -0.22 -0.00    +0.000 N 
DOCKED: ATOM      2  H   UNL     1      28.861 -16.806   0.406 -0.52 -0.00    +0.000 HD
DOCKED: ENDROOT
DOCKED: BRANCH   1   3
DOCKED: ATOM      3  C   UNL     1      28.110 -16.283  -1.361 -0.33 -0.00    +0.000 C 
DOCKED: BRANCH   3   7
DOCKED: ATOM      4  C   UNL     1      24.202 -18.014  -0.591 -0.68 -0.00    +0.000 A 
DOCKED: ATOM      5  C   UNL     1      25.362 -18.603  -0.066 -0.44 -0.00    +0.000 A 
DOCKED: ATOM      6  C   UNL     1      26.619 -18.046  -0.312 -0.53 -0.00    +0.000 A 
DOCKED: ATOM      7  C   UNL     1      26.747 -16.899  -1.113 -0.44 -0.00    +0.000 A 
DOCKED: ATOM      8  C   UNL     1      25.587 -16.299  -1.628 -0.50 -0.00    +0.000 A 
DOCKED: ATOM      9  C   UNL     1      24.328 -16.856  -1.383 -0.57 -0.00    +0.000 A 
DOCKED: BRANCH   4  11
DOCKED: ATOM     10  C   UNL     1      21.985 -18.940  -1.257 -0.76 -0.00    +0.000 C 
DOCKED: ATOM     11  C   UNL     1      22.892 -18.653  -0.311 -0.81 -0.00    +0.000 C 
DOCKED: BRANCH  10  13
DOCKED: ATOM     12  O   UNL     1      19.820 -19.742  -1.836 -2.35 -0.00    +0.000 OA
DOCKED: ATOM     13  C   UNL     1      20.688 -19.566  -0.937 -0.86 -0.00    +0.000 C 
DOCKED: ATOM     14  N   UNL     1      20.408 -19.977   0.403 -0.71 -0.00    +0.000 N 
DOCKED: ATOM     15  O   UNL     1      19.223 -20.552   0.711 -0.84 -0.00    +0.000 OA
DOCKED: ATOM     16  H   UNL     1      21.084 -19.841   1.107 -0.49 -0.00    +0.000 HD
DOCKED: ENDBRANCH  10  13
DOCKED: ENDBRANCH   4  11
DOCKED: ENDBRANCH   3   7
DOCKED: ENDBRANCH   1   3
DOCKED: BRANCH   1  17
DOCKED: ATOM     17  C   UNL     1      28.205 -14.955   0.756 -0.24 -0.00    +0.000 C 
DOCKED: BRANCH  17  18
DOCKED: ATOM     18  C   UNL     1      29.212 -13.966   1.360 -0.17 -0.00    +0.000 C 
DOCKED: BRANCH  18  19
DOCKED: ATOM     19  O   UNL     1      29.723 -14.452   2.572 -0.24 -0.00    +0.000 OA
DOCKED: ATOM     20  H   UNL     1      29.220 -15.235   2.843 -1.96 -0.00    +0.000 HD
DOCKED: ENDBRANCH  18  19
DOCKED: ENDBRANCH  17  18
DOCKED: ENDBRANCH   1  17
DOCKED: BRANCH   1  21
DOCKED: ATOM     21  C   UNL     1      30.293 -15.620  -0.381 -0.14 -0.00    +0.000 C 
DOCKED: BRANCH  21  22
DOCKED: ATOM     22  C   UNL     1      30.465 -14.990  -1.767 -0.06 -0.00    +0.000 C 
DOCKED: BRANCH  22  23
DOCKED: ATOM     23  C   UNL     1      31.091 -15.962  -2.723 -0.06 -0.00    +0.000 A 
DOCKED: ATOM     24  C   UNL     1      32.062 -16.911  -2.414 -0.05 -0.00    +0.000 A 
DOCKED: ATOM     25  N   UNL     1      32.301 -17.708  -3.481 -0.07 -0.00    +0.000 N 
DOCKED: ATOM     26  C   UNL     1      31.480 -17.281  -4.455 -0.12 -0.00    +0.000 A 
DOCKED: ATOM     27  C   UNL     1      30.723 -16.219  -4.031 -0.13 -0.00    +0.000 A 
DOCKED: ATOM     28  C   UNL     1      29.767 -15.622  -4.855 -0.22 -0.00    +0.000 A 
DOCKED: ATOM     29  C   UNL     1      29.603 -16.142  -6.152 -0.30 -0.00    +0.000 A 
DOCKED: ATOM     30  C   UNL     1      30.384 -17.235  -6.589 -0.31 -0.00    +0.000 A 
DOCKED: ATOM     31  C   UNL     1      31.337 -17.818  -5.733 -0.20 -0.00    +0.000 A 
DOCKED: ATOM     32  H   UNL     1      32.947 -18.450  -3.532 +0.00 -0.00    +0.000 HD
DOCKED: ENDBRANCH  22  23
DOCKED: ENDBRANCH  21  22
DOCKED: ENDBRANCH   1  21
DOCKED: TORSDOF 10
DOCKED: TER
DOCKED: ENDMDL
________________________________________________________________________________


	BEGINNING GENETIC ALGORITHM DOCKING 16 of 100
Run: 16 Seed: 1752837953 1853704781 [ Run 16 of 100 GA/GALS ]
Beginning LAMARCKIAN GENETIC ALGORITHM (LGA), with a maximum of 2500000 energy evaluations.

Final-Value: -15.828


	FINAL GENETIC ALGORITHM DOCKED STATE
	_______________________________________________


Detailed state:  trans 28.545 -15.420 -3.420 quatxyzw -0.064448 0.908279 0.169088 0.377207 center 0.285 0.077 -0.044 ntor 10 -163.0385 -132.0063 156.6127 -30.8725 -42.1844 56.1034 -179.4369 -33.2193 -114.8330 10.3238
State:	 28.545 -15.420  -3.420  -0.070  0.981  0.183 135.678   -163.04 -132.01  156.61  -30.87  -42.18   56.10 -179.44  -33.22 -114.83   10.32

DOCKED: MODEL       16
DOCKED: USER    Run = 16
DOCKED: USER    DPF = ligand_dock.biased.dpf
DOCKED: USER  
DOCKED: USER    Estimated Free Energy of Binding    =  -11.44 kcal/mol  [=(1)+(2)+(3)-(4)]
DOCKED: USER    Estimated Inhibition Constant, Ki   =    4.12 nM (nanomolar)  [Temperature = 298.15 K]
DOCKED: USER    
DOCKED: USER    (1) Final Intermolecular Energy     =  -14.42 kcal/mol
DOCKED: USER        vdW + Hbond + desolv Energy     =  -14.42 kcal/mol
DOCKED: USER        Electrostatic Energy            =   +0.00 kcal/mol
DOCKED: USER    (2) Final Total Internal Energy     =   -1.41 kcal/mol
DOCKED: USER    (3) Torsional Free Energy           =   +2.98 kcal/mol
DOCKED: USER    (4) Unbound System's Energy  [=(2)] =   -1.41 kcal/mol
DOCKED: USER    
DOCKED: USER    
DOCKED: USER    NEWDPF move ligand.pdbqt
DOCKED: USER    NEWDPF about 0.285000 0.077000 -0.044000
DOCKED: USER    NEWDPF tran0 28.545483 -15.419736 -3.420278
DOCKED: USER    NEWDPF quaternion0 -0.064448 0.908279 0.169088 0.377207
DOCKED: USER    NEWDPF axisangle0 -0.069589 0.980726 0.182575 135.678481
DOCKED: USER    NEWDPF quat0 -0.069589 0.980726 0.182575 135.678481
DOCKED: USER    NEWDPF dihe0 -163.04 -132.01 156.61 -30.87 -42.18 56.10 -179.44 -33.22 -114.83 10.32 
DOCKED: USER  keepresnum = 1 
DOCKED: USER  
DOCKED: REMARK  Name = 
DOCKED: REMARK  10 active torsions:
DOCKED: REMARK  status: ('A' for Active; 'I' for Inactive)
DOCKED: REMARK    1  A    between atoms: C_2  and  C_5
DOCKED: REMARK    2  A    between atoms: C_6  and  C_7
DOCKED: REMARK    3  A    between atoms: C_10  and  C_11
DOCKED: REMARK    4  A    between atoms: C_11  and  N_12
DOCKED: REMARK    5  A    between atoms: N_12  and  C_13
DOCKED: REMARK    6  A    between atoms: N_12  and  C_16
DOCKED: REMARK    7  A    between atoms: C_13  and  C_14
DOCKED: REMARK    8  A    between atoms: C_14  and  O_15
DOCKED: REMARK    9  A    between atoms: C_16  and  C_17
DOCKED: REMARK   10  A    between atoms: C_17  and  C_18
DOCKED: REMARK                            x       y       z     vdW  Elec       q    Type
DOCKED: REMARK                         _______ _______ _______ _____ _____    ______ ____
DOCKED: USER                              x       y       z     vdW  Elec       q    Type
DOCKED: USER                           _______ _______ _______ _____ _____    ______ ____
DOCKED: ROOT
DOCKED: ATOM      1  N   UNL     1      29.504 -15.391  -4.350 -0.19 -0.00    +0.000 N 
DOCKED: ATOM      2  H   UNL     1      30.512 -15.320  -4.489 +0.00 -0.00    +0.000 HD
DOCKED: ENDROOT
DOCKED: BRANCH   1   3
DOCKED: ATOM      3  C   UNL     1      29.376 -15.875  -2.951 -0.20 -0.00    +0.000 C 
DOCKED: BRANCH   3   7
DOCKED: ATOM      4  C   UNL     1      25.309 -16.825  -1.760 -0.54 -0.00    +0.000 A 
DOCKED: ATOM      5  C   UNL     1      25.556 -15.945  -2.825 -0.49 -0.00    +0.000 A 
DOCKED: ATOM      6  C   UNL     1      26.864 -15.641  -3.210 -0.36 -0.00    +0.000 A 
DOCKED: ATOM      7  C   UNL     1      27.957 -16.190  -2.518 -0.26 -0.00    +0.000 A 
DOCKED: ATOM      8  C   UNL     1      27.713 -17.081  -1.462 -0.35 -0.00    +0.000 A 
DOCKED: ATOM      9  C   UNL     1      26.404 -17.387  -1.076 -0.49 -0.00    +0.000 A 
DOCKED: BRANCH   4  11
DOCKED: ATOM     10  C   UNL     1      23.336 -18.318  -1.460 -0.76 -0.00    +0.000 C 
DOCKED: ATOM     11  C   UNL     1      23.901 -17.105  -1.382 -0.66 -0.00    +0.000 C 
DOCKED: BRANCH  10  13
DOCKED: ATOM     12  O   UNL     1      21.384 -17.879  -0.169 -1.53 -0.00    +0.000 OA
DOCKED: ATOM     13  C   UNL     1      21.928 -18.555  -1.085 -0.80 -0.00    +0.000 C 
DOCKED: ATOM     14  N   UNL     1      21.172 -19.561  -1.763 -0.64 -0.00    +0.000 N 
DOCKED: ATOM     15  O   UNL     1      19.881 -19.790  -1.429 -2.22 -0.00    +0.000 OA
DOCKED: ATOM     16  H   UNL     1      21.594 -20.091  -2.478 -0.59 -0.00    +0.000 HD
DOCKED: ENDBRANCH  10  13
DOCKED: ENDBRANCH   4  11
DOCKED: ENDBRANCH   3   7
DOCKED: ENDBRANCH   1   3
DOCKED: BRANCH   1  17
DOCKED: ATOM     17  C   UNL     1      29.003 -14.018  -4.584 -0.17 -0.00    +0.000 C 
DOCKED: BRANCH  17  18
DOCKED: ATOM     18  C   UNL     1      28.121 -13.942  -5.838 -0.33 -0.00    +0.000 C 
DOCKED: BRANCH  18  19
DOCKED: ATOM     19  O   UNL     1      28.907 -13.867  -6.997 -0.36 -0.00    +0.000 OA
DOCKED: ATOM     20  H   UNL     1      28.542 -14.459  -7.673 -0.15 -0.00    +0.000 HD
DOCKED: ENDBRANCH  18  19
DOCKED: ENDBRANCH  17  18
DOCKED: ENDBRANCH   1  17
DOCKED: BRANCH   1  21
DOCKED: ATOM     21  C   UNL     1      29.018 -16.361  -5.359 -0.23 -0.00    +0.000 C 
DOCKED: BRANCH  21  22
DOCKED: ATOM     22  C   UNL     1      30.140 -16.725  -6.337 -0.35 -0.00    +0.000 C 
DOCKED: BRANCH  22  23
DOCKED: ATOM     23  C   UNL     1      30.435 -18.196  -6.292 -0.34 -0.00    +0.000 A 
DOCKED: ATOM     24  C   UNL     1      30.195 -19.051  -5.220 -0.22 -0.00    +0.000 A 
DOCKED: ATOM     25  N   UNL     1      30.454 -20.332  -5.569 -0.40 -0.00    +0.000 N 
DOCKED: ATOM     26  C   UNL     1      30.841 -20.294  -6.855 -0.36 -0.00    +0.000 A 
DOCKED: ATOM     27  C   UNL     1      30.839 -19.010  -7.334 -0.35 -0.00    +0.000 A 
DOCKED: ATOM     28  C   UNL     1      31.172 -18.718  -8.658 -0.33 -0.00    +0.000 A 
DOCKED: ATOM     29  C   UNL     1      31.518 -19.792  -9.498 -0.28 -0.00    +0.000 A 
DOCKED: ATOM     30  C   UNL     1      31.520 -21.115  -9.005 -0.18 -0.00    +0.000 A 
DOCKED: ATOM     31  C   UNL     1      31.177 -21.377  -7.666 -0.26 -0.00    +0.000 A 
DOCKED: ATOM     32  H   UNL     1      30.375 -21.128  -4.996 -0.03 -0.00    +0.000 HD
DOCKED: ENDBRANCH  22  23
DOCKED: ENDBRANCH  21  22
DOCKED: ENDBRANCH   1  21
DOCKED: TORSDOF 10
DOCKED: TER
DOCKED: ENDMDL
________________________________________________________________________________


	BEGINNING GENETIC ALGORITHM DOCKING 17 of 100
Run: 17 Seed: 2048467263 1078225887 [ Run 17 of 100 GA/GALS ]
Beginning LAMARCKIAN GENETIC ALGORITHM (LGA), with a maximum of 2500000 energy evaluations.

Final-Value: -17.332


	FINAL GENETIC ALGORITHM DOCKED STATE
	_______________________________________________


Detailed state:  trans 28.452 -14.404 -1.194 quatxyzw 0.455999 0.605752 0.583420 -0.291120 center 0.285 0.077 -0.044 ntor 10 -82.3786 99.7996 -67.2373 -92.9762 137.1822 -0.2266 -98.4004 19.6069 158.2001 -179.9415
State:	 28.452 -14.404  -1.194   0.477  0.633  0.610 -146.150    -82.38   99.80  -67.24  -92.98  137.18   -0.23  -98.40   19.61  158.20 -179.94

DOCKED: MODEL       17
DOCKED: USER    Run = 17
DOCKED: USER    DPF = ligand_dock.biased.dpf
DOCKED: USER  
DOCKED: USER    Estimated Free Energy of Binding    =  -12.88 kcal/mol  [=(1)+(2)+(3)-(4)]
DOCKED: USER    Estimated Inhibition Constant, Ki   =  363.82 pM (picomolar)  [Temperature = 298.15 K]
DOCKED: USER    
DOCKED: USER    (1) Final Intermolecular Energy     =  -15.86 kcal/mol
DOCKED: USER        vdW + Hbond + desolv Energy     =  -15.86 kcal/mol
DOCKED: USER        Electrostatic Energy            =   +0.00 kcal/mol
DOCKED: USER    (2) Final Total Internal Energy     =   -1.47 kcal/mol
DOCKED: USER    (3) Torsional Free Energy           =   +2.98 kcal/mol
DOCKED: USER    (4) Unbound System's Energy  [=(2)] =   -1.47 kcal/mol
DOCKED: USER    
DOCKED: USER    
DOCKED: USER    NEWDPF move ligand.pdbqt
DOCKED: USER    NEWDPF about 0.285000 0.077000 -0.044000
DOCKED: USER    NEWDPF tran0 28.451535 -14.404418 -1.194263
DOCKED: USER    NEWDPF quaternion0 0.455999 0.605752 0.583420 -0.291120
DOCKED: USER    NEWDPF axisangle0 0.476644 0.633177 0.609834 -146.149924
DOCKED: USER    NEWDPF quat0 0.476644 0.633177 0.609834 -146.149924
DOCKED: USER    NEWDPF dihe0 -82.38 99.80 -67.24 -92.98 137.18 -0.23 -98.40 19.61 158.20 -179.94 
DOCKED: USER  keepresnum = 1 
DOCKED: USER  
DOCKED: REMARK  Name = 
DOCKED: REMARK  10 active torsions:
DOCKED: REMARK  status: ('A' for Active; 'I' for Inactive)
DOCKED: REMARK    1  A    between atoms: C_2  and  C_5
DOCKED: REMARK    2  A    between atoms: C_6  and  C_7
DOCKED: REMARK    3  A    between atoms: C_10  and  C_11
DOCKED: REMARK    4  A    between atoms: C_11  and  N_12
DOCKED: REMARK    5  A    between atoms: N_12  and  C_13
DOCKED: REMARK    6  A    between atoms: N_12  and  C_16
DOCKED: REMARK    7  A    between atoms: C_13  and  C_14
DOCKED: REMARK    8  A    between atoms: C_14  and  O_15
DOCKED: REMARK    9  A    between atoms: C_16  and  C_17
DOCKED: REMARK   10  A    between atoms: C_17  and  C_18
DOCKED: REMARK                            x       y       z     vdW  Elec       q    Type
DOCKED: REMARK                         _______ _______ _______ _____ _____    ______ ____
DOCKED: USER                              x       y       z     vdW  Elec       q    Type
DOCKED: USER                           _______ _______ _______ _____ _____    ______ ____
DOCKED: ROOT
DOCKED: ATOM      1  N   UNL     1      28.878 -15.563  -1.705 -0.16 -0.00    +0.000 N 
DOCKED: ATOM      2  H   UNL     1      28.691 -16.565  -1.735 -0.01 -0.00    +0.000 HD
DOCKED: ENDROOT
DOCKED: BRANCH   1   3
DOCKED: ATOM      3  C   UNL     1      27.570 -14.975  -1.315 -0.26 -0.00    +0.000 C 
DOCKED: BRANCH   3   7
DOCKED: ATOM      4  C   UNL     1      24.342 -17.873  -1.089 -0.68 -0.00    +0.000 A 
DOCKED: ATOM      5  C   UNL     1      24.382 -16.925  -2.122 -0.28 -0.00    +0.000 A 
DOCKED: ATOM      6  C   UNL     1      25.421 -15.994  -2.197 -0.49 -0.00    +0.000 A 
DOCKED: ATOM      7  C   UNL     1      26.431 -15.973  -1.221 -0.39 -0.00    +0.000 A 
DOCKED: ATOM      8  C   UNL     1      26.402 -16.929  -0.194 -0.41 -0.00    +0.000 A 
DOCKED: ATOM      9  C   UNL     1      25.363 -17.862  -0.118 -0.57 -0.00    +0.000 A 
DOCKED: BRANCH   4  11
DOCKED: ATOM     10  C   UNL     1      21.932 -18.470  -0.869 -0.82 -0.00    +0.000 C 
DOCKED: ATOM     11  C   UNL     1      23.211 -18.832  -1.047 -0.81 -0.00    +0.000 C 
DOCKED: BRANCH  10  13
DOCKED: ATOM     12  O   UNL     1      20.180 -19.739  -1.862 -2.37 -0.00    +0.000 OA
DOCKED: ATOM     13  C   UNL     1      20.835 -19.456  -0.822 -0.87 -0.00    +0.000 C 
DOCKED: ATOM     14  N   UNL     1      20.509 -20.098   0.413 -0.69 -0.00    +0.000 N 
DOCKED: ATOM     15  O   UNL     1      19.505 -21.003   0.472 -0.89 -0.00    +0.000 OA
DOCKED: ATOM     16  H   UNL     1      21.018 -19.879   1.227 -0.51 -0.00    +0.000 HD
DOCKED: ENDBRANCH  10  13
DOCKED: ENDBRANCH   4  11
DOCKED: ENDBRANCH   3   7
DOCKED: ENDBRANCH   1   3
DOCKED: BRANCH   1  17
DOCKED: ATOM     17  C   UNL     1      29.952 -15.420  -0.697 -0.14 -0.00    +0.000 C 
DOCKED: BRANCH  17  18
DOCKED: ATOM     18  C   UNL     1      29.444 -14.736   0.580 -0.16 -0.00    +0.000 C 
DOCKED: BRANCH  18  19
DOCKED: ATOM     19  O   UNL     1      30.175 -15.161   1.698 -0.11 -0.00    +0.000 OA
DOCKED: ATOM     20  H   UNL     1      29.582 -15.237   2.462 -1.79 -0.00    +0.000 HD
DOCKED: ENDBRANCH  18  19
DOCKED: ENDBRANCH  17  18
DOCKED: ENDBRANCH   1  17
DOCKED: BRANCH   1  21
DOCKED: ATOM     21  C   UNL     1      29.313 -15.185  -3.070 -0.16 -0.00    +0.000 C 
DOCKED: BRANCH  21  22
DOCKED: ATOM     22  C   UNL     1      28.405 -15.832  -4.121 -0.29 -0.00    +0.000 C 
DOCKED: BRANCH  22  23
DOCKED: ATOM     23  C   UNL     1      29.086 -15.887  -5.457 -0.31 -0.00    +0.000 A 
DOCKED: ATOM     24  C   UNL     1      29.182 -14.846  -6.376 -0.33 -0.00    +0.000 A 
DOCKED: ATOM     25  N   UNL     1      29.978 -15.200  -7.411 -0.31 -0.00    +0.000 N 
DOCKED: ATOM     26  C   UNL     1      30.397 -16.449  -7.146 -0.26 -0.00    +0.000 A 
DOCKED: ATOM     27  C   UNL     1      29.877 -16.902  -5.961 -0.27 -0.00    +0.000 A 
DOCKED: ATOM     28  C   UNL     1      30.197 -18.164  -5.454 -0.29 -0.00    +0.000 A 
DOCKED: ATOM     29  C   UNL     1      31.074 -18.969  -6.203 -0.29 -0.00    +0.000 A 
DOCKED: ATOM     30  C   UNL     1      31.608 -18.502  -7.424 -0.24 -0.00    +0.000 A 
DOCKED: ATOM     31  C   UNL     1      31.270 -17.224  -7.907 -0.28 -0.00    +0.000 A 
DOCKED: ATOM     32  H   UNL     1      30.204 -14.653  -8.197 -0.41 -0.00    +0.000 HD
DOCKED: ENDBRANCH  22  23
DOCKED: ENDBRANCH  21  22
DOCKED: ENDBRANCH   1  21
DOCKED: TORSDOF 10
DOCKED: TER
DOCKED: ENDMDL
________________________________________________________________________________


	BEGINNING GENETIC ALGORITHM DOCKING 18 of 100
Run: 18 Seed: 464992721 1899520771 [ Run 18 of 100 GA/GALS ]
Beginning LAMARCKIAN GENETIC ALGORITHM (LGA), with a maximum of 2500000 energy evaluations.

Final-Value: -16.401


	FINAL GENETIC ALGORITHM DOCKED STATE
	_______________________________________________


Detailed state:  trans 28.339 -14.825 -1.788 quatxyzw 0.507901 0.676385 0.489929 -0.210975 center 0.285 0.077 -0.044 ntor 10 -126.5515 -66.8542 33.9548 -129.0795 -174.6920 0.5454 -97.3190 -171.4946 142.1640 166.2012
State:	 28.339 -14.825  -1.788   0.520  0.692  0.501 -155.641   -126.55  -66.85   33.95 -129.08 -174.69    0.55  -97.32 -171.49  142.16  166.20

DOCKED: MODEL       18
DOCKED: USER    Run = 18
DOCKED: USER    DPF = ligand_dock.biased.dpf
DOCKED: USER  
DOCKED: USER    Estimated Free Energy of Binding    =  -11.27 kcal/mol  [=(1)+(2)+(3)-(4)]
DOCKED: USER    Estimated Inhibition Constant, Ki   =    5.52 nM (nanomolar)  [Temperature = 298.15 K]
DOCKED: USER    
DOCKED: USER    (1) Final Intermolecular Energy     =  -14.25 kcal/mol
DOCKED: USER        vdW + Hbond + desolv Energy     =  -14.25 kcal/mol
DOCKED: USER        Electrostatic Energy            =   +0.00 kcal/mol
DOCKED: USER    (2) Final Total Internal Energy     =   -2.15 kcal/mol
DOCKED: USER    (3) Torsional Free Energy           =   +2.98 kcal/mol
DOCKED: USER    (4) Unbound System's Energy  [=(2)] =   -2.15 kcal/mol
DOCKED: USER    
DOCKED: USER    
DOCKED: USER    NEWDPF move ligand.pdbqt
DOCKED: USER    NEWDPF about 0.285000 0.077000 -0.044000
DOCKED: USER    NEWDPF tran0 28.339304 -14.824787 -1.787622
DOCKED: USER    NEWDPF quaternion0 0.507901 0.676385 0.489929 -0.210975
DOCKED: USER    NEWDPF axisangle0 0.519596 0.691960 0.501210 -155.640972
DOCKED: USER    NEWDPF quat0 0.519596 0.691960 0.501210 -155.640972
DOCKED: USER    NEWDPF dihe0 -126.55 -66.85 33.95 -129.08 -174.69 0.55 -97.32 -171.49 142.16 166.20 
DOCKED: USER  keepresnum = 1 
DOCKED: USER  
DOCKED: REMARK  Name = 
DOCKED: REMARK  10 active torsions:
DOCKED: REMARK  status: ('A' for Active; 'I' for Inactive)
DOCKED: REMARK    1  A    between atoms: C_2  and  C_5
DOCKED: REMARK    2  A    between atoms: C_6  and  C_7
DOCKED: REMARK    3  A    between atoms: C_10  and  C_11
DOCKED: REMARK    4  A    between atoms: C_11  and  N_12
DOCKED: REMARK    5  A    between atoms: N_12  and  C_13
DOCKED: REMARK    6  A    between atoms: N_12  and  C_16
DOCKED: REMARK    7  A    between atoms: C_13  and  C_14
DOCKED: REMARK    8  A    between atoms: C_14  and  O_15
DOCKED: REMARK    9  A    between atoms: C_16  and  C_17
DOCKED: REMARK   10  A    between atoms: C_17  and  C_18
DOCKED: REMARK                            x       y       z     vdW  Elec       q    Type
DOCKED: REMARK                         _______ _______ _______ _____ _____    ______ ____
DOCKED: USER                              x       y       z     vdW  Elec       q    Type
DOCKED: USER                           _______ _______ _______ _____ _____    ______ ____
DOCKED: ROOT
DOCKED: ATOM      1  N   UNL     1      28.667 -16.016  -2.297 -0.22 -0.00    +0.000 N 
DOCKED: ATOM      2  H   UNL     1      28.533 -17.021  -2.187 -0.02 -0.00    +0.000 HD
DOCKED: ENDROOT
DOCKED: BRANCH   1   3
DOCKED: ATOM      3  C   UNL     1      27.490 -15.428  -1.605 -0.30 -0.00    +0.000 C 
DOCKED: BRANCH   3   7
DOCKED: ATOM      4  C   UNL     1      24.186 -18.199  -1.087 -0.69 -0.00    +0.000 A 
DOCKED: ATOM      5  C   UNL     1      23.993 -16.967  -1.730 -0.40 -0.00    +0.000 A 
DOCKED: ATOM      6  C   UNL     1      25.056 -16.077  -1.899 -0.48 -0.00    +0.000 A 
DOCKED: ATOM      7  C   UNL     1      26.333 -16.387  -1.402 -0.43 -0.00    +0.000 A 
DOCKED: ATOM      8  C   UNL     1      26.532 -17.625  -0.770 -0.51 -0.00    +0.000 A 
DOCKED: ATOM      9  C   UNL     1      25.470 -18.517  -0.601 -0.53 -0.00    +0.000 A 
DOCKED: BRANCH   4  11
DOCKED: ATOM     10  C   UNL     1      21.748 -18.716  -1.071 -0.82 -0.00    +0.000 C 
DOCKED: ATOM     11  C   UNL     1      23.022 -19.105  -0.921 -0.79 -0.00    +0.000 C 
DOCKED: BRANCH  10  13
DOCKED: ATOM     12  O   UNL     1      19.707 -19.731  -1.756 -2.26 -0.00    +0.000 OA
DOCKED: ATOM     13  C   UNL     1      20.616 -19.645  -0.886 -0.86 -0.00    +0.000 C 
DOCKED: ATOM     14  N   UNL     1      20.546 -20.455   0.289 -0.64 -0.00    +0.000 N 
DOCKED: ATOM     15  O   UNL     1      19.514 -21.311   0.473 -0.77 -0.00    +0.000 OA
DOCKED: ATOM     16  H   UNL     1      21.254 -20.389   0.970 -0.57 -0.00    +0.000 HD
DOCKED: ENDBRANCH  10  13
DOCKED: ENDBRANCH   4  11
DOCKED: ENDBRANCH   3   7
DOCKED: ENDBRANCH   1   3
DOCKED: BRANCH   1  17
DOCKED: ATOM     17  C   UNL     1      29.971 -15.746  -1.650 -0.13 -0.00    +0.000 C 
DOCKED: BRANCH  17  18
DOCKED: ATOM     18  C   UNL     1      30.494 -16.976  -0.894 -0.19 -0.00    +0.000 C 
DOCKED: BRANCH  18  19
DOCKED: ATOM     19  O   UNL     1      29.472 -17.918  -0.706 -0.31 -0.00    +0.000 OA
DOCKED: ATOM     20  H   UNL     1      29.847 -18.730  -0.331 -0.56 -0.00    +0.000 HD
DOCKED: ENDBRANCH  18  19
DOCKED: ENDBRANCH  17  18
DOCKED: ENDBRANCH   1  17
DOCKED: BRANCH   1  21
DOCKED: ATOM     21  C   UNL     1      28.684 -15.760  -3.757 -0.28 -0.00    +0.000 C 
DOCKED: BRANCH  21  22
DOCKED: ATOM     22  C   UNL     1      29.636 -14.605  -4.087 -0.13 -0.00    +0.000 C 
DOCKED: BRANCH  22  23
DOCKED: ATOM     23  C   UNL     1      29.293 -13.991  -5.413 -0.18 -0.00    +0.000 A 
DOCKED: ATOM     24  C   UNL     1      29.649 -14.484  -6.665 -0.28 -0.00    +0.000 A 
DOCKED: ATOM     25  N   UNL     1      29.061 -13.759  -7.644 -0.31 -0.00    +0.000 N 
DOCKED: ATOM     26  C   UNL     1      28.325 -12.823  -7.021 -0.20 -0.00    +0.000 A 
DOCKED: ATOM     27  C   UNL     1      28.438 -12.933  -5.659 -0.18 -0.00    +0.000 A 
DOCKED: ATOM     28  C   UNL     1      27.737 -12.091  -4.793 -0.15 -0.00    +0.000 A 
DOCKED: ATOM     29  C   UNL     1      26.905 -11.111  -5.363 -0.17 -0.00    +0.000 A 
DOCKED: ATOM     30  C   UNL     1      26.790 -10.997  -6.766 -0.17 -0.00    +0.000 A 
DOCKED: ATOM     31  C   UNL     1      27.506 -11.862  -7.612 -0.12 -0.00    +0.000 A 
DOCKED: ATOM     32  H   UNL     1      29.154 -13.891  -8.615 -0.62 -0.00    +0.000 HD
DOCKED: ENDBRANCH  22  23
DOCKED: ENDBRANCH  21  22
DOCKED: ENDBRANCH   1  21
DOCKED: TORSDOF 10
DOCKED: TER
DOCKED: ENDMDL
________________________________________________________________________________


	BEGINNING GENETIC ALGORITHM DOCKING 19 of 100
Run: 19 Seed: 1120908781 16892436 [ Run 19 of 100 GA/GALS ]
Beginning LAMARCKIAN GENETIC ALGORITHM (LGA), with a maximum of 2500000 energy evaluations.

Final-Value: -16.152


	FINAL GENETIC ALGORITHM DOCKED STATE
	_______________________________________________


Detailed state:  trans 28.229 -15.107 0.158 quatxyzw 0.448524 -0.506472 -0.711725 0.189104 center 0.285 0.077 -0.044 ntor 10 -27.7605 85.8622 170.4894 -59.2624 -161.3792 126.8670 167.7400 104.3361 145.2046 -44.2671
State:	 28.229 -15.107   0.158   0.457 -0.516 -0.725 158.199    -27.76   85.86  170.49  -59.26 -161.38  126.87  167.74  104.34  145.20  -44.27

DOCKED: MODEL       19
DOCKED: USER    Run = 19
DOCKED: USER    DPF = ligand_dock.biased.dpf
DOCKED: USER  
DOCKED: USER    Estimated Free Energy of Binding    =  -10.67 kcal/mol  [=(1)+(2)+(3)-(4)]
DOCKED: USER    Estimated Inhibition Constant, Ki   =   15.01 nM (nanomolar)  [Temperature = 298.15 K]
DOCKED: USER    
DOCKED: USER    (1) Final Intermolecular Energy     =  -13.66 kcal/mol
DOCKED: USER        vdW + Hbond + desolv Energy     =  -13.66 kcal/mol
DOCKED: USER        Electrostatic Energy            =   +0.00 kcal/mol
DOCKED: USER    (2) Final Total Internal Energy     =   -2.50 kcal/mol
DOCKED: USER    (3) Torsional Free Energy           =   +2.98 kcal/mol
DOCKED: USER    (4) Unbound System's Energy  [=(2)] =   -2.50 kcal/mol
DOCKED: USER    
DOCKED: USER    
DOCKED: USER    NEWDPF move ligand.pdbqt
DOCKED: USER    NEWDPF about 0.285000 0.077000 -0.044000
DOCKED: USER    NEWDPF tran0 28.229255 -15.106929 0.157854
DOCKED: USER    NEWDPF quaternion0 0.448524 -0.506472 -0.711725 0.189104
DOCKED: USER    NEWDPF axisangle0 0.456765 -0.515778 -0.724802 158.198951
DOCKED: USER    NEWDPF quat0 0.456765 -0.515778 -0.724802 158.198951
DOCKED: USER    NEWDPF dihe0 -27.76 85.86 170.49 -59.26 -161.38 126.87 167.74 104.34 145.20 -44.27 
DOCKED: USER  keepresnum = 1 
DOCKED: USER  
DOCKED: REMARK  Name = 
DOCKED: REMARK  10 active torsions:
DOCKED: REMARK  status: ('A' for Active; 'I' for Inactive)
DOCKED: REMARK    1  A    between atoms: C_2  and  C_5
DOCKED: REMARK    2  A    between atoms: C_6  and  C_7
DOCKED: REMARK    3  A    between atoms: C_10  and  C_11
DOCKED: REMARK    4  A    between atoms: C_11  and  N_12
DOCKED: REMARK    5  A    between atoms: N_12  and  C_13
DOCKED: REMARK    6  A    between atoms: N_12  and  C_16
DOCKED: REMARK    7  A    between atoms: C_13  and  C_14
DOCKED: REMARK    8  A    between atoms: C_14  and  O_15
DOCKED: REMARK    9  A    between atoms: C_16  and  C_17
DOCKED: REMARK   10  A    between atoms: C_17  and  C_18
DOCKED: REMARK                            x       y       z     vdW  Elec       q    Type
DOCKED: REMARK                         _______ _______ _______ _____ _____    ______ ____
DOCKED: USER                              x       y       z     vdW  Elec       q    Type
DOCKED: USER                           _______ _______ _______ _____ _____    ______ ____
DOCKED: ROOT
DOCKED: ATOM      1  N   UNL     1      29.153 -14.795   1.072 -0.18 -0.00    +0.000 N 
DOCKED: ATOM      2  H   UNL     1      29.835 -15.192   1.718 -1.01 -0.00    +0.000 HD
DOCKED: ENDROOT
DOCKED: BRANCH   1   3
DOCKED: ATOM      3  C   UNL     1      28.950 -15.876   0.071 -0.16 -0.00    +0.000 C 
DOCKED: BRANCH   3   7
DOCKED: ATOM      4  C   UNL     1      24.777 -16.821  -0.676 -0.50 -0.00    +0.000 A 
DOCKED: ATOM      5  C   UNL     1      25.665 -17.809  -0.224 -0.58 -0.00    +0.000 A 
DOCKED: ATOM      6  C   UNL     1      27.007 -17.504   0.019 -0.42 -0.00    +0.000 A 
DOCKED: ATOM      7  C   UNL     1      27.498 -16.209  -0.213 -0.33 -0.00    +0.000 A 
DOCKED: ATOM      8  C   UNL     1      26.609 -15.215  -0.652 -0.32 -0.00    +0.000 A 
DOCKED: ATOM      9  C   UNL     1      25.266 -15.518  -0.895 -0.22 -0.00    +0.000 A 
DOCKED: BRANCH   4  11
DOCKED: ATOM     10  C   UNL     1      22.889 -18.444  -0.795 -0.83 -0.00    +0.000 C 
DOCKED: ATOM     11  C   UNL     1      23.365 -17.198  -0.931 -0.70 -0.00    +0.000 C 
DOCKED: BRANCH  10  13
DOCKED: ATOM     12  O   UNL     1      20.548 -18.237  -0.414 -2.02 -0.00    +0.000 OA
DOCKED: ATOM     13  C   UNL     1      21.478 -18.782  -1.069 -0.82 -0.00    +0.000 C 
DOCKED: ATOM     14  N   UNL     1      21.161 -19.736  -2.084 -0.37 -0.00    +0.000 N 
DOCKED: ATOM     15  O   UNL     1      19.872 -20.056  -2.346 -2.08 -0.00    +0.000 OA
DOCKED: ATOM     16  H   UNL     1      21.885 -20.163  -2.597 -0.61 -0.00    +0.000 HD
DOCKED: ENDBRANCH  10  13
DOCKED: ENDBRANCH   4  11
DOCKED: ENDBRANCH   3   7
DOCKED: ENDBRANCH   1   3
DOCKED: BRANCH   1  17
DOCKED: ATOM     17  C   UNL     1      27.975 -14.498   1.917 -0.27 -0.00    +0.000 C 
DOCKED: BRANCH  17  18
DOCKED: ATOM     18  C   UNL     1      27.508 -13.045   1.749 -0.28 -0.00    +0.000 C 
DOCKED: BRANCH  18  19
DOCKED: ATOM     19  O   UNL     1      26.110 -12.977   1.664 -0.43 -0.00    +0.000 OA
DOCKED: ATOM     20  H   UNL     1      25.838 -13.075   0.739 -0.02 -0.00    +0.000 HD
DOCKED: ENDBRANCH  18  19
DOCKED: ENDBRANCH  17  18
DOCKED: ENDBRANCH   1  17
DOCKED: BRANCH   1  21
DOCKED: ATOM     21  C   UNL     1      29.780 -13.577   0.508 -0.09 -0.00    +0.000 C 
DOCKED: BRANCH  21  22
DOCKED: ATOM     22  C   UNL     1      29.694 -13.589  -1.022 -0.05 -0.00    +0.000 C 
DOCKED: BRANCH  22  23
DOCKED: ATOM     23  C   UNL     1      28.674 -12.601  -1.509 -0.06 -0.00    +0.000 A 
DOCKED: ATOM     24  C   UNL     1      28.529 -11.286  -1.074 -0.06 -0.00    +0.000 A 
DOCKED: ATOM     25  N   UNL     1      27.602 -10.641  -1.819 -0.10 -0.00    +0.000 N 
DOCKED: ATOM     26  C   UNL     1      27.173 -11.532  -2.729 -0.10 -0.00    +0.000 A 
DOCKED: ATOM     27  C   UNL     1      27.806 -12.738  -2.575 -0.11 -0.00    +0.000 A 
DOCKED: ATOM     28  C   UNL     1      27.553 -13.815  -3.427 -0.20 -0.00    +0.000 A 
DOCKED: ATOM     29  C   UNL     1      26.616 -13.627  -4.460 -0.34 -0.00    +0.000 A 
DOCKED: ATOM     30  C   UNL     1      25.963 -12.385  -4.617 -0.29 -0.00    +0.000 A 
DOCKED: ATOM     31  C   UNL     1      26.242 -11.317  -3.745 -0.12 -0.00    +0.000 A 
DOCKED: ATOM     32  H   UNL     1      27.304  -9.709  -1.714 +0.00 -0.00    +0.000 HD
DOCKED: ENDBRANCH  22  23
DOCKED: ENDBRANCH  21  22
DOCKED: ENDBRANCH   1  21
DOCKED: TORSDOF 10
DOCKED: TER
DOCKED: ENDMDL
________________________________________________________________________________


	BEGINNING GENETIC ALGORITHM DOCKING 20 of 100
Run: 20 Seed: 1065475764 1389365971 [ Run 20 of 100 GA/GALS ]
Beginning LAMARCKIAN GENETIC ALGORITHM (LGA), with a maximum of 2500000 energy evaluations.

Final-Value: -16.428


	FINAL GENETIC ALGORITHM DOCKED STATE
	_______________________________________________


Detailed state:  trans 29.003 -16.121 -1.546 quatxyzw 0.759434 -0.180342 0.443529 0.440476 center 0.285 0.077 -0.044 ntor 10 -74.2102 -96.1475 49.7250 93.6059 -26.9909 65.4951 -93.8379 92.5373 -88.5191 -179.6545
State:	 29.003 -16.121  -1.546   0.846 -0.201  0.494 127.731    -74.21  -96.15   49.72   93.61  -26.99   65.50  -93.84   92.54  -88.52 -179.65

DOCKED: MODEL       20
DOCKED: USER    Run = 20
DOCKED: USER    DPF = ligand_dock.biased.dpf
DOCKED: USER  
DOCKED: USER    Estimated Free Energy of Binding    =  -11.30 kcal/mol  [=(1)+(2)+(3)-(4)]
DOCKED: USER    Estimated Inhibition Constant, Ki   =    5.17 nM (nanomolar)  [Temperature = 298.15 K]
DOCKED: USER    
DOCKED: USER    (1) Final Intermolecular Energy     =  -14.29 kcal/mol
DOCKED: USER        vdW + Hbond + desolv Energy     =  -14.29 kcal/mol
DOCKED: USER        Electrostatic Energy            =   +0.00 kcal/mol
DOCKED: USER    (2) Final Total Internal Energy     =   -2.14 kcal/mol
DOCKED: USER    (3) Torsional Free Energy           =   +2.98 kcal/mol
DOCKED: USER    (4) Unbound System's Energy  [=(2)] =   -2.14 kcal/mol
DOCKED: USER    
DOCKED: USER    
DOCKED: USER    NEWDPF move ligand.pdbqt
DOCKED: USER    NEWDPF about 0.285000 0.077000 -0.044000
DOCKED: USER    NEWDPF tran0 29.003142 -16.121003 -1.545769
DOCKED: USER    NEWDPF quaternion0 0.759434 -0.180342 0.443529 0.440476
DOCKED: USER    NEWDPF axisangle0 0.845916 -0.200879 0.494038 127.731499
DOCKED: USER    NEWDPF quat0 0.845916 -0.200879 0.494038 127.731499
DOCKED: USER    NEWDPF dihe0 -74.21 -96.15 49.72 93.61 -26.99 65.50 -93.84 92.54 -88.52 -179.65 
DOCKED: USER  keepresnum = 1 
DOCKED: USER  
DOCKED: REMARK  Name = 
DOCKED: REMARK  10 active torsions:
DOCKED: REMARK  status: ('A' for Active; 'I' for Inactive)
DOCKED: REMARK    1  A    between atoms: C_2  and  C_5
DOCKED: REMARK    2  A    between atoms: C_6  and  C_7
DOCKED: REMARK    3  A    between atoms: C_10  and  C_11
DOCKED: REMARK    4  A    between atoms: C_11  and  N_12
DOCKED: REMARK    5  A    between atoms: N_12  and  C_13
DOCKED: REMARK    6  A    between atoms: N_12  and  C_16
DOCKED: REMARK    7  A    between atoms: C_13  and  C_14
DOCKED: REMARK    8  A    between atoms: C_14  and  O_15
DOCKED: REMARK    9  A    between atoms: C_16  and  C_17
DOCKED: REMARK   10  A    between atoms: C_17  and  C_18
DOCKED: REMARK                            x       y       z     vdW  Elec       q    Type
DOCKED: REMARK                         _______ _______ _______ _____ _____    ______ ____
DOCKED: USER                              x       y       z     vdW  Elec       q    Type
DOCKED: USER                           _______ _______ _______ _____ _____    ______ ____
DOCKED: ROOT
DOCKED: ATOM      1  N   UNL     1      28.215 -15.124  -1.960 -0.17 -0.00    +0.000 N 
DOCKED: ATOM      2  H   UNL     1      27.272 -14.900  -2.274 +0.00 -0.00    +0.000 HD
DOCKED: ENDROOT
DOCKED: BRANCH   1   3
DOCKED: ATOM      3  C   UNL     1      28.040 -16.391  -1.202 -0.35 -0.00    +0.000 C 
DOCKED: BRANCH   3   7
DOCKED: ATOM      4  C   UNL     1      23.922 -17.718  -0.826 -0.68 -0.00    +0.000 A 
DOCKED: ATOM      5  C   UNL     1      24.241 -16.580  -1.582 -0.41 -0.00    +0.000 A 
DOCKED: ATOM      6  C   UNL     1      25.566 -16.154  -1.706 -0.49 -0.00    +0.000 A 
DOCKED: ATOM      7  C   UNL     1      26.600 -16.842  -1.050 -0.45 -0.00    +0.000 A 
DOCKED: ATOM      8  C   UNL     1      26.286 -17.989  -0.304 -0.56 -0.00    +0.000 A 
DOCKED: ATOM      9  C   UNL     1      24.960 -18.417  -0.180 -0.55 -0.00    +0.000 A 
DOCKED: BRANCH   4  11
DOCKED: ATOM     10  C   UNL     1      22.061 -19.375  -0.905 -0.74 -0.00    +0.000 C 
DOCKED: ATOM     11  C   UNL     1      22.498 -18.121  -0.716 -0.83 -0.00    +0.000 C 
DOCKED: BRANCH  10  13
DOCKED: ATOM     12  O   UNL     1      19.891 -19.731  -1.816 -2.39 -0.00    +0.000 OA
DOCKED: ATOM     13  C   UNL     1      20.634 -19.735  -0.797 -0.85 -0.00    +0.000 C 
DOCKED: ATOM     14  N   UNL     1      20.086 -20.092   0.474 -0.71 -0.00    +0.000 N 
DOCKED: ATOM     15  O   UNL     1      18.779 -20.424   0.589 -0.86 -0.00    +0.000 OA
DOCKED: ATOM     16  H   UNL     1      20.664 -20.096   1.272 -0.41 -0.00    +0.000 HD
DOCKED: ENDBRANCH  10  13
DOCKED: ENDBRANCH   4  11
DOCKED: ENDBRANCH   3   7
DOCKED: ENDBRANCH   1   3
DOCKED: BRANCH   1  17
DOCKED: ATOM     17  C   UNL     1      28.999 -15.248  -3.209 -0.19 -0.00    +0.000 C 
DOCKED: BRANCH  17  18
DOCKED: ATOM     18  C   UNL     1      28.175 -14.839  -4.438 -0.32 -0.00    +0.000 C 
DOCKED: BRANCH  18  19
DOCKED: ATOM     19  O   UNL     1      26.890 -15.395  -4.384 -0.58 -0.00    +0.000 OA
DOCKED: ATOM     20  H   UNL     1      26.661 -15.765  -5.252 -0.06 +0.00    +0.000 HD
DOCKED: ENDBRANCH  18  19
DOCKED: ENDBRANCH  17  18
DOCKED: ENDBRANCH   1  17
DOCKED: BRANCH   1  21
DOCKED: ATOM     21  C   UNL     1      28.650 -13.985  -1.117 -0.12 -0.00    +0.000 C 
DOCKED: BRANCH  21  22
DOCKED: ATOM     22  C   UNL     1      28.910 -14.451   0.320 -0.18 -0.00    +0.000 C 
DOCKED: BRANCH  22  23
DOCKED: ATOM     23  C   UNL     1      28.749 -13.316   1.289 -0.14 -0.00    +0.000 A 
DOCKED: ATOM     24  C   UNL     1      28.710 -11.961   0.970 -0.08 -0.00    +0.000 A 
DOCKED: ATOM     25  N   UNL     1      28.418 -11.226   2.068 -0.12 +0.00    +0.000 N 
DOCKED: ATOM     26  C   UNL     1      28.258 -12.105   3.071 -0.20 -0.00    +0.000 A 
DOCKED: ATOM     27  C   UNL     1      28.449 -13.391   2.636 -0.23 -0.00    +0.000 A 
DOCKED: ATOM     28  C   UNL     1      28.302 -14.485   3.490 -0.37 -0.00    +0.000 A 
DOCKED: ATOM     29  C   UNL     1      27.953 -14.230   4.829 -0.52 -0.00    +0.000 A 
DOCKED: ATOM     30  C   UNL     1      27.758 -12.905   5.277 -0.43 -0.00    +0.000 A 
DOCKED: ATOM     31  C   UNL     1      27.910 -11.823   4.391 -0.30 +0.00    +0.000 A 
DOCKED: ATOM     32  H   UNL     1      28.340 -10.246   2.119 +0.00 +0.00    +0.000 HD
DOCKED: ENDBRANCH  22  23
DOCKED: ENDBRANCH  21  22
DOCKED: ENDBRANCH   1  21
DOCKED: TORSDOF 10
DOCKED: TER
DOCKED: ENDMDL
________________________________________________________________________________


	BEGINNING GENETIC ALGORITHM DOCKING 21 of 100
Run: 21 Seed: 1094682338 1544516502 [ Run 21 of 100 GA/GALS ]
Beginning LAMARCKIAN GENETIC ALGORITHM (LGA), with a maximum of 2500000 energy evaluations.

Final-Value: -15.796


	FINAL GENETIC ALGORITHM DOCKED STATE
	_______________________________________________


Detailed state:  trans 29.050 -16.269 -2.675 quatxyzw 0.649837 -0.637265 0.345267 -0.228900 center 0.285 0.077 -0.044 ntor 10 127.5396 137.8569 24.7836 -4.2541 -45.3938 0.0288 8.6018 -28.6048 -169.7739 -70.3911
State:	 29.050 -16.269  -2.675   0.668 -0.655  0.355 -153.535    127.54  137.86   24.78   -4.25  -45.39    0.03    8.60  -28.60 -169.77  -70.39

DOCKED: MODEL       21
DOCKED: USER    Run = 21
DOCKED: USER    DPF = ligand_dock.biased.dpf
DOCKED: USER  
DOCKED: USER    Estimated Free Energy of Binding    =  -10.58 kcal/mol  [=(1)+(2)+(3)-(4)]
DOCKED: USER    Estimated Inhibition Constant, Ki   =   17.51 nM (nanomolar)  [Temperature = 298.15 K]
DOCKED: USER    
DOCKED: USER    (1) Final Intermolecular Energy     =  -13.56 kcal/mol
DOCKED: USER        vdW + Hbond + desolv Energy     =  -13.56 kcal/mol
DOCKED: USER        Electrostatic Energy            =   +0.00 kcal/mol
DOCKED: USER    (2) Final Total Internal Energy     =   -2.23 kcal/mol
DOCKED: USER    (3) Torsional Free Energy           =   +2.98 kcal/mol
DOCKED: USER    (4) Unbound System's Energy  [=(2)] =   -2.23 kcal/mol
DOCKED: USER    
DOCKED: USER    
DOCKED: USER    NEWDPF move ligand.pdbqt
DOCKED: USER    NEWDPF about 0.285000 0.077000 -0.044000
DOCKED: USER    NEWDPF tran0 29.050436 -16.268640 -2.675487
DOCKED: USER    NEWDPF quaternion0 0.649837 -0.637265 0.345267 -0.228900
DOCKED: USER    NEWDPF axisangle0 0.667561 -0.654646 0.354684 -153.535376
DOCKED: USER    NEWDPF quat0 0.667561 -0.654646 0.354684 -153.535376
DOCKED: USER    NEWDPF dihe0 127.54 137.86 24.78 -4.25 -45.39 0.03 8.60 -28.60 -169.77 -70.39 
DOCKED: USER  keepresnum = 1 
DOCKED: USER  
DOCKED: REMARK  Name = 
DOCKED: REMARK  10 active torsions:
DOCKED: REMARK  status: ('A' for Active; 'I' for Inactive)
DOCKED: REMARK    1  A    between atoms: C_2  and  C_5
DOCKED: REMARK    2  A    between atoms: C_6  and  C_7
DOCKED: REMARK    3  A    between atoms: C_10  and  C_11
DOCKED: REMARK    4  A    between atoms: C_11  and  N_12
DOCKED: REMARK    5  A    between atoms: N_12  and  C_13
DOCKED: REMARK    6  A    between atoms: N_12  and  C_16
DOCKED: REMARK    7  A    between atoms: C_13  and  C_14
DOCKED: REMARK    8  A    between atoms: C_14  and  O_15
DOCKED: REMARK    9  A    between atoms: C_16  and  C_17
DOCKED: REMARK   10  A    between atoms: C_17  and  C_18
DOCKED: REMARK                            x       y       z     vdW  Elec       q    Type
DOCKED: REMARK                         _______ _______ _______ _____ _____    ______ ____
DOCKED: USER                              x       y       z     vdW  Elec       q    Type
DOCKED: USER                           _______ _______ _______ _____ _____    ______ ____
DOCKED: ROOT
DOCKED: ATOM      1  N   UNL     1      29.397 -15.329  -3.560 -0.15 -0.00    +0.000 N 
DOCKED: ATOM      2  H   UNL     1      29.317 -14.336  -3.776 +0.01 -0.00    +0.000 HD
DOCKED: ENDROOT
DOCKED: BRANCH   1   3
DOCKED: ATOM      3  C   UNL     1      29.146 -15.389  -2.096 -0.16 -0.00    +0.000 C 
DOCKED: BRANCH   3   7
DOCKED: ATOM      4  C   UNL     1      25.210 -16.907  -1.060 -0.56 -0.00    +0.000 A 
DOCKED: ATOM      5  C   UNL     1      25.372 -15.591  -1.520 -0.38 -0.00    +0.000 A 
DOCKED: ATOM      6  C   UNL     1      26.638 -15.104  -1.855 -0.32 -0.00    +0.000 A 
DOCKED: ATOM      7  C   UNL     1      27.776 -15.914  -1.711 -0.27 -0.00    +0.000 A 
DOCKED: ATOM      8  C   UNL     1      27.615 -17.235  -1.265 -0.34 -0.00    +0.000 A 
DOCKED: ATOM      9  C   UNL     1      26.350 -17.725  -0.929 -0.50 -0.00    +0.000 A 
DOCKED: BRANCH   4  11
DOCKED: ATOM     10  C   UNL     1      23.187 -18.328  -1.375 -0.76 -0.00    +0.000 C 
DOCKED: ATOM     11  C   UNL     1      23.847 -17.373  -0.705 -0.73 -0.00    +0.000 C 
DOCKED: BRANCH  10  13
DOCKED: ATOM     12  O   UNL     1      21.275 -18.304   0.043 -1.39 -0.00    +0.000 OA
DOCKED: ATOM     13  C   UNL     1      21.826 -18.757  -0.997 -0.83 -0.00    +0.000 C 
DOCKED: ATOM     14  N   UNL     1      21.125 -19.696  -1.815 -0.61 -0.00    +0.000 N 
DOCKED: ATOM     15  O   UNL     1      19.877 -20.100  -1.481 -2.04 -0.00    +0.000 OA
DOCKED: ATOM     16  H   UNL     1      21.553 -20.052  -2.628 -0.57 -0.00    +0.000 HD
DOCKED: ENDBRANCH  10  13
DOCKED: ENDBRANCH   4  11
DOCKED: ENDBRANCH   3   7
DOCKED: ENDBRANCH   1   3
DOCKED: BRANCH   1  17
DOCKED: ATOM     17  C   UNL     1      28.361 -15.973  -4.398 -0.26 -0.00    +0.000 C 
DOCKED: BRANCH  17  18
DOCKED: ATOM     18  C   UNL     1      27.316 -14.960  -4.885 -0.46 -0.00    +0.000 C 
DOCKED: BRANCH  18  19
DOCKED: ATOM     19  O   UNL     1      26.236 -15.612  -5.497 -1.20 +0.00    +0.000 OA
DOCKED: ATOM     20  H   UNL     1      25.752 -16.127  -4.834 -0.08 -0.00    +0.000 HD
DOCKED: ENDBRANCH  18  19
DOCKED: ENDBRANCH  17  18
DOCKED: ENDBRANCH   1  17
DOCKED: BRANCH   1  21
DOCKED: ATOM     21  C   UNL     1      30.774 -15.723  -3.941 -0.11 -0.00    +0.000 C 
DOCKED: BRANCH  21  22
DOCKED: ATOM     22  C   UNL     1      31.510 -14.543  -4.584 -0.05 -0.00    +0.000 C 
DOCKED: BRANCH  22  23
DOCKED: ATOM     23  C   UNL     1      30.705 -13.958  -5.708 -0.09 -0.00    +0.000 A 
DOCKED: ATOM     24  C   UNL     1      30.627 -14.451  -7.008 -0.20 -0.00    +0.000 A 
DOCKED: ATOM     25  N   UNL     1      29.707 -13.761  -7.721 -0.25 -0.00    +0.000 N 
DOCKED: ATOM     26  C   UNL     1      29.193 -12.848  -6.879 -0.19 -0.00    +0.000 A 
DOCKED: ATOM     27  C   UNL     1      29.774 -12.938  -5.640 -0.09 -0.00    +0.000 A 
DOCKED: ATOM     28  C   UNL     1      29.381 -12.115  -4.583 -0.05 -0.00    +0.000 A 
DOCKED: ATOM     29  C   UNL     1      28.363 -11.176  -4.827 -0.07 -0.00    +0.000 A 
DOCKED: ATOM     30  C   UNL     1      27.766 -11.082  -6.104 -0.12 -0.00    +0.000 A 
DOCKED: ATOM     31  C   UNL     1      28.181 -11.929  -7.148 -0.18 -0.00    +0.000 A 
DOCKED: ATOM     32  H   UNL     1      29.464 -13.901  -8.665 -0.56 -0.00    +0.000 HD
DOCKED: ENDBRANCH  22  23
DOCKED: ENDBRANCH  21  22
DOCKED: ENDBRANCH   1  21
DOCKED: TORSDOF 10
DOCKED: TER
DOCKED: ENDMDL
________________________________________________________________________________


	BEGINNING GENETIC ALGORITHM DOCKING 22 of 100
Run: 22 Seed: 1510677947 99193856 [ Run 22 of 100 GA/GALS ]
Beginning LAMARCKIAN GENETIC ALGORITHM (LGA), with a maximum of 2500000 energy evaluations.

Final-Value: -15.112


	FINAL GENETIC ALGORITHM DOCKED STATE
	_______________________________________________


Detailed state:  trans 28.872 -15.746 -2.763 quatxyzw -0.659449 0.727856 -0.147780 0.116248 center 0.285 0.077 -0.044 ntor 10 -179.4241 158.3738 -174.8415 6.9534 -175.1286 -56.4901 159.4761 89.0593 -4.3444 -73.4083
State:	 28.872 -15.746  -2.763  -0.664  0.733 -0.149 166.649   -179.42  158.37 -174.84    6.95 -175.13  -56.49  159.48   89.06   -4.34  -73.41

DOCKED: MODEL       22
DOCKED: USER    Run = 22
DOCKED: USER    DPF = ligand_dock.biased.dpf
DOCKED: USER  
DOCKED: USER    Estimated Free Energy of Binding    =  -10.03 kcal/mol  [=(1)+(2)+(3)-(4)]
DOCKED: USER    Estimated Inhibition Constant, Ki   =   44.34 nM (nanomolar)  [Temperature = 298.15 K]
DOCKED: USER    
DOCKED: USER    (1) Final Intermolecular Energy     =  -13.01 kcal/mol
DOCKED: USER        vdW + Hbond + desolv Energy     =  -13.01 kcal/mol
DOCKED: USER        Electrostatic Energy            =   +0.00 kcal/mol
DOCKED: USER    (2) Final Total Internal Energy     =   -2.10 kcal/mol
DOCKED: USER    (3) Torsional Free Energy           =   +2.98 kcal/mol
DOCKED: USER    (4) Unbound System's Energy  [=(2)] =   -2.10 kcal/mol
DOCKED: USER    
DOCKED: USER    
DOCKED: USER    NEWDPF move ligand.pdbqt
DOCKED: USER    NEWDPF about 0.285000 0.077000 -0.044000
DOCKED: USER    NEWDPF tran0 28.871710 -15.746185 -2.763018
DOCKED: USER    NEWDPF quaternion0 -0.659449 0.727856 -0.147780 0.116248
DOCKED: USER    NEWDPF axisangle0 -0.663950 0.732825 -0.148789 166.648739
DOCKED: USER    NEWDPF quat0 -0.663950 0.732825 -0.148789 166.648739
DOCKED: USER    NEWDPF dihe0 -179.42 158.37 -174.84 6.95 -175.13 -56.49 159.48 89.06 -4.34 -73.41 
DOCKED: USER  keepresnum = 1 
DOCKED: USER  
DOCKED: REMARK  Name = 
DOCKED: REMARK  10 active torsions:
DOCKED: REMARK  status: ('A' for Active; 'I' for Inactive)
DOCKED: REMARK    1  A    between atoms: C_2  and  C_5
DOCKED: REMARK    2  A    between atoms: C_6  and  C_7
DOCKED: REMARK    3  A    between atoms: C_10  and  C_11
DOCKED: REMARK    4  A    between atoms: C_11  and  N_12
DOCKED: REMARK    5  A    between atoms: N_12  and  C_13
DOCKED: REMARK    6  A    between atoms: N_12  and  C_16
DOCKED: REMARK    7  A    between atoms: C_13  and  C_14
DOCKED: REMARK    8  A    between atoms: C_14  and  O_15
DOCKED: REMARK    9  A    between atoms: C_16  and  C_17
DOCKED: REMARK   10  A    between atoms: C_17  and  C_18
DOCKED: REMARK                            x       y       z     vdW  Elec       q    Type
DOCKED: REMARK                         _______ _______ _______ _____ _____    ______ ____
DOCKED: USER                              x       y       z     vdW  Elec       q    Type
DOCKED: USER                           _______ _______ _______ _____ _____    ______ ____
DOCKED: ROOT
DOCKED: ATOM      1  N   UNL     1      29.297 -14.545  -3.165 -0.10 -0.00    +0.000 N 
DOCKED: ATOM      2  H   UNL     1      29.338 -13.560  -2.906 +0.00 -0.00    +0.000 HD
DOCKED: ENDROOT
DOCKED: BRANCH   1   3
DOCKED: ATOM      3  C   UNL     1      29.111 -15.242  -1.865 -0.15 -0.00    +0.000 C 
DOCKED: BRANCH   3   7
DOCKED: ATOM      4  C   UNL     1      25.059 -16.546  -1.004 -0.51 -0.00    +0.000 A 
DOCKED: ATOM      5  C   UNL     1      25.943 -17.375  -1.712 -0.40 -0.00    +0.000 A 
DOCKED: ATOM      6  C   UNL     1      27.247 -16.956  -1.987 -0.22 -0.00    +0.000 A 
DOCKED: ATOM      7  C   UNL     1      27.688 -15.685  -1.584 -0.26 -0.00    +0.000 A 
DOCKED: ATOM      8  C   UNL     1      26.811 -14.860  -0.864 -0.28 -0.00    +0.000 A 
DOCKED: ATOM      9  C   UNL     1      25.506 -15.277  -0.587 -0.16 -0.00    +0.000 A 
DOCKED: BRANCH   4  11
DOCKED: ATOM     10  C   UNL     1      23.119 -18.062  -1.397 -0.70 -0.00    +0.000 C 
DOCKED: ATOM     11  C   UNL     1      23.680 -17.031  -0.748 -0.66 -0.00    +0.000 C 
DOCKED: BRANCH  10  13
DOCKED: ATOM     12  O   UNL     1      21.000 -17.860  -0.332 -1.90 +0.00    +0.000 OA
DOCKED: ATOM     13  C   UNL     1      21.740 -18.508  -1.121 -0.73 -0.00    +0.000 C 
DOCKED: ATOM     14  N   UNL     1      21.236 -19.688  -1.752 -0.58 -0.00    +0.000 N 
DOCKED: ATOM     15  O   UNL     1      19.973 -20.110  -1.508 -2.08 -0.00    +0.000 OA
DOCKED: ATOM     16  H   UNL     1      21.812 -20.196  -2.368 -0.58 -0.00    +0.000 HD
DOCKED: ENDBRANCH  10  13
DOCKED: ENDBRANCH   4  11
DOCKED: ENDBRANCH   3   7
DOCKED: ENDBRANCH   1   3
DOCKED: BRANCH   1  17
DOCKED: ATOM     17  C   UNL     1      28.145 -14.633  -4.091 -0.27 -0.00    +0.000 C 
DOCKED: BRANCH  17  18
DOCKED: ATOM     18  C   UNL     1      28.412 -15.619  -5.236 -0.38 -0.00    +0.000 C 
DOCKED: BRANCH  18  19
DOCKED: ATOM     19  O   UNL     1      27.718 -15.239  -6.394 -0.84 +0.00    +0.000 OA
DOCKED: ATOM     20  H   UNL     1      28.350 -15.077  -7.111 -0.07 +0.00    +0.000 HD
DOCKED: ENDBRANCH  18  19
DOCKED: ENDBRANCH  17  18
DOCKED: ENDBRANCH   1  17
DOCKED: BRANCH   1  21
DOCKED: ATOM     21  C   UNL     1      30.589 -14.853  -3.822 -0.08 -0.00    +0.000 C 
DOCKED: BRANCH  21  22
DOCKED: ATOM     22  C   UNL     1      31.396 -15.845  -2.978 -0.06 -0.00    +0.000 C 
DOCKED: BRANCH  22  23
DOCKED: ATOM     23  C   UNL     1      31.236 -17.244  -3.497 -0.12 -0.00    +0.000 A 
DOCKED: ATOM     24  C   UNL     1      31.049 -18.391  -2.729 -0.13 -0.00    +0.000 A 
DOCKED: ATOM     25  N   UNL     1      30.807 -19.458  -3.525 -0.03 -0.00    +0.000 N 
DOCKED: ATOM     26  C   UNL     1      30.823 -18.993  -4.785 -0.24 -0.00    +0.000 A 
DOCKED: ATOM     27  C   UNL     1      31.079 -17.646  -4.810 -0.19 -0.00    +0.000 A 
DOCKED: ATOM     28  C   UNL     1      31.112 -16.927  -6.007 -0.22 -0.00    +0.000 A 
DOCKED: ATOM     29  C   UNL     1      30.878 -17.631  -7.202 -0.30 -0.00    +0.000 A 
DOCKED: ATOM     30  C   UNL     1      30.616 -19.019  -7.175 -0.36 -0.00    +0.000 A 
DOCKED: ATOM     31  C   UNL     1      30.585 -19.715  -5.953 -0.38 -0.00    +0.000 A 
DOCKED: ATOM     32  H   UNL     1      30.650 -20.386  -3.236 -0.01 -0.00    +0.000 HD
DOCKED: ENDBRANCH  22  23
DOCKED: ENDBRANCH  21  22
DOCKED: ENDBRANCH   1  21
DOCKED: TORSDOF 10
DOCKED: TER
DOCKED: ENDMDL
________________________________________________________________________________


	BEGINNING GENETIC ALGORITHM DOCKING 23 of 100
Run: 23 Seed: 163347199 1834106216 [ Run 23 of 100 GA/GALS ]
Beginning LAMARCKIAN GENETIC ALGORITHM (LGA), with a maximum of 2500000 energy evaluations.

Final-Value: -18.719


	FINAL GENETIC ALGORITHM DOCKED STATE
	_______________________________________________


Detailed state:  trans 27.284 -15.668 -1.476 quatxyzw 0.439359 -0.585554 -0.678498 -0.061078 center 0.285 0.077 -0.044 ntor 10 -104.5302 -2.6306 8.1905 -149.9748 -167.5612 -22.3172 171.7982 107.1464 -5.2301 -44.6539
State:	 27.284 -15.668  -1.476   0.440 -0.587 -0.680 -172.997   -104.53   -2.63    8.19 -149.97 -167.56  -22.32  171.80  107.15   -5.23  -44.65

DOCKED: MODEL       23
DOCKED: USER    Run = 23
DOCKED: USER    DPF = ligand_dock.biased.dpf
DOCKED: USER  
DOCKED: USER    Estimated Free Energy of Binding    =  -13.33 kcal/mol  [=(1)+(2)+(3)-(4)]
DOCKED: USER    Estimated Inhibition Constant, Ki   =  169.37 pM (picomolar)  [Temperature = 298.15 K]
DOCKED: USER    
DOCKED: USER    (1) Final Intermolecular Energy     =  -16.31 kcal/mol
DOCKED: USER        vdW + Hbond + desolv Energy     =  -16.31 kcal/mol
DOCKED: USER        Electrostatic Energy            =   +0.00 kcal/mol
DOCKED: USER    (2) Final Total Internal Energy     =   -2.41 kcal/mol
DOCKED: USER    (3) Torsional Free Energy           =   +2.98 kcal/mol
DOCKED: USER    (4) Unbound System's Energy  [=(2)] =   -2.41 kcal/mol
DOCKED: USER    
DOCKED: USER    
DOCKED: USER    NEWDPF move ligand.pdbqt
DOCKED: USER    NEWDPF about 0.285000 0.077000 -0.044000
DOCKED: USER    NEWDPF tran0 27.283649 -15.668047 -1.475841
DOCKED: USER    NEWDPF quaternion0 0.439359 -0.585554 -0.678498 -0.061078
DOCKED: USER    NEWDPF axisangle0 0.440181 -0.586650 -0.679767 -172.996591
DOCKED: USER    NEWDPF quat0 0.440181 -0.586650 -0.679767 -172.996591
DOCKED: USER    NEWDPF dihe0 -104.53 -2.63 8.19 -149.97 -167.56 -22.32 171.80 107.15 -5.23 -44.65 
DOCKED: USER  keepresnum = 1 
DOCKED: USER  
DOCKED: REMARK  Name = 
DOCKED: REMARK  10 active torsions:
DOCKED: REMARK  status: ('A' for Active; 'I' for Inactive)
DOCKED: REMARK    1  A    between atoms: C_2  and  C_5
DOCKED: REMARK    2  A    between atoms: C_6  and  C_7
DOCKED: REMARK    3  A    between atoms: C_10  and  C_11
DOCKED: REMARK    4  A    between atoms: C_11  and  N_12
DOCKED: REMARK    5  A    between atoms: N_12  and  C_13
DOCKED: REMARK    6  A    between atoms: N_12  and  C_16
DOCKED: REMARK    7  A    between atoms: C_13  and  C_14
DOCKED: REMARK    8  A    between atoms: C_14  and  O_15
DOCKED: REMARK    9  A    between atoms: C_16  and  C_17
DOCKED: REMARK   10  A    between atoms: C_17  and  C_18
DOCKED: REMARK                            x       y       z     vdW  Elec       q    Type
DOCKED: REMARK                         _______ _______ _______ _____ _____    ______ ____
DOCKED: USER                              x       y       z     vdW  Elec       q    Type
DOCKED: USER                           _______ _______ _______ _____ _____    ______ ____
DOCKED: ROOT
DOCKED: ATOM      1  N   UNL     1      28.239 -14.843  -1.038 -0.16 -0.00    +0.000 N 
DOCKED: ATOM      2  H   UNL     1      29.128 -14.807  -0.540 +0.00 -0.00    +0.000 HD
DOCKED: ENDROOT
DOCKED: BRANCH   1   3
DOCKED: ATOM      3  C   UNL     1      28.169 -16.244  -1.529 -0.32 -0.00    +0.000 C 
DOCKED: BRANCH   3   7
DOCKED: ATOM      4  C   UNL     1      24.452 -18.333  -0.699 -0.68 -0.00    +0.000 A 
DOCKED: ATOM      5  C   UNL     1      24.593 -17.554  -1.858 -0.56 -0.00    +0.000 A 
DOCKED: ATOM      6  C   UNL     1      25.789 -16.884  -2.126 -0.45 -0.00    +0.000 A 
DOCKED: ATOM      7  C   UNL     1      26.864 -16.955  -1.225 -0.43 -0.00    +0.000 A 
DOCKED: ATOM      8  C   UNL     1      26.731 -17.744  -0.072 -0.48 -0.00    +0.000 A 
DOCKED: ATOM      9  C   UNL     1      25.535 -18.416   0.198 -0.42 -0.00    +0.000 A 
DOCKED: BRANCH   4  11
DOCKED: ATOM     10  C   UNL     1      22.054 -18.807  -1.187 -0.77 -0.00    +0.000 C 
DOCKED: ATOM     11  C   UNL     1      23.157 -19.014  -0.453 -0.73 -0.00    +0.000 C 
DOCKED: BRANCH  10  13
DOCKED: ATOM     12  O   UNL     1      19.957 -19.733  -1.830 -2.40 -0.00    +0.000 OA
DOCKED: ATOM     13  C   UNL     1      20.780 -19.497  -0.904 -0.86 -0.00    +0.000 C 
DOCKED: ATOM     14  N   UNL     1      20.474 -19.902   0.433 -0.70 -0.00    +0.000 N 
DOCKED: ATOM     15  O   UNL     1      19.309 -20.535   0.708 -0.84 -0.00    +0.000 OA
DOCKED: ATOM     16  H   UNL     1      21.114 -19.719   1.158 -0.48 -0.00    +0.000 HD
DOCKED: ENDBRANCH  10  13
DOCKED: ENDBRANCH   4  11
DOCKED: ENDBRANCH   3   7
DOCKED: ENDBRANCH   1   3
DOCKED: BRANCH   1  17
DOCKED: ATOM     17  C   UNL     1      27.230 -14.488  -0.014 -0.30 -0.00    +0.000 C 
DOCKED: BRANCH  17  18
DOCKED: ATOM     18  C   UNL     1      27.616 -15.023   1.372 -0.04 -0.00    +0.000 C 
DOCKED: BRANCH  18  19
DOCKED: ATOM     19  O   UNL     1      28.946 -14.703   1.677 -0.22 -0.00    +0.000 OA
DOCKED: ATOM     20  H   UNL     1      29.242 -15.236   2.431 -1.98 -0.00    +0.000 HD
DOCKED: ENDBRANCH  18  19
DOCKED: ENDBRANCH  17  18
DOCKED: ENDBRANCH   1  17
DOCKED: BRANCH   1  21
DOCKED: ATOM     21  C   UNL     1      28.335 -13.840  -2.124 -0.13 -0.00    +0.000 C 
DOCKED: BRANCH  21  22
DOCKED: ATOM     22  C   UNL     1      27.873 -14.444  -3.454 -0.24 -0.00    +0.000 C 
DOCKED: BRANCH  22  23
DOCKED: ATOM     23  C   UNL     1      26.575 -13.834  -3.897 -0.34 -0.00    +0.000 A 
DOCKED: ATOM     24  C   UNL     1      25.316 -14.421  -3.809 -0.47 -0.00    +0.000 A 
DOCKED: ATOM     25  N   UNL     1      24.356 -13.541  -4.173 -0.38 -0.00    +0.000 N 
DOCKED: ATOM     26  C   UNL     1      24.996 -12.399  -4.477 -0.22 -0.00    +0.000 A 
DOCKED: ATOM     27  C   UNL     1      26.351 -12.536  -4.318 -0.28 -0.00    +0.000 A 
DOCKED: ATOM     28  C   UNL     1      27.228 -11.472  -4.540 -0.15 -0.00    +0.000 A 
DOCKED: ATOM     29  C   UNL     1      26.677 -10.242  -4.940 -0.14 -0.00    +0.000 A 
DOCKED: ATOM     30  C   UNL     1      25.282 -10.101  -5.105 -0.29 -0.00    +0.000 A 
DOCKED: ATOM     31  C   UNL     1      24.423 -11.190  -4.870 -0.29 -0.00    +0.000 A 
DOCKED: ATOM     32  H   UNL     1      23.386 -13.705  -4.209 -0.57 -0.00    +0.000 HD
DOCKED: ENDBRANCH  22  23
DOCKED: ENDBRANCH  21  22
DOCKED: ENDBRANCH   1  21
DOCKED: TORSDOF 10
DOCKED: TER
DOCKED: ENDMDL
________________________________________________________________________________


	BEGINNING GENETIC ALGORITHM DOCKING 24 of 100
Run: 24 Seed: 1446278574 498570178 [ Run 24 of 100 GA/GALS ]
Beginning LAMARCKIAN GENETIC ALGORITHM (LGA), with a maximum of 2500000 energy evaluations.

Final-Value: -16.640


	FINAL GENETIC ALGORITHM DOCKED STATE
	_______________________________________________


Detailed state:  trans 28.902 -15.572 -1.693 quatxyzw -0.509345 -0.687503 -0.433799 0.282357 center 0.285 0.077 -0.044 ntor 10 44.9992 -99.4720 63.5786 -140.3168 180.0000 -141.3982 -126.0945 157.7949 160.2379 163.1950
State:	 28.902 -15.572  -1.693  -0.531 -0.717 -0.452 147.198     45.00  -99.47   63.58 -140.32  180.00 -141.40 -126.09  157.79  160.24  163.19

DOCKED: MODEL       24
DOCKED: USER    Run = 24
DOCKED: USER    DPF = ligand_dock.biased.dpf
DOCKED: USER  
DOCKED: USER    Estimated Free Energy of Binding    =  -11.52 kcal/mol  [=(1)+(2)+(3)-(4)]
DOCKED: USER    Estimated Inhibition Constant, Ki   =    3.59 nM (nanomolar)  [Temperature = 298.15 K]
DOCKED: USER    
DOCKED: USER    (1) Final Intermolecular Energy     =  -14.50 kcal/mol
DOCKED: USER        vdW + Hbond + desolv Energy     =  -14.50 kcal/mol
DOCKED: USER        Electrostatic Energy            =   +0.00 kcal/mol
DOCKED: USER    (2) Final Total Internal Energy     =   -2.14 kcal/mol
DOCKED: USER    (3) Torsional Free Energy           =   +2.98 kcal/mol
DOCKED: USER    (4) Unbound System's Energy  [=(2)] =   -2.14 kcal/mol
DOCKED: USER    
DOCKED: USER    
DOCKED: USER    NEWDPF move ligand.pdbqt
DOCKED: USER    NEWDPF about 0.285000 0.077000 -0.044000
DOCKED: USER    NEWDPF tran0 28.902185 -15.572465 -1.692826
DOCKED: USER    NEWDPF quaternion0 -0.509345 -0.687503 -0.433799 0.282357
DOCKED: USER    NEWDPF axisangle0 -0.530950 -0.716664 -0.452199 147.198148
DOCKED: USER    NEWDPF quat0 -0.530950 -0.716664 -0.452199 147.198148
DOCKED: USER    NEWDPF dihe0 45.00 -99.47 63.58 -140.32 180.00 -141.40 -126.09 157.79 160.24 163.19 
DOCKED: USER  keepresnum = 1 
DOCKED: USER  
DOCKED: REMARK  Name = 
DOCKED: REMARK  10 active torsions:
DOCKED: REMARK  status: ('A' for Active; 'I' for Inactive)
DOCKED: REMARK    1  A    between atoms: C_2  and  C_5
DOCKED: REMARK    2  A    between atoms: C_6  and  C_7
DOCKED: REMARK    3  A    between atoms: C_10  and  C_11
DOCKED: REMARK    4  A    between atoms: C_11  and  N_12
DOCKED: REMARK    5  A    between atoms: N_12  and  C_13
DOCKED: REMARK    6  A    between atoms: N_12  and  C_16
DOCKED: REMARK    7  A    between atoms: C_13  and  C_14
DOCKED: REMARK    8  A    between atoms: C_14  and  O_15
DOCKED: REMARK    9  A    between atoms: C_16  and  C_17
DOCKED: REMARK   10  A    between atoms: C_17  and  C_18
DOCKED: REMARK                            x       y       z     vdW  Elec       q    Type
DOCKED: REMARK                         _______ _______ _______ _____ _____    ______ ____
DOCKED: USER                              x       y       z     vdW  Elec       q    Type
DOCKED: USER                           _______ _______ _______ _____ _____    ______ ____
DOCKED: ROOT
DOCKED: ATOM      1  N   UNL     1      29.139 -16.852  -1.996 -0.25 -0.00    +0.000 N 
DOCKED: ATOM      2  H   UNL     1      28.916 -17.812  -1.735 -0.04 -0.00    +0.000 HD
DOCKED: ENDROOT
DOCKED: BRANCH   1   3
DOCKED: ATOM      3  C   UNL     1      28.000 -16.068  -1.452 -0.31 -0.00    +0.000 C 
DOCKED: BRANCH   3   7
DOCKED: ATOM      4  C   UNL     1      24.401 -18.416  -0.819 -0.68 -0.00    +0.000 A 
DOCKED: ATOM      5  C   UNL     1      24.482 -17.501  -1.880 -0.55 -0.00    +0.000 A 
DOCKED: ATOM      6  C   UNL     1      25.640 -16.748  -2.085 -0.50 -0.00    +0.000 A 
DOCKED: ATOM      7  C   UNL     1      26.735 -16.872  -1.215 -0.44 -0.00    +0.000 A 
DOCKED: ATOM      8  C   UNL     1      26.663 -17.796  -0.161 -0.51 -0.00    +0.000 A 
DOCKED: ATOM      9  C   UNL     1      25.505 -18.552   0.046 -0.44 -0.00    +0.000 A 
DOCKED: BRANCH   4  11
DOCKED: ATOM     10  C   UNL     1      21.959 -18.805  -1.135 -0.79 -0.00    +0.000 C 
DOCKED: ATOM     11  C   UNL     1      23.144 -19.184  -0.636 -0.73 -0.00    +0.000 C 
DOCKED: BRANCH  10  13
DOCKED: ATOM     12  O   UNL     1      19.876 -19.714  -1.844 -2.38 -0.00    +0.000 OA
DOCKED: ATOM     13  C   UNL     1      20.728 -19.591  -0.922 -0.85 -0.00    +0.000 C 
DOCKED: ATOM     14  N   UNL     1      20.496 -20.218   0.341 -0.68 -0.00    +0.000 N 
DOCKED: ATOM     15  O   UNL     1      19.372 -20.941   0.552 -0.87 -0.00    +0.000 OA
DOCKED: ATOM     16  H   UNL     1      21.159 -20.123   1.063 -0.54 -0.00    +0.000 HD
DOCKED: ENDBRANCH  10  13
DOCKED: ENDBRANCH   4  11
DOCKED: ENDBRANCH   3   7
DOCKED: ENDBRANCH   1   3
DOCKED: BRANCH   1  17
DOCKED: ATOM     17  C   UNL     1      30.444 -16.590  -1.347 -0.16 -0.00    +0.000 C 
DOCKED: BRANCH  17  18
DOCKED: ATOM     18  C   UNL     1      31.181 -17.893  -1.008 -0.18 -0.00    +0.000 C 
DOCKED: BRANCH  18  19
DOCKED: ATOM     19  O   UNL     1      30.326 -18.795  -0.359 -0.14 -0.00    +0.000 OA
DOCKED: ATOM     20  H   UNL     1      29.539 -18.324  -0.044 -0.59 -0.00    +0.000 HD
DOCKED: ENDBRANCH  18  19
DOCKED: ENDBRANCH  17  18
DOCKED: ENDBRANCH   1  17
DOCKED: BRANCH   1  21
DOCKED: ATOM     21  C   UNL     1      29.217 -16.835  -3.476 -0.21 -0.00    +0.000 C 
DOCKED: BRANCH  21  22
DOCKED: ATOM     22  C   UNL     1      29.619 -15.443  -3.974 -0.19 -0.00    +0.000 C 
DOCKED: BRANCH  22  23
DOCKED: ATOM     23  C   UNL     1      29.869 -15.455  -5.454 -0.24 -0.00    +0.000 A 
DOCKED: ATOM     24  C   UNL     1      29.458 -14.486  -6.366 -0.29 -0.00    +0.000 A 
DOCKED: ATOM     25  N   UNL     1      29.969 -14.744  -7.592 -0.26 -0.00    +0.000 N 
DOCKED: ATOM     26  C   UNL     1      30.710 -15.857  -7.459 -0.26 -0.00    +0.000 A 
DOCKED: ATOM     27  C   UNL     1      30.677 -16.319  -6.168 -0.25 -0.00    +0.000 A 
DOCKED: ATOM     28  C   UNL     1      31.400 -17.447  -5.773 -0.18 -0.00    +0.000 A 
DOCKED: ATOM     29  C   UNL     1      32.169 -18.107  -6.748 -0.13 -0.00    +0.000 A 
DOCKED: ATOM     30  C   UNL     1      32.202 -17.631  -8.077 -0.19 -0.00    +0.000 A 
DOCKED: ATOM     31  C   UNL     1      31.466 -16.490  -8.444 -0.17 -0.00    +0.000 A 
DOCKED: ATOM     32  H   UNL     1      29.826 -14.221  -8.414 -0.53 -0.00    +0.000 HD
DOCKED: ENDBRANCH  22  23
DOCKED: ENDBRANCH  21  22
DOCKED: ENDBRANCH   1  21
DOCKED: TORSDOF 10
DOCKED: TER
DOCKED: ENDMDL
________________________________________________________________________________


	BEGINNING GENETIC ALGORITHM DOCKING 25 of 100
Run: 25 Seed: 306160752 1070254291 [ Run 25 of 100 GA/GALS ]
Beginning LAMARCKIAN GENETIC ALGORITHM (LGA), with a maximum of 2500000 energy evaluations.

Final-Value: -16.784


	FINAL GENETIC ALGORITHM DOCKED STATE
	_______________________________________________


Detailed state:  trans 29.374 -14.306 0.474 quatxyzw -0.372001 0.380713 -0.061783 -0.844308 center 0.285 0.077 -0.044 ntor 10 -38.8571 -33.9090 45.2942 -135.3331 103.3119 14.6333 -68.4145 -43.7181 -21.0817 -176.5475
State:	 29.374 -14.306   0.474  -0.694  0.710 -0.115 -64.804    -38.86  -33.91   45.29 -135.33  103.31   14.63  -68.41  -43.72  -21.08 -176.55

DOCKED: MODEL       25
DOCKED: USER    Run = 25
DOCKED: USER    DPF = ligand_dock.biased.dpf
DOCKED: USER  
DOCKED: USER    Estimated Free Energy of Binding    =  -11.31 kcal/mol  [=(1)+(2)+(3)-(4)]
DOCKED: USER    Estimated Inhibition Constant, Ki   =    5.11 nM (nanomolar)  [Temperature = 298.15 K]
DOCKED: USER    
DOCKED: USER    (1) Final Intermolecular Energy     =  -14.29 kcal/mol
DOCKED: USER        vdW + Hbond + desolv Energy     =  -14.29 kcal/mol
DOCKED: USER        Electrostatic Energy            =   +0.00 kcal/mol
DOCKED: USER    (2) Final Total Internal Energy     =   -2.49 kcal/mol
DOCKED: USER    (3) Torsional Free Energy           =   +2.98 kcal/mol
DOCKED: USER    (4) Unbound System's Energy  [=(2)] =   -2.49 kcal/mol
DOCKED: USER    
DOCKED: USER    
DOCKED: USER    NEWDPF move ligand.pdbqt
DOCKED: USER    NEWDPF about 0.285000 0.077000 -0.044000
DOCKED: USER    NEWDPF tran0 29.373595 -14.306040 0.473694
DOCKED: USER    NEWDPF quaternion0 -0.372001 0.380713 -0.061783 -0.844308
DOCKED: USER    NEWDPF axisangle0 -0.694214 0.710474 -0.115297 -64.804301
DOCKED: USER    NEWDPF quat0 -0.694214 0.710474 -0.115297 -64.804301
DOCKED: USER    NEWDPF dihe0 -38.86 -33.91 45.29 -135.33 103.31 14.63 -68.41 -43.72 -21.08 -176.55 
DOCKED: USER  keepresnum = 1 
DOCKED: USER  
DOCKED: REMARK  Name = 
DOCKED: REMARK  10 active torsions:
DOCKED: REMARK  status: ('A' for Active; 'I' for Inactive)
DOCKED: REMARK    1  A    between atoms: C_2  and  C_5
DOCKED: REMARK    2  A    between atoms: C_6  and  C_7
DOCKED: REMARK    3  A    between atoms: C_10  and  C_11
DOCKED: REMARK    4  A    between atoms: C_11  and  N_12
DOCKED: REMARK    5  A    between atoms: N_12  and  C_13
DOCKED: REMARK    6  A    between atoms: N_12  and  C_16
DOCKED: REMARK    7  A    between atoms: C_13  and  C_14
DOCKED: REMARK    8  A    between atoms: C_14  and  O_15
DOCKED: REMARK    9  A    between atoms: C_16  and  C_17
DOCKED: REMARK   10  A    between atoms: C_17  and  C_18
DOCKED: REMARK                            x       y       z     vdW  Elec       q    Type
DOCKED: REMARK                         _______ _______ _______ _____ _____    ______ ____
DOCKED: USER                              x       y       z     vdW  Elec       q    Type
DOCKED: USER                           _______ _______ _______ _____ _____    ______ ____
DOCKED: ROOT
DOCKED: ATOM      1  N   UNL     1      28.472 -14.046   1.424 -0.21 -0.00    +0.000 N 
DOCKED: ATOM      2  H   UNL     1      27.474 -14.057   1.635 -0.06 -0.00    +0.000 HD
DOCKED: ENDROOT
DOCKED: BRANCH   1   3
DOCKED: ATOM      3  C   UNL     1      28.604 -15.010   0.302 -0.22 -0.00    +0.000 C 
DOCKED: BRANCH   3   7
DOCKED: ATOM      4  C   UNL     1      24.920 -16.949  -0.937 -0.56 -0.00    +0.000 A 
DOCKED: ATOM      5  C   UNL     1      25.141 -15.591  -1.211 -0.27 -0.00    +0.000 A 
DOCKED: ATOM      6  C   UNL     1      26.327 -14.968  -0.815 -0.32 -0.00    +0.000 A 
DOCKED: ATOM      7  C   UNL     1      27.308 -15.683  -0.109 -0.31 -0.00    +0.000 A 
DOCKED: ATOM      8  C   UNL     1      27.095 -17.046   0.154 -0.31 -0.00    +0.000 A 
DOCKED: ATOM      9  C   UNL     1      25.910 -17.671  -0.241 -0.55 -0.00    +0.000 A 
DOCKED: BRANCH   4  11
DOCKED: ATOM     10  C   UNL     1      22.582 -17.726  -0.559 -0.80 -0.00    +0.000 C 
DOCKED: ATOM     11  C   UNL     1      23.638 -17.561  -1.367 -0.71 -0.00    +0.000 C 
DOCKED: BRANCH  10  13
DOCKED: ATOM     12  O   UNL     1      20.209 -17.857  -0.708 -2.16 +0.00    +0.000 OA
DOCKED: ATOM     13  C   UNL     1      21.327 -18.350  -1.022 -0.73 -0.00    +0.000 C 
DOCKED: ATOM     14  N   UNL     1      21.376 -19.526  -1.833 -0.54 -0.00    +0.000 N 
DOCKED: ATOM     15  O   UNL     1      20.234 -20.110  -2.265 -2.20 -0.00    +0.000 OA
DOCKED: ATOM     16  H   UNL     1      22.247 -19.914  -2.080 -0.49 -0.00    +0.000 HD
DOCKED: ENDBRANCH  10  13
DOCKED: ENDBRANCH   4  11
DOCKED: ENDBRANCH   3   7
DOCKED: ENDBRANCH   1   3
DOCKED: BRANCH   1  17
DOCKED: ATOM     17  C   UNL     1      28.756 -12.636   1.073 -0.12 -0.00    +0.000 C 
DOCKED: BRANCH  17  18
DOCKED: ATOM     18  C   UNL     1      27.507 -11.754   1.213 -0.21 -0.00    +0.000 C 
DOCKED: BRANCH  18  19
DOCKED: ATOM     19  O   UNL     1      26.534 -12.388   1.996 -0.39 +0.00    +0.000 OA
DOCKED: ATOM     20  H   UNL     1      25.868 -12.793   1.419 -0.03 +0.00    +0.000 HD
DOCKED: ENDBRANCH  18  19
DOCKED: ENDBRANCH  17  18
DOCKED: ENDBRANCH   1  17
DOCKED: BRANCH   1  21
DOCKED: ATOM     21  C   UNL     1      29.159 -14.481   2.663 -0.14 -0.00    +0.000 C 
DOCKED: BRANCH  21  22
DOCKED: ATOM     22  C   UNL     1      28.229 -14.333   3.872 -0.50 -0.00    +0.000 C 
DOCKED: BRANCH  22  23
DOCKED: ATOM     23  C   UNL     1      28.907 -13.583   4.981 -0.38 -0.00    +0.000 A 
DOCKED: ATOM     24  C   UNL     1      30.005 -14.019   5.718 -0.20 -0.00    +0.000 A 
DOCKED: ATOM     25  N   UNL     1      30.440 -13.038   6.543 -0.26 -0.00    +0.000 N 
DOCKED: ATOM     26  C   UNL     1      29.637 -11.984   6.322 -0.23 -0.00    +0.000 A 
DOCKED: ATOM     27  C   UNL     1      28.691 -12.275   5.373 -0.31 -0.00    +0.000 A 
DOCKED: ATOM     28  C   UNL     1      27.761 -11.324   4.947 -0.35 +0.00    +0.000 A 
DOCKED: ATOM     29  C   UNL     1      27.819 -10.044   5.527 -0.27 +0.00    +0.000 A 
DOCKED: ATOM     30  C   UNL     1      28.793  -9.745   6.505 -0.24 +0.00    +0.000 A 
DOCKED: ATOM     31  C   UNL     1      29.719 -10.724   6.912 -0.20 -0.00    +0.000 A 
DOCKED: ATOM     32  H   UNL     1      31.192 -13.089   7.176 -0.01 -0.00    +0.000 HD
DOCKED: ENDBRANCH  22  23
DOCKED: ENDBRANCH  21  22
DOCKED: ENDBRANCH   1  21
DOCKED: TORSDOF 10
DOCKED: TER
DOCKED: ENDMDL
________________________________________________________________________________


	BEGINNING GENETIC ALGORITHM DOCKING 26 of 100
Run: 26 Seed: 940412633 482164597 [ Run 26 of 100 GA/GALS ]
Beginning LAMARCKIAN GENETIC ALGORITHM (LGA), with a maximum of 2500000 energy evaluations.

Final-Value: -18.787


	FINAL GENETIC ALGORITHM DOCKED STATE
	_______________________________________________


Detailed state:  trans 27.937 -15.496 -0.851 quatxyzw 0.477530 -0.588330 -0.519217 0.395281 center 0.285 0.077 -0.044 ntor 10 86.5085 -66.9763 71.6453 74.4652 169.7846 -162.1564 12.2033 179.5023 169.3010 -85.1890
State:	 27.937 -15.496  -0.851   0.520 -0.640 -0.565 133.433     86.51  -66.98   71.65   74.47  169.78 -162.16   12.20  179.50  169.30  -85.19

DOCKED: MODEL       26
DOCKED: USER    Run = 26
DOCKED: USER    DPF = ligand_dock.biased.dpf
DOCKED: USER  
DOCKED: USER    Estimated Free Energy of Binding    =  -13.24 kcal/mol  [=(1)+(2)+(3)-(4)]
DOCKED: USER    Estimated Inhibition Constant, Ki   =  198.35 pM (picomolar)  [Temperature = 298.15 K]
DOCKED: USER    
DOCKED: USER    (1) Final Intermolecular Energy     =  -16.22 kcal/mol
DOCKED: USER        vdW + Hbond + desolv Energy     =  -16.22 kcal/mol
DOCKED: USER        Electrostatic Energy            =   +0.00 kcal/mol
DOCKED: USER    (2) Final Total Internal Energy     =   -2.57 kcal/mol
DOCKED: USER    (3) Torsional Free Energy           =   +2.98 kcal/mol
DOCKED: USER    (4) Unbound System's Energy  [=(2)] =   -2.57 kcal/mol
DOCKED: USER    
DOCKED: USER    
DOCKED: USER    NEWDPF move ligand.pdbqt
DOCKED: USER    NEWDPF about 0.285000 0.077000 -0.044000
DOCKED: USER    NEWDPF tran0 27.936746 -15.496250 -0.851228
DOCKED: USER    NEWDPF quaternion0 0.477530 -0.588330 -0.519217 0.395281
DOCKED: USER    NEWDPF axisangle0 0.519867 -0.640492 -0.565251 133.432984
DOCKED: USER    NEWDPF quat0 0.519867 -0.640492 -0.565251 133.432984
DOCKED: USER    NEWDPF dihe0 86.51 -66.98 71.65 74.47 169.78 -162.16 12.20 179.50 169.30 -85.19 
DOCKED: USER  keepresnum = 1 
DOCKED: USER  
DOCKED: REMARK  Name = 
DOCKED: REMARK  10 active torsions:
DOCKED: REMARK  status: ('A' for Active; 'I' for Inactive)
DOCKED: REMARK    1  A    between atoms: C_2  and  C_5
DOCKED: REMARK    2  A    between atoms: C_6  and  C_7
DOCKED: REMARK    3  A    between atoms: C_10  and  C_11
DOCKED: REMARK    4  A    between atoms: C_11  and  N_12
DOCKED: REMARK    5  A    between atoms: N_12  and  C_13
DOCKED: REMARK    6  A    between atoms: N_12  and  C_16
DOCKED: REMARK    7  A    between atoms: C_13  and  C_14
DOCKED: REMARK    8  A    between atoms: C_14  and  O_15
DOCKED: REMARK    9  A    between atoms: C_16  and  C_17
DOCKED: REMARK   10  A    between atoms: C_17  and  C_18
DOCKED: REMARK                            x       y       z     vdW  Elec       q    Type
DOCKED: REMARK                         _______ _______ _______ _____ _____    ______ ____
DOCKED: USER                              x       y       z     vdW  Elec       q    Type
DOCKED: USER                           _______ _______ _______ _____ _____    ______ ____
DOCKED: ROOT
DOCKED: ATOM      1  N   UNL     1      28.526 -15.358   0.340 -0.23 -0.00    +0.000 N 
DOCKED: ATOM      2  H   UNL     1      28.707 -15.829   1.226 -0.86 -0.00    +0.000 HD
DOCKED: ENDROOT
DOCKED: BRANCH   1   3
DOCKED: ATOM      3  C   UNL     1      28.249 -16.475  -0.601 -0.33 -0.00    +0.000 C 
DOCKED: BRANCH   3   7
DOCKED: ATOM      4  C   UNL     1      24.061 -17.613  -0.780 -0.67 -0.00    +0.000 A 
DOCKED: ATOM      5  C   UNL     1      24.965 -18.329   0.020 -0.53 -0.00    +0.000 A 
DOCKED: ATOM      6  C   UNL     1      26.311 -17.962   0.080 -0.54 -0.00    +0.000 A 
DOCKED: ATOM      7  C   UNL     1      26.791 -16.885  -0.683 -0.45 -0.00    +0.000 A 
DOCKED: ATOM      8  C   UNL     1      25.888 -16.158  -1.473 -0.46 -0.00    +0.000 A 
DOCKED: ATOM      9  C   UNL     1      24.540 -16.524  -1.534 -0.50 -0.00    +0.000 A 
DOCKED: BRANCH   4  11
DOCKED: ATOM     10  C   UNL     1      22.253 -19.325  -0.675 -0.77 -0.00    +0.000 C 
DOCKED: ATOM     11  C   UNL     1      22.644 -18.051  -0.819 -0.81 -0.00    +0.000 C 
DOCKED: BRANCH  10  13
DOCKED: ATOM     12  O   UNL     1      20.212 -19.738  -1.829 -2.37 -0.00    +0.000 OA
DOCKED: ATOM     13  C   UNL     1      20.832 -19.723  -0.731 -0.82 -0.00    +0.000 C 
DOCKED: ATOM     14  N   UNL     1      20.151 -20.093   0.470 -0.71 -0.00    +0.000 N 
DOCKED: ATOM     15  O   UNL     1      18.849 -20.460   0.435 -0.90 -0.00    +0.000 OA
DOCKED: ATOM     16  H   UNL     1      20.633 -20.082   1.329 -0.41 -0.00    +0.000 HD
DOCKED: ENDBRANCH  10  13
DOCKED: ENDBRANCH   4  11
DOCKED: ENDBRANCH   3   7
DOCKED: ENDBRANCH   1   3
DOCKED: BRANCH   1  17
DOCKED: ATOM     17  C   UNL     1      27.369 -14.478   0.623 -0.29 -0.00    +0.000 C 
DOCKED: BRANCH  17  18
DOCKED: ATOM     18  C   UNL     1      27.333 -14.044   2.094 -0.26 -0.00    +0.000 C 
DOCKED: BRANCH  18  19
DOCKED: ATOM     19  O   UNL     1      28.176 -14.849   2.873 -0.35 -0.00    +0.000 OA
DOCKED: ATOM     20  H   UNL     1      28.881 -15.214   2.315 -1.88 -0.00    +0.000 HD
DOCKED: ENDBRANCH  18  19
DOCKED: ENDBRANCH  17  18
DOCKED: ENDBRANCH   1  17
DOCKED: BRANCH   1  21
DOCKED: ATOM     21  C   UNL     1      29.759 -14.602   0.016 -0.13 -0.00    +0.000 C 
DOCKED: BRANCH  21  22
DOCKED: ATOM     22  C   UNL     1      29.436 -13.421  -0.905 -0.06 -0.00    +0.000 C 
DOCKED: BRANCH  22  23
DOCKED: ATOM     23  C   UNL     1      28.586 -13.859  -2.062 -0.09 -0.00    +0.000 A 
DOCKED: ATOM     24  C   UNL     1      27.289 -13.433  -2.339 -0.17 -0.00    +0.000 A 
DOCKED: ATOM     25  N   UNL     1      26.874 -13.924  -3.529 -0.27 -0.00    +0.000 N 
DOCKED: ATOM     26  C   UNL     1      27.901 -14.643  -4.012 -0.26 -0.00    +0.000 A 
DOCKED: ATOM     27  C   UNL     1      28.965 -14.625  -3.148 -0.12 -0.00    +0.000 A 
DOCKED: ATOM     28  C   UNL     1      30.165 -15.274  -3.447 -0.10 -0.00    +0.000 A 
DOCKED: ATOM     29  C   UNL     1      30.252 -15.959  -4.672 -0.18 -0.00    +0.000 A 
DOCKED: ATOM     30  C   UNL     1      29.156 -15.978  -5.561 -0.31 -0.00    +0.000 A 
DOCKED: ATOM     31  C   UNL     1      27.961 -15.311  -5.234 -0.36 -0.00    +0.000 A 
DOCKED: ATOM     32  H   UNL     1      25.997 -13.782  -3.953 -0.02 -0.00    +0.000 HD
DOCKED: ENDBRANCH  22  23
DOCKED: ENDBRANCH  21  22
DOCKED: ENDBRANCH   1  21
DOCKED: TORSDOF 10
DOCKED: TER
DOCKED: ENDMDL
________________________________________________________________________________


	BEGINNING GENETIC ALGORITHM DOCKING 27 of 100
Run: 27 Seed: 1464326004 377735266 [ Run 27 of 100 GA/GALS ]
Beginning LAMARCKIAN GENETIC ALGORITHM (LGA), with a maximum of 2500000 energy evaluations.

Final-Value: -17.062


	FINAL GENETIC ALGORITHM DOCKED STATE
	_______________________________________________


Detailed state:  trans 28.109 -15.933 -2.921 quatxyzw 0.766012 -0.514102 0.026388 0.385004 center 0.285 0.077 -0.044 ntor 10 -86.0185 -179.7956 42.4039 179.8908 -134.6375 46.3610 154.4086 -42.7108 -43.6595 -141.2779
State:	 28.109 -15.933  -2.921   0.830 -0.557  0.029 134.712    -86.02 -179.80   42.40  179.89 -134.64   46.36  154.41  -42.71  -43.66 -141.28

DOCKED: MODEL       27
DOCKED: USER    Run = 27
DOCKED: USER    DPF = ligand_dock.biased.dpf
DOCKED: USER  
DOCKED: USER    Estimated Free Energy of Binding    =  -12.45 kcal/mol  [=(1)+(2)+(3)-(4)]
DOCKED: USER    Estimated Inhibition Constant, Ki   =  745.78 pM (picomolar)  [Temperature = 298.15 K]
DOCKED: USER    
DOCKED: USER    (1) Final Intermolecular Energy     =  -15.43 kcal/mol
DOCKED: USER        vdW + Hbond + desolv Energy     =  -15.43 kcal/mol
DOCKED: USER        Electrostatic Energy            =   +0.00 kcal/mol
DOCKED: USER    (2) Final Total Internal Energy     =   -1.63 kcal/mol
DOCKED: USER    (3) Torsional Free Energy           =   +2.98 kcal/mol
DOCKED: USER    (4) Unbound System's Energy  [=(2)] =   -1.63 kcal/mol
DOCKED: USER    
DOCKED: USER    
DOCKED: USER    NEWDPF move ligand.pdbqt
DOCKED: USER    NEWDPF about 0.285000 0.077000 -0.044000
DOCKED: USER    NEWDPF tran0 28.108905 -15.932709 -2.920537
DOCKED: USER    NEWDPF quaternion0 0.766012 -0.514102 0.026388 0.385004
DOCKED: USER    NEWDPF axisangle0 0.829992 -0.557042 0.028592 134.711976
DOCKED: USER    NEWDPF quat0 0.829992 -0.557042 0.028592 134.711976
DOCKED: USER    NEWDPF dihe0 -86.02 -179.80 42.40 179.89 -134.64 46.36 154.41 -42.71 -43.66 -141.28 
DOCKED: USER  keepresnum = 1 
DOCKED: USER  
DOCKED: REMARK  Name = 
DOCKED: REMARK  10 active torsions:
DOCKED: REMARK  status: ('A' for Active; 'I' for Inactive)
DOCKED: REMARK    1  A    between atoms: C_2  and  C_5
DOCKED: REMARK    2  A    between atoms: C_6  and  C_7
DOCKED: REMARK    3  A    between atoms: C_10  and  C_11
DOCKED: REMARK    4  A    between atoms: C_11  and  N_12
DOCKED: REMARK    5  A    between atoms: N_12  and  C_13
DOCKED: REMARK    6  A    between atoms: N_12  and  C_16
DOCKED: REMARK    7  A    between atoms: C_13  and  C_14
DOCKED: REMARK    8  A    between atoms: C_14  and  O_15
DOCKED: REMARK    9  A    between atoms: C_16  and  C_17
DOCKED: REMARK   10  A    between atoms: C_17  and  C_18
DOCKED: REMARK                            x       y       z     vdW  Elec       q    Type
DOCKED: REMARK                         _______ _______ _______ _____ _____    ______ ____
DOCKED: USER                              x       y       z     vdW  Elec       q    Type
DOCKED: USER                           _______ _______ _______ _____ _____    ______ ____
DOCKED: ROOT
DOCKED: ATOM      1  N   UNL     1      27.697 -14.862  -2.236 -0.20 -0.00    +0.000 N 
DOCKED: ATOM      2  H   UNL     1      27.026 -14.542  -1.537 +0.00 -0.00    +0.000 HD
DOCKED: ENDROOT
DOCKED: BRANCH   1   3
DOCKED: ATOM      3  C   UNL     1      27.781 -16.326  -1.996 -0.34 -0.00    +0.000 C 
DOCKED: BRANCH   3   7
DOCKED: ATOM      4  C   UNL     1      24.079 -18.208  -0.721 -0.71 -0.00    +0.000 A 
DOCKED: ATOM      5  C   UNL     1      24.101 -17.348  -1.829 -0.49 -0.00    +0.000 A 
DOCKED: ATOM      6  C   UNL     1      25.291 -16.744  -2.241 -0.52 -0.00    +0.000 A 
DOCKED: ATOM      7  C   UNL     1      26.485 -16.966  -1.535 -0.44 -0.00    +0.000 A 
DOCKED: ATOM      8  C   UNL     1      26.470 -17.837  -0.434 -0.54 -0.00    +0.000 A 
DOCKED: ATOM      9  C   UNL     1      25.279 -18.442  -0.021 -0.49 -0.00    +0.000 A 
DOCKED: BRANCH   4  11
DOCKED: ATOM     10  C   UNL     1      21.755 -18.998  -1.153 -0.80 -0.00    +0.000 C 
DOCKED: ATOM     11  C   UNL     1      22.787 -18.815  -0.317 -0.79 -0.00    +0.000 C 
DOCKED: BRANCH  10  13
DOCKED: ATOM     12  O   UNL     1      19.519 -19.732  -1.515 -2.10 -0.00    +0.000 OA
DOCKED: ATOM     13  C   UNL     1      20.480 -19.596  -0.709 -0.87 -0.00    +0.000 C 
DOCKED: ATOM     14  N   UNL     1      20.330 -20.023   0.646 -0.69 -0.00    +0.000 N 
DOCKED: ATOM     15  O   UNL     1      19.167 -20.572   1.068 -0.78 -0.00    +0.000 OA
DOCKED: ATOM     16  H   UNL     1      21.078 -19.917   1.278 -0.51 -0.00    +0.000 HD
DOCKED: ENDBRANCH  10  13
DOCKED: ENDBRANCH   4  11
DOCKED: ENDBRANCH   3   7
DOCKED: ENDBRANCH   1   3
DOCKED: BRANCH   1  17
DOCKED: ATOM     17  C   UNL     1      27.092 -14.475  -3.530 -0.34 -0.00    +0.000 C 
DOCKED: BRANCH  17  18
DOCKED: ATOM     18  C   UNL     1      25.737 -13.780  -3.338 -0.34 -0.00    +0.000 C 
DOCKED: BRANCH  18  19
DOCKED: ATOM     19  O   UNL     1      24.751 -14.381  -4.133 -1.06 -0.00    +0.000 OA
DOCKED: ATOM     20  H   UNL     1      24.116 -13.708  -4.423 -0.45 -0.00    +0.000 HD
DOCKED: ENDBRANCH  18  19
DOCKED: ENDBRANCH  17  18
DOCKED: ENDBRANCH   1  17
DOCKED: BRANCH   1  21
DOCKED: ATOM     21  C   UNL     1      28.961 -14.143  -1.952 -0.10 -0.00    +0.000 C 
DOCKED: BRANCH  21  22
DOCKED: ATOM     22  C   UNL     1      28.695 -12.922  -1.065 -0.08 -0.00    +0.000 C 
DOCKED: BRANCH  22  23
DOCKED: ATOM     23  C   UNL     1      28.875 -13.263   0.385 -0.09 -0.00    +0.000 A 
DOCKED: ATOM     24  C   UNL     1      28.572 -14.481   0.988 -0.20 -0.00    +0.000 A 
DOCKED: ATOM     25  N   UNL     1      28.985 -14.487   2.276 -0.21 -0.00    +0.000 N 
DOCKED: ATOM     26  C   UNL     1      29.559 -13.291   2.487 -0.14 -0.00    +0.000 A 
DOCKED: ATOM     27  C   UNL     1      29.514 -12.516   1.357 -0.06 -0.00    +0.000 A 
DOCKED: ATOM     28  C   UNL     1      30.080 -11.240   1.318 -0.02 -0.00    +0.000 A 
DOCKED: ATOM     29  C   UNL     1      30.700 -10.762   2.487 -0.02 -0.00    +0.000 A 
DOCKED: ATOM     30  C   UNL     1      30.744 -11.559   3.651 -0.04 -0.00    +0.000 A 
DOCKED: ATOM     31  C   UNL     1      30.169 -12.843   3.658 -0.12 -0.00    +0.000 A 
DOCKED: ATOM     32  H   UNL     1      28.884 -15.220   2.926 -1.88 -0.00    +0.000 HD
DOCKED: ENDBRANCH  22  23
DOCKED: ENDBRANCH  21  22
DOCKED: ENDBRANCH   1  21
DOCKED: TORSDOF 10
DOCKED: TER
DOCKED: ENDMDL
________________________________________________________________________________


	BEGINNING GENETIC ALGORITHM DOCKING 28 of 100
Run: 28 Seed: 2121542073 910641448 [ Run 28 of 100 GA/GALS ]
Beginning LAMARCKIAN GENETIC ALGORITHM (LGA), with a maximum of 2500000 energy evaluations.

Final-Value: -17.370


	FINAL GENETIC ALGORITHM DOCKED STATE
	_______________________________________________


Detailed state:  trans 26.987 -15.720 -1.798 quatxyzw 0.394756 -0.883939 0.110616 -0.224909 center 0.285 0.077 -0.044 ntor 10 167.8526 -151.8589 -174.2224 -103.2912 -155.6832 -165.5401 -64.2805 -43.7360 179.9516 -6.7759
State:	 26.987 -15.720  -1.798   0.405 -0.907  0.114 -154.005    167.85 -151.86 -174.22 -103.29 -155.68 -165.54  -64.28  -43.74  179.95   -6.78

DOCKED: MODEL       28
DOCKED: USER    Run = 28
DOCKED: USER    DPF = ligand_dock.biased.dpf
DOCKED: USER  
DOCKED: USER    Estimated Free Energy of Binding    =  -12.50 kcal/mol  [=(1)+(2)+(3)-(4)]
DOCKED: USER    Estimated Inhibition Constant, Ki   =  683.85 pM (picomolar)  [Temperature = 298.15 K]
DOCKED: USER    
DOCKED: USER    (1) Final Intermolecular Energy     =  -15.49 kcal/mol
DOCKED: USER        vdW + Hbond + desolv Energy     =  -15.49 kcal/mol
DOCKED: USER        Electrostatic Energy            =   +0.00 kcal/mol
DOCKED: USER    (2) Final Total Internal Energy     =   -1.88 kcal/mol
DOCKED: USER    (3) Torsional Free Energy           =   +2.98 kcal/mol
DOCKED: USER    (4) Unbound System's Energy  [=(2)] =   -1.88 kcal/mol
DOCKED: USER    
DOCKED: USER    
DOCKED: USER    NEWDPF move ligand.pdbqt
DOCKED: USER    NEWDPF about 0.285000 0.077000 -0.044000
DOCKED: USER    NEWDPF tran0 26.987180 -15.720092 -1.797731
DOCKED: USER    NEWDPF quaternion0 0.394756 -0.883939 0.110616 -0.224909
DOCKED: USER    NEWDPF axisangle0 0.405135 -0.907181 0.113525 -154.004909
DOCKED: USER    NEWDPF quat0 0.405135 -0.907181 0.113525 -154.004909
DOCKED: USER    NEWDPF dihe0 167.85 -151.86 -174.22 -103.29 -155.68 -165.54 -64.28 -43.74 179.95 -6.78 
DOCKED: USER  keepresnum = 1 
DOCKED: USER  
DOCKED: REMARK  Name = 
DOCKED: REMARK  10 active torsions:
DOCKED: REMARK  status: ('A' for Active; 'I' for Inactive)
DOCKED: REMARK    1  A    between atoms: C_2  and  C_5
DOCKED: REMARK    2  A    between atoms: C_6  and  C_7
DOCKED: REMARK    3  A    between atoms: C_10  and  C_11
DOCKED: REMARK    4  A    between atoms: C_11  and  N_12
DOCKED: REMARK    5  A    between atoms: N_12  and  C_13
DOCKED: REMARK    6  A    between atoms: N_12  and  C_16
DOCKED: REMARK    7  A    between atoms: C_13  and  C_14
DOCKED: REMARK    8  A    between atoms: C_14  and  O_15
DOCKED: REMARK    9  A    between atoms: C_16  and  C_17
DOCKED: REMARK   10  A    between atoms: C_17  and  C_18
DOCKED: REMARK                            x       y       z     vdW  Elec       q    Type
DOCKED: REMARK                         _______ _______ _______ _____ _____    ______ ____
DOCKED: USER                              x       y       z     vdW  Elec       q    Type
DOCKED: USER                           _______ _______ _______ _____ _____    ______ ____
DOCKED: ROOT
DOCKED: ATOM      1  N   UNL     1      27.989 -15.050  -2.373 -0.19 -0.00    +0.000 N 
DOCKED: ATOM      2  H   UNL     1      28.638 -14.273  -2.245 +0.01 -0.00    +0.000 HD
DOCKED: ENDROOT
DOCKED: BRANCH   1   3
DOCKED: ATOM      3  C   UNL     1      27.586 -15.401  -0.987 -0.30 -0.00    +0.000 C 
DOCKED: BRANCH   3   7
DOCKED: ATOM      4  C   UNL     1      24.194 -18.106  -0.788 -0.70 -0.00    +0.000 A 
DOCKED: ATOM      5  C   UNL     1      24.000 -16.719  -0.856 -0.49 -0.00    +0.000 A 
DOCKED: ATOM      6  C   UNL     1      25.090 -15.848  -0.923 -0.31 -0.00    +0.000 A 
DOCKED: ATOM      7  C   UNL     1      26.403 -16.346  -0.893 -0.43 -0.00    +0.000 A 
DOCKED: ATOM      8  C   UNL     1      26.600 -17.735  -0.839 -0.48 -0.00    +0.000 A 
DOCKED: ATOM      9  C   UNL     1      25.510 -18.607  -0.773 -0.43 -0.00    +0.000 A 
DOCKED: BRANCH   4  11
DOCKED: ATOM     10  C   UNL     1      21.739 -18.542  -0.762 -0.85 -0.00    +0.000 C 
DOCKED: ATOM     11  C   UNL     1      23.002 -18.988  -0.706 -0.82 -0.00    +0.000 C 
DOCKED: BRANCH  10  13
DOCKED: ATOM     12  O   UNL     1      19.911 -19.750  -1.693 -2.34 -0.00    +0.000 OA
DOCKED: ATOM     13  C   UNL     1      20.580 -19.450  -0.666 -0.89 -0.00    +0.000 C 
DOCKED: ATOM     14  N   UNL     1      20.208 -19.995   0.602 -0.71 -0.00    +0.000 N 
DOCKED: ATOM     15  O   UNL     1      19.147 -20.829   0.706 -0.84 -0.00    +0.000 OA
DOCKED: ATOM     16  H   UNL     1      20.728 -19.763   1.405 -0.36 -0.00    +0.000 HD
DOCKED: ENDBRANCH  10  13
DOCKED: ENDBRANCH   4  11
DOCKED: ENDBRANCH   3   7
DOCKED: ENDBRANCH   1   3
DOCKED: BRANCH   1  17
DOCKED: ATOM     17  C   UNL     1      26.909 -14.490  -3.216 -0.35 -0.00    +0.000 C 
DOCKED: BRANCH  17  18
DOCKED: ATOM     18  C   UNL     1      26.388 -15.519  -4.228 -0.52 -0.00    +0.000 C 
DOCKED: BRANCH  18  19
DOCKED: ATOM     19  O   UNL     1      26.938 -15.293  -5.497 -1.13 +0.00    +0.000 OA
DOCKED: ATOM     20  H   UNL     1      27.594 -15.981  -5.692 -0.05 +0.00    +0.000 HD
DOCKED: ENDBRANCH  18  19
DOCKED: ENDBRANCH  17  18
DOCKED: ENDBRANCH   1  17
DOCKED: BRANCH   1  21
DOCKED: ATOM     21  C   UNL     1      28.757 -16.119  -3.055 -0.26 -0.00    +0.000 C 
DOCKED: BRANCH  21  22
DOCKED: ATOM     22  C   UNL     1      30.013 -15.540  -3.713 -0.15 -0.00    +0.000 C 
DOCKED: BRANCH  22  23
DOCKED: ATOM     23  C   UNL     1      30.061 -15.886  -5.173 -0.23 -0.00    +0.000 A 
DOCKED: ATOM     24  C   UNL     1      29.961 -14.991  -6.235 -0.26 -0.00    +0.000 A 
DOCKED: ATOM     25  N   UNL     1      30.181 -15.624  -7.410 -0.30 -0.00    +0.000 N 
DOCKED: ATOM     26  C   UNL     1      30.434 -16.907  -7.098 -0.27 -0.00    +0.000 A 
DOCKED: ATOM     27  C   UNL     1      30.374 -17.106  -5.743 -0.29 -0.00    +0.000 A 
DOCKED: ATOM     28  C   UNL     1      30.635 -18.353  -5.171 -0.28 -0.00    +0.000 A 
DOCKED: ATOM     29  C   UNL     1      30.962 -19.414  -6.034 -0.32 -0.00    +0.000 A 
DOCKED: ATOM     30  C   UNL     1      31.022 -19.209  -7.430 -0.34 -0.00    +0.000 A 
DOCKED: ATOM     31  C   UNL     1      30.757 -17.940  -7.977 -0.27 -0.00    +0.000 A 
DOCKED: ATOM     32  H   UNL     1      30.159 -15.225  -8.309 -0.37 -0.00    +0.000 HD
DOCKED: ENDBRANCH  22  23
DOCKED: ENDBRANCH  21  22
DOCKED: ENDBRANCH   1  21
DOCKED: TORSDOF 10
DOCKED: TER
DOCKED: ENDMDL
________________________________________________________________________________


	BEGINNING GENETIC ALGORITHM DOCKING 29 of 100
Run: 29 Seed: 2024913448 1263221817 [ Run 29 of 100 GA/GALS ]
Beginning LAMARCKIAN GENETIC ALGORITHM (LGA), with a maximum of 2500000 energy evaluations.

Final-Value: -16.023


	FINAL GENETIC ALGORITHM DOCKED STATE
	_______________________________________________


Detailed state:  trans 28.621 -16.181 -2.076 quatxyzw -0.659934 0.600968 -0.033802 -0.449646 center 0.285 0.077 -0.044 ntor 10 -178.6778 -72.1129 60.0368 84.9316 -179.9105 167.8505 164.7519 -52.7253 109.4492 -130.9171
State:	 28.621 -16.181  -2.076  -0.739  0.673 -0.038 -126.558   -178.68  -72.11   60.04   84.93 -179.91  167.85  164.75  -52.73  109.45 -130.92

DOCKED: MODEL       29
DOCKED: USER    Run = 29
DOCKED: USER    DPF = ligand_dock.biased.dpf
DOCKED: USER  
DOCKED: USER    Estimated Free Energy of Binding    =  -10.62 kcal/mol  [=(1)+(2)+(3)-(4)]
DOCKED: USER    Estimated Inhibition Constant, Ki   =   16.47 nM (nanomolar)  [Temperature = 298.15 K]
DOCKED: USER    
DOCKED: USER    (1) Final Intermolecular Energy     =  -13.60 kcal/mol
DOCKED: USER        vdW + Hbond + desolv Energy     =  -13.60 kcal/mol
DOCKED: USER        Electrostatic Energy            =   +0.00 kcal/mol
DOCKED: USER    (2) Final Total Internal Energy     =   -2.42 kcal/mol
DOCKED: USER    (3) Torsional Free Energy           =   +2.98 kcal/mol
DOCKED: USER    (4) Unbound System's Energy  [=(2)] =   -2.42 kcal/mol
DOCKED: USER    
DOCKED: USER    
DOCKED: USER    NEWDPF move ligand.pdbqt
DOCKED: USER    NEWDPF about 0.285000 0.077000 -0.044000
DOCKED: USER    NEWDPF tran0 28.621028 -16.180869 -2.075873
DOCKED: USER    NEWDPF quaternion0 -0.659934 0.600968 -0.033802 -0.449646
DOCKED: USER    NEWDPF axisangle0 -0.738837 0.672821 -0.037843 -126.558046
DOCKED: USER    NEWDPF quat0 -0.738837 0.672821 -0.037843 -126.558046
DOCKED: USER    NEWDPF dihe0 -178.68 -72.11 60.04 84.93 -179.91 167.85 164.75 -52.73 109.45 -130.92 
DOCKED: USER  keepresnum = 1 
DOCKED: USER  
DOCKED: REMARK  Name = 
DOCKED: REMARK  10 active torsions:
DOCKED: REMARK  status: ('A' for Active; 'I' for Inactive)
DOCKED: REMARK    1  A    between atoms: C_2  and  C_5
DOCKED: REMARK    2  A    between atoms: C_6  and  C_7
DOCKED: REMARK    3  A    between atoms: C_10  and  C_11
DOCKED: REMARK    4  A    between atoms: C_11  and  N_12
DOCKED: REMARK    5  A    between atoms: N_12  and  C_13
DOCKED: REMARK    6  A    between atoms: N_12  and  C_16
DOCKED: REMARK    7  A    between atoms: C_13  and  C_14
DOCKED: REMARK    8  A    between atoms: C_14  and  O_15
DOCKED: REMARK    9  A    between atoms: C_16  and  C_17
DOCKED: REMARK   10  A    between atoms: C_17  and  C_18
DOCKED: REMARK                            x       y       z     vdW  Elec       q    Type
DOCKED: REMARK                         _______ _______ _______ _____ _____    ______ ____
DOCKED: USER                              x       y       z     vdW  Elec       q    Type
DOCKED: USER                           _______ _______ _______ _____ _____    ______ ____
DOCKED: ROOT
DOCKED: ATOM      1  N   UNL     1      28.453 -15.178  -1.209 -0.17 -0.00    +0.000 N 
DOCKED: ATOM      2  H   UNL     1      27.852 -14.831  -0.462 +0.00 -0.00    +0.000 HD
DOCKED: ENDROOT
DOCKED: BRANCH   1   3
DOCKED: ATOM      3  C   UNL     1      28.173 -16.637  -1.234 -0.35 -0.00    +0.000 C 
DOCKED: BRANCH   3   7
DOCKED: ATOM      4  C   UNL     1      23.967 -17.661  -0.876 -0.68 -0.00    +0.000 A 
DOCKED: ATOM      5  C   UNL     1      24.962 -18.590  -0.537 -0.57 -0.00    +0.000 A 
DOCKED: ATOM      6  C   UNL     1      26.315 -18.261  -0.649 -0.51 -0.00    +0.000 A 
DOCKED: ATOM      7  C   UNL     1      26.704 -17.001  -1.132 -0.45 -0.00    +0.000 A 
DOCKED: ATOM      8  C   UNL     1      25.711 -16.064  -1.459 -0.47 -0.00    +0.000 A 
DOCKED: ATOM      9  C   UNL     1      24.357 -16.392  -1.347 -0.41 -0.00    +0.000 A 
DOCKED: BRANCH   4  11
DOCKED: ATOM     10  C   UNL     1      22.130 -19.339  -0.724 -0.77 -0.00    +0.000 C 
DOCKED: ATOM     11  C   UNL     1      22.545 -18.064  -0.751 -0.82 -0.00    +0.000 C 
DOCKED: BRANCH  10  13
DOCKED: ATOM     12  O   UNL     1      19.965 -19.736  -1.631 -2.32 -0.00    +0.000 OA
DOCKED: ATOM     13  C   UNL     1      20.703 -19.700  -0.609 -0.85 -0.00    +0.000 C 
DOCKED: ATOM     14  N   UNL     1      20.151 -20.011   0.672 -0.71 -0.00    +0.000 N 
DOCKED: ATOM     15  O   UNL     1      18.845 -20.343   0.794 -0.81 -0.00    +0.000 OA
DOCKED: ATOM     16  H   UNL     1      20.725 -19.984   1.472 -0.44 -0.00    +0.000 HD
DOCKED: ENDBRANCH  10  13
DOCKED: ENDBRANCH   4  11
DOCKED: ENDBRANCH   3   7
DOCKED: ENDBRANCH   1   3
DOCKED: BRANCH   1  17
DOCKED: ATOM     17  C   UNL     1      28.008 -14.437  -2.411 -0.19 -0.00    +0.000 C 
DOCKED: BRANCH  17  18
DOCKED: ATOM     18  C   UNL     1      27.184 -13.196  -2.040 -0.19 -0.00    +0.000 C 
DOCKED: BRANCH  18  19
DOCKED: ATOM     19  O   UNL     1      26.662 -13.314  -0.744 -0.27 -0.00    +0.000 OA
DOCKED: ATOM     20  H   UNL     1      26.986 -12.581  -0.198 -0.00 -0.00    +0.000 HD
DOCKED: ENDBRANCH  18  19
DOCKED: ENDBRANCH  17  18
DOCKED: ENDBRANCH   1  17
DOCKED: BRANCH   1  21
DOCKED: ATOM     21  C   UNL     1      29.841 -14.848  -0.809 -0.11 -0.00    +0.000 C 
DOCKED: BRANCH  21  22
DOCKED: ATOM     22  C   UNL     1      29.858 -13.609   0.092 -0.08 -0.00    +0.000 C 
DOCKED: BRANCH  22  23
DOCKED: ATOM     23  C   UNL     1      30.069 -13.993   1.528 -0.11 -0.00    +0.000 A 
DOCKED: ATOM     24  C   UNL     1      31.296 -14.177   2.159 -0.10 -0.00    +0.000 A 
DOCKED: ATOM     25  N   UNL     1      31.119 -14.383   3.484 -0.22 -0.00    +0.000 N 
DOCKED: ATOM     26  C   UNL     1      29.794 -14.317   3.697 -0.28 -0.00    +0.000 A 
DOCKED: ATOM     27  C   UNL     1      29.119 -14.077   2.529 -0.21 -0.00    +0.000 A 
DOCKED: ATOM     28  C   UNL     1      27.731 -13.931   2.499 -0.30 -0.00    +0.000 A 
DOCKED: ATOM     29  C   UNL     1      27.034 -14.044   3.716 -0.32 -0.00    +0.000 A 
DOCKED: ATOM     30  C   UNL     1      27.730 -14.292   4.919 -0.52 -0.00    +0.000 A 
DOCKED: ATOM     31  C   UNL     1      29.130 -14.431   4.917 -0.38 -0.00    +0.000 A 
DOCKED: ATOM     32  H   UNL     1      31.821 -14.549   4.155 -0.02 -0.00    +0.000 HD
DOCKED: ENDBRANCH  22  23
DOCKED: ENDBRANCH  21  22
DOCKED: ENDBRANCH   1  21
DOCKED: TORSDOF 10
DOCKED: TER
DOCKED: ENDMDL
________________________________________________________________________________


	BEGINNING GENETIC ALGORITHM DOCKING 30 of 100
Run: 30 Seed: 1918353560 225794015 [ Run 30 of 100 GA/GALS ]
Beginning LAMARCKIAN GENETIC ALGORITHM (LGA), with a maximum of 2500000 energy evaluations.

Final-Value: -16.568


	FINAL GENETIC ALGORITHM DOCKED STATE
	_______________________________________________


Detailed state:  trans 27.104 -15.775 -1.822 quatxyzw -0.256571 0.939529 -0.130599 0.185475 center 0.285 0.077 -0.044 ntor 10 -11.3809 178.9061 -169.0284 -49.8435 162.2673 -179.7144 -75.1960 -52.7018 177.4208 6.0678
State:	 27.104 -15.775  -1.822  -0.261  0.956 -0.133 158.622    -11.38  178.91 -169.03  -49.84  162.27 -179.71  -75.20  -52.70  177.42    6.07

DOCKED: MODEL       30
DOCKED: USER    Run = 30
DOCKED: USER    DPF = ligand_dock.biased.dpf
DOCKED: USER  
DOCKED: USER    Estimated Free Energy of Binding    =  -11.87 kcal/mol  [=(1)+(2)+(3)-(4)]
DOCKED: USER    Estimated Inhibition Constant, Ki   =    1.99 nM (nanomolar)  [Temperature = 298.15 K]
DOCKED: USER    
DOCKED: USER    (1) Final Intermolecular Energy     =  -14.85 kcal/mol
DOCKED: USER        vdW + Hbond + desolv Energy     =  -14.85 kcal/mol
DOCKED: USER        Electrostatic Energy            =   +0.00 kcal/mol
DOCKED: USER    (2) Final Total Internal Energy     =   -1.71 kcal/mol
DOCKED: USER    (3) Torsional Free Energy           =   +2.98 kcal/mol
DOCKED: USER    (4) Unbound System's Energy  [=(2)] =   -1.71 kcal/mol
DOCKED: USER    
DOCKED: USER    
DOCKED: USER    NEWDPF move ligand.pdbqt
DOCKED: USER    NEWDPF about 0.285000 0.077000 -0.044000
DOCKED: USER    NEWDPF tran0 27.104227 -15.774505 -1.822384
DOCKED: USER    NEWDPF quaternion0 -0.256571 0.939529 -0.130599 0.185475
DOCKED: USER    NEWDPF axisangle0 -0.261101 0.956118 -0.132905 158.622388
DOCKED: USER    NEWDPF quat0 -0.261101 0.956118 -0.132905 158.622388
DOCKED: USER    NEWDPF dihe0 -11.38 178.91 -169.03 -49.84 162.27 -179.71 -75.20 -52.70 177.42 6.07 
DOCKED: USER  keepresnum = 1 
DOCKED: USER  
DOCKED: REMARK  Name = 
DOCKED: REMARK  10 active torsions:
DOCKED: REMARK  status: ('A' for Active; 'I' for Inactive)
DOCKED: REMARK    1  A    between atoms: C_2  and  C_5
DOCKED: REMARK    2  A    between atoms: C_6  and  C_7
DOCKED: REMARK    3  A    between atoms: C_10  and  C_11
DOCKED: REMARK    4  A    between atoms: C_11  and  N_12
DOCKED: REMARK    5  A    between atoms: N_12  and  C_13
DOCKED: REMARK    6  A    between atoms: N_12  and  C_16
DOCKED: REMARK    7  A    between atoms: C_13  and  C_14
DOCKED: REMARK    8  A    between atoms: C_14  and  O_15
DOCKED: REMARK    9  A    between atoms: C_16  and  C_17
DOCKED: REMARK   10  A    between atoms: C_17  and  C_18
DOCKED: REMARK                            x       y       z     vdW  Elec       q    Type
DOCKED: REMARK                         _______ _______ _______ _____ _____    ______ ____
DOCKED: USER                              x       y       z     vdW  Elec       q    Type
DOCKED: USER                           _______ _______ _______ _____ _____    ______ ____
DOCKED: ROOT
DOCKED: ATOM      1  N   UNL     1      28.318 -15.435  -2.267 -0.19 -0.00    +0.000 N 
DOCKED: ATOM      2  H   UNL     1      29.130 -14.850  -2.072 +0.01 -0.00    +0.000 HD
DOCKED: ENDROOT
DOCKED: BRANCH   1   3
DOCKED: ATOM      3  C   UNL     1      27.654 -15.566  -0.944 -0.31 -0.00    +0.000 C 
DOCKED: BRANCH   3   7
DOCKED: ATOM      4  C   UNL     1      24.079 -18.031  -1.018 -0.70 -0.00    +0.000 A 
DOCKED: ATOM      5  C   UNL     1      24.001 -16.649  -1.247 -0.43 -0.00    +0.000 A 
DOCKED: ATOM      6  C   UNL     1      25.151 -15.856  -1.226 -0.39 -0.00    +0.000 A 
DOCKED: ATOM      7  C   UNL     1      26.404 -16.425  -0.946 -0.44 -0.00    +0.000 A 
DOCKED: ATOM      8  C   UNL     1      26.488 -17.810  -0.730 -0.51 -0.00    +0.000 A 
DOCKED: ATOM      9  C   UNL     1      25.338 -18.605  -0.751 -0.49 -0.00    +0.000 A 
DOCKED: BRANCH   4  11
DOCKED: ATOM     10  C   UNL     1      21.660 -18.397  -0.537 -0.83 -0.00    +0.000 C 
DOCKED: ATOM     11  C   UNL     1      22.827 -18.827  -1.039 -0.82 -0.00    +0.000 C 
DOCKED: BRANCH  10  13
DOCKED: ATOM     12  O   UNL     1      20.049 -19.756  -1.642 -2.31 -0.00    +0.000 OA
DOCKED: ATOM     13  C   UNL     1      20.438 -19.223  -0.568 -0.88 -0.00    +0.000 C 
DOCKED: ATOM     14  N   UNL     1      19.686 -19.422   0.632 -0.67 -0.00    +0.000 N 
DOCKED: ATOM     15  O   UNL     1      18.562 -20.177   0.620 -0.83 -0.00    +0.000 OA
DOCKED: ATOM     16  H   UNL     1      19.987 -19.007   1.472 -0.29 -0.00    +0.000 HD
DOCKED: ENDBRANCH  10  13
DOCKED: ENDBRANCH   4  11
DOCKED: ENDBRANCH   3   7
DOCKED: ENDBRANCH   1   3
DOCKED: BRANCH   1  17
DOCKED: ATOM     17  C   UNL     1      27.550 -14.673  -3.278 -0.28 -0.00    +0.000 C 
DOCKED: BRANCH  17  18
DOCKED: ATOM     18  C   UNL     1      26.804 -15.604  -4.244 -0.44 -0.00    +0.000 C 
DOCKED: BRANCH  18  19
DOCKED: ATOM     19  O   UNL     1      27.056 -15.247  -5.576 -1.14 +0.00    +0.000 OA
DOCKED: ATOM     20  H   UNL     1      26.594 -14.419  -5.781 -0.03 -0.00    +0.000 HD
DOCKED: ENDBRANCH  18  19
DOCKED: ENDBRANCH  17  18
DOCKED: ENDBRANCH   1  17
DOCKED: BRANCH   1  21
DOCKED: ATOM     21  C   UNL     1      28.849 -16.715  -2.792 -0.26 -0.00    +0.000 C 
DOCKED: BRANCH  21  22
DOCKED: ATOM     22  C   UNL     1      30.201 -16.492  -3.479 -0.19 -0.00    +0.000 C 
DOCKED: BRANCH  22  23
DOCKED: ATOM     23  C   UNL     1      30.274 -17.245  -4.775 -0.25 -0.00    +0.000 A 
DOCKED: ATOM     24  C   UNL     1      30.066 -16.717  -6.047 -0.31 -0.00    +0.000 A 
DOCKED: ATOM     25  N   UNL     1      30.344 -17.642  -6.994 -0.34 -0.00    +0.000 N 
DOCKED: ATOM     26  C   UNL     1      30.739 -18.743  -6.333 -0.34 -0.00    +0.000 A 
DOCKED: ATOM     27  C   UNL     1      30.713 -18.540  -4.978 -0.27 -0.00    +0.000 A 
DOCKED: ATOM     28  C   UNL     1      31.115 -19.530  -4.079 -0.16 -0.00    +0.000 A 
DOCKED: ATOM     29  C   UNL     1      31.548 -20.759  -4.608 -0.19 -0.00    +0.000 A 
DOCKED: ATOM     30  C   UNL     1      31.573 -20.968  -6.004 -0.23 -0.00    +0.000 A 
DOCKED: ATOM     31  C   UNL     1      31.166 -19.950  -6.885 -0.31 -0.00    +0.000 A 
DOCKED: ATOM     32  H   UNL     1      30.270 -17.529  -7.969 -0.04 -0.00    +0.000 HD
DOCKED: ENDBRANCH  22  23
DOCKED: ENDBRANCH  21  22
DOCKED: ENDBRANCH   1  21
DOCKED: TORSDOF 10
DOCKED: TER
DOCKED: ENDMDL
________________________________________________________________________________


	BEGINNING GENETIC ALGORITHM DOCKING 31 of 100
Run: 31 Seed: 1712508495 986601460 [ Run 31 of 100 GA/GALS ]
Beginning LAMARCKIAN GENETIC ALGORITHM (LGA), with a maximum of 2500000 energy evaluations.

Final-Value: -16.622


	FINAL GENETIC ALGORITHM DOCKED STATE
	_______________________________________________


Detailed state:  trans 29.819 -16.631 -1.204 quatxyzw -0.743661 0.383016 -0.404481 -0.369679 center 0.285 0.077 -0.044 ntor 10 133.1361 -51.6599 52.7144 -64.8550 -121.2700 -27.1686 132.5875 -30.7330 105.2961 -145.6151
State:	 29.819 -16.631  -1.204  -0.800  0.412 -0.435 -136.608    133.14  -51.66   52.71  -64.86 -121.27  -27.17  132.59  -30.73  105.30 -145.62

DOCKED: MODEL       31
DOCKED: USER    Run = 31
DOCKED: USER    DPF = ligand_dock.biased.dpf
DOCKED: USER  
DOCKED: USER    Estimated Free Energy of Binding    =  -10.67 kcal/mol  [=(1)+(2)+(3)-(4)]
DOCKED: USER    Estimated Inhibition Constant, Ki   =   15.20 nM (nanomolar)  [Temperature = 298.15 K]
DOCKED: USER    
DOCKED: USER    (1) Final Intermolecular Energy     =  -13.65 kcal/mol
DOCKED: USER        vdW + Hbond + desolv Energy     =  -13.65 kcal/mol
DOCKED: USER        Electrostatic Energy            =   +0.00 kcal/mol
DOCKED: USER    (2) Final Total Internal Energy     =   -2.97 kcal/mol
DOCKED: USER    (3) Torsional Free Energy           =   +2.98 kcal/mol
DOCKED: USER    (4) Unbound System's Energy  [=(2)] =   -2.97 kcal/mol
DOCKED: USER    
DOCKED: USER    
DOCKED: USER    NEWDPF move ligand.pdbqt
DOCKED: USER    NEWDPF about 0.285000 0.077000 -0.044000
DOCKED: USER    NEWDPF tran0 29.818758 -16.631147 -1.204306
DOCKED: USER    NEWDPF quaternion0 -0.743661 0.383016 -0.404481 -0.369679
DOCKED: USER    NEWDPF axisangle0 -0.800359 0.412217 -0.435319 -136.608323
DOCKED: USER    NEWDPF quat0 -0.800359 0.412217 -0.435319 -136.608323
DOCKED: USER    NEWDPF dihe0 133.14 -51.66 52.71 -64.86 -121.27 -27.17 132.59 -30.73 105.30 -145.62 
DOCKED: USER  keepresnum = 1 
DOCKED: USER  
DOCKED: REMARK  Name = 
DOCKED: REMARK  10 active torsions:
DOCKED: REMARK  status: ('A' for Active; 'I' for Inactive)
DOCKED: REMARK    1  A    between atoms: C_2  and  C_5
DOCKED: REMARK    2  A    between atoms: C_6  and  C_7
DOCKED: REMARK    3  A    between atoms: C_10  and  C_11
DOCKED: REMARK    4  A    between atoms: C_11  and  N_12
DOCKED: REMARK    5  A    between atoms: N_12  and  C_13
DOCKED: REMARK    6  A    between atoms: N_12  and  C_16
DOCKED: REMARK    7  A    between atoms: C_13  and  C_14
DOCKED: REMARK    8  A    between atoms: C_14  and  O_15
DOCKED: REMARK    9  A    between atoms: C_16  and  C_17
DOCKED: REMARK   10  A    between atoms: C_17  and  C_18
DOCKED: REMARK                            x       y       z     vdW  Elec       q    Type
DOCKED: REMARK                         _______ _______ _______ _____ _____    ______ ____
DOCKED: USER                              x       y       z     vdW  Elec       q    Type
DOCKED: USER                           _______ _______ _______ _____ _____    ______ ____
DOCKED: ROOT
DOCKED: ATOM      1  N   UNL     1      29.353 -15.387  -1.343 -0.12 -0.00    +0.000 N 
DOCKED: ATOM      2  H   UNL     1      28.500 -14.829  -1.388 +0.01 -0.00    +0.000 HD
DOCKED: ENDROOT
DOCKED: BRANCH   1   3
DOCKED: ATOM      3  C   UNL     1      28.927 -16.623  -0.637 -0.27 -0.00    +0.000 C 
DOCKED: BRANCH   3   7
DOCKED: ATOM      4  C   UNL     1      24.742 -17.651  -1.185 -0.63 -0.00    +0.000 A 
DOCKED: ATOM      5  C   UNL     1      25.481 -18.198  -0.125 -0.60 -0.00    +0.000 A 
DOCKED: ATOM      6  C   UNL     1      26.826 -17.866   0.053 -0.42 -0.00    +0.000 A 
DOCKED: ATOM      7  C   UNL     1      27.472 -16.999  -0.844 -0.40 -0.00    +0.000 A 
DOCKED: ATOM      8  C   UNL     1      26.732 -16.439  -1.897 -0.39 -0.00    +0.000 A 
DOCKED: ATOM      9  C   UNL     1      25.385 -16.770  -2.077 -0.52 -0.00    +0.000 A 
DOCKED: BRANCH   4  11
DOCKED: ATOM     10  C   UNL     1      22.484 -18.239  -0.308 -0.83 -0.00    +0.000 C 
DOCKED: ATOM     11  C   UNL     1      23.320 -18.046  -1.338 -0.75 -0.00    +0.000 C 
DOCKED: BRANCH  10  13
DOCKED: ATOM     12  O   UNL     1      20.257 -17.864  -1.059 -2.17 -0.00    +0.000 OA
DOCKED: ATOM     13  C   UNL     1      21.078 -18.642  -0.501 -0.79 -0.00    +0.000 C 
DOCKED: ATOM     14  N   UNL     1      20.639 -19.926  -0.050 -0.73 -0.00    +0.000 N 
DOCKED: ATOM     15  O   UNL     1      19.352 -20.309  -0.220 -1.22 -0.00    +0.000 OA
DOCKED: ATOM     16  H   UNL     1      21.277 -20.535   0.386 -0.54 -0.00    +0.000 HD
DOCKED: ENDBRANCH  10  13
DOCKED: ENDBRANCH   4  11
DOCKED: ENDBRANCH   3   7
DOCKED: ENDBRANCH   1   3
DOCKED: BRANCH   1  17
DOCKED: ATOM     17  C   UNL     1      29.741 -15.578  -2.759 -0.15 -0.00    +0.000 C 
DOCKED: BRANCH  17  18
DOCKED: ATOM     18  C   UNL     1      28.903 -14.702  -3.700 -0.18 -0.00    +0.000 C 
DOCKED: BRANCH  18  19
DOCKED: ATOM     19  O   UNL     1      27.972 -13.942  -2.978 -0.17 -0.00    +0.000 OA
DOCKED: ATOM     20  H   UNL     1      28.434 -13.236  -2.499 +0.01 -0.00    +0.000 HD
DOCKED: ENDBRANCH  18  19
DOCKED: ENDBRANCH  17  18
DOCKED: ENDBRANCH   1  17
DOCKED: BRANCH   1  21
DOCKED: ATOM     21  C   UNL     1      30.333 -14.578  -0.581 -0.08 -0.00    +0.000 C 
DOCKED: BRANCH  21  22
DOCKED: ATOM     22  C   UNL     1      29.762 -13.188  -0.280 -0.05 -0.00    +0.000 C 
DOCKED: BRANCH  22  23
DOCKED: ATOM     23  C   UNL     1      28.678 -13.266   0.755 -0.12 -0.00    +0.000 A 
DOCKED: ATOM     24  C   UNL     1      27.314 -13.094   0.533 -0.22 -0.00    +0.000 A 
DOCKED: ATOM     25  N   UNL     1      26.614 -13.367   1.658 -0.33 -0.00    +0.000 N 
DOCKED: ATOM     26  C   UNL     1      27.522 -13.723   2.582 -0.31 -0.00    +0.000 A 
DOCKED: ATOM     27  C   UNL     1      28.792 -13.678   2.069 -0.19 -0.00    +0.000 A 
DOCKED: ATOM     28  C   UNL     1      29.905 -14.040   2.831 -0.19 -0.00    +0.000 A 
DOCKED: ATOM     29  C   UNL     1      29.686 -14.453   4.157 -0.34 -0.00    +0.000 A 
DOCKED: ATOM     30  C   UNL     1      28.377 -14.498   4.686 -0.51 -0.00    +0.000 A 
DOCKED: ATOM     31  C   UNL     1      27.275 -14.131   3.892 -0.43 -0.00    +0.000 A 
DOCKED: ATOM     32  H   UNL     1      25.638 -13.314   1.774 -0.03 -0.00    +0.000 HD
DOCKED: ENDBRANCH  22  23
DOCKED: ENDBRANCH  21  22
DOCKED: ENDBRANCH   1  21
DOCKED: TORSDOF 10
DOCKED: TER
DOCKED: ENDMDL
________________________________________________________________________________


	BEGINNING GENETIC ALGORITHM DOCKING 32 of 100
Run: 32 Seed: 98583598 735126983 [ Run 32 of 100 GA/GALS ]
Beginning LAMARCKIAN GENETIC ALGORITHM (LGA), with a maximum of 2500000 energy evaluations.

Final-Value: -16.306


	FINAL GENETIC ALGORITHM DOCKED STATE
	_______________________________________________


Detailed state:  trans 27.410 -15.731 -0.882 quatxyzw 0.242694 -0.201592 -0.892171 -0.323252 center 0.285 0.077 -0.044 ntor 10 123.6371 84.5629 50.1156 -94.2249 -27.7686 32.5126 163.3310 -1.8226 -168.6934 -0.4889
State:	 27.410 -15.731  -0.882   0.256 -0.213 -0.943 -142.281    123.64   84.56   50.12  -94.22  -27.77   32.51  163.33   -1.82 -168.69   -0.49

DOCKED: MODEL       32
DOCKED: USER    Run = 32
DOCKED: USER    DPF = ligand_dock.biased.dpf
DOCKED: USER  
DOCKED: USER    Estimated Free Energy of Binding    =  -11.72 kcal/mol  [=(1)+(2)+(3)-(4)]
DOCKED: USER    Estimated Inhibition Constant, Ki   =    2.57 nM (nanomolar)  [Temperature = 298.15 K]
DOCKED: USER    
DOCKED: USER    (1) Final Intermolecular Energy     =  -14.70 kcal/mol
DOCKED: USER        vdW + Hbond + desolv Energy     =  -14.70 kcal/mol
DOCKED: USER        Electrostatic Energy            =   +0.00 kcal/mol
DOCKED: USER    (2) Final Total Internal Energy     =   -1.60 kcal/mol
DOCKED: USER    (3) Torsional Free Energy           =   +2.98 kcal/mol
DOCKED: USER    (4) Unbound System's Energy  [=(2)] =   -1.60 kcal/mol
DOCKED: USER    
DOCKED: USER    
DOCKED: USER    NEWDPF move ligand.pdbqt
DOCKED: USER    NEWDPF about 0.285000 0.077000 -0.044000
DOCKED: USER    NEWDPF tran0 27.409891 -15.731391 -0.881840
DOCKED: USER    NEWDPF quaternion0 0.242694 -0.201592 -0.892171 -0.323252
DOCKED: USER    NEWDPF axisangle0 0.256463 -0.213029 -0.942786 -142.280564
DOCKED: USER    NEWDPF quat0 0.256463 -0.213029 -0.942786 -142.280564
DOCKED: USER    NEWDPF dihe0 123.64 84.56 50.12 -94.22 -27.77 32.51 163.33 -1.82 -168.69 -0.49 
DOCKED: USER  keepresnum = 1 
DOCKED: USER  
DOCKED: REMARK  Name = 
DOCKED: REMARK  10 active torsions:
DOCKED: REMARK  status: ('A' for Active; 'I' for Inactive)
DOCKED: REMARK    1  A    between atoms: C_2  and  C_5
DOCKED: REMARK    2  A    between atoms: C_6  and  C_7
DOCKED: REMARK    3  A    between atoms: C_10  and  C_11
DOCKED: REMARK    4  A    between atoms: C_11  and  N_12
DOCKED: REMARK    5  A    between atoms: N_12  and  C_13
DOCKED: REMARK    6  A    between atoms: N_12  and  C_16
DOCKED: REMARK    7  A    between atoms: C_13  and  C_14
DOCKED: REMARK    8  A    between atoms: C_14  and  O_15
DOCKED: REMARK    9  A    between atoms: C_16  and  C_17
DOCKED: REMARK   10  A    between atoms: C_17  and  C_18
DOCKED: REMARK                            x       y       z     vdW  Elec       q    Type
DOCKED: REMARK                         _______ _______ _______ _____ _____    ______ ____
DOCKED: USER                              x       y       z     vdW  Elec       q    Type
DOCKED: USER                           _______ _______ _______ _____ _____    ______ ____
DOCKED: ROOT
DOCKED: ATOM      1  N   UNL     1      28.178 -14.656  -0.686 -0.16 -0.00    +0.000 N 
DOCKED: ATOM      2  H   UNL     1      29.085 -14.244  -0.906 +0.00 -0.00    +0.000 HD
DOCKED: ENDROOT
DOCKED: BRANCH   1   3
DOCKED: ATOM      3  C   UNL     1      27.973 -15.648  -1.773 -0.27 -0.00    +0.000 C 
DOCKED: BRANCH   3   7
DOCKED: ATOM      4  C   UNL     1      24.414 -18.086  -1.263 -0.65 -0.00    +0.000 A 
DOCKED: ATOM      5  C   UNL     1      25.566 -18.332  -0.500 -0.58 -0.00    +0.000 A 
DOCKED: ATOM      6  C   UNL     1      26.710 -17.546  -0.662 -0.50 -0.00    +0.000 A 
DOCKED: ATOM      7  C   UNL     1      26.737 -16.514  -1.613 -0.40 -0.00    +0.000 A 
DOCKED: ATOM      8  C   UNL     1      25.582 -16.256  -2.368 -0.49 -0.00    +0.000 A 
DOCKED: ATOM      9  C   UNL     1      24.436 -17.041  -2.207 -0.28 -0.00    +0.000 A 
DOCKED: BRANCH   4  11
DOCKED: ATOM     10  C   UNL     1      21.984 -18.493  -0.881 -0.82 -0.00    +0.000 C 
DOCKED: ATOM     11  C   UNL     1      23.229 -18.957  -1.062 -0.81 -0.00    +0.000 C 
DOCKED: BRANCH  10  13
DOCKED: ATOM     12  O   UNL     1      20.101 -19.734  -1.643 -2.32 -0.00    +0.000 OA
DOCKED: ATOM     13  C   UNL     1      20.832 -19.391  -0.674 -0.88 -0.00    +0.000 C 
DOCKED: ATOM     14  N   UNL     1      20.540 -19.879   0.638 -0.66 -0.00    +0.000 N 
DOCKED: ATOM     15  O   UNL     1      19.486 -20.703   0.844 -0.79 -0.00    +0.000 OA
DOCKED: ATOM     16  H   UNL     1      21.109 -19.613   1.396 -0.46 -0.00    +0.000 HD
DOCKED: ENDBRANCH  10  13
DOCKED: ENDBRANCH   4  11
DOCKED: ENDBRANCH   3   7
DOCKED: ENDBRANCH   1   3
DOCKED: BRANCH   1  17
DOCKED: ATOM     17  C   UNL     1      28.357 -15.237   0.664 -0.18 -0.00    +0.000 C 
DOCKED: BRANCH  17  18
DOCKED: ATOM     18  C   UNL     1      29.715 -14.856   1.270 -0.08 -0.00    +0.000 C 
DOCKED: BRANCH  18  19
DOCKED: ATOM     19  O   UNL     1      29.573 -14.478   2.613 -0.26 -0.00    +0.000 OA
DOCKED: ATOM     20  H   UNL     1      29.246 -15.232   3.128 -1.81 -0.00    +0.000 HD
DOCKED: ENDBRANCH  18  19
DOCKED: ENDBRANCH  17  18
DOCKED: ENDBRANCH   1  17
DOCKED: BRANCH   1  21
DOCKED: ATOM     21  C   UNL     1      27.202 -13.541  -0.710 -0.22 -0.00    +0.000 C 
DOCKED: BRANCH  21  22
DOCKED: ATOM     22  C   UNL     1      27.728 -12.388  -1.571 -0.13 -0.00    +0.000 C 
DOCKED: BRANCH  22  23
DOCKED: ATOM     23  C   UNL     1      27.063 -12.377  -2.916 -0.14 -0.00    +0.000 A 
DOCKED: ATOM     24  C   UNL     1      26.902 -13.470  -3.764 -0.26 -0.00    +0.000 A 
DOCKED: ATOM     25  N   UNL     1      26.140 -13.133  -4.830 -0.31 -0.00    +0.000 N 
DOCKED: ATOM     26  C   UNL     1      25.807 -11.843  -4.655 -0.30 -0.00    +0.000 A 
DOCKED: ATOM     27  C   UNL     1      26.348 -11.346  -3.497 -0.01 -0.00    +0.000 A 
DOCKED: ATOM     28  C   UNL     1      26.113 -10.035  -3.080 -0.06 -0.00    +0.000 A 
DOCKED: ATOM     29  C   UNL     1      25.300  -9.224  -3.893 -0.24 -0.00    +0.000 A 
DOCKED: ATOM     30  C   UNL     1      24.744  -9.736  -5.086 -0.33 -0.00    +0.000 A 
DOCKED: ATOM     31  C   UNL     1      24.996 -11.063  -5.478 -0.35 -0.00    +0.000 A 
DOCKED: ATOM     32  H   UNL     1      25.884 -13.716  -5.581 +0.05 -0.00    +0.000 HD
DOCKED: ENDBRANCH  22  23
DOCKED: ENDBRANCH  21  22
DOCKED: ENDBRANCH   1  21
DOCKED: TORSDOF 10
DOCKED: TER
DOCKED: ENDMDL
________________________________________________________________________________


	BEGINNING GENETIC ALGORITHM DOCKING 33 of 100
Run: 33 Seed: 1162892308 343135345 [ Run 33 of 100 GA/GALS ]
Beginning LAMARCKIAN GENETIC ALGORITHM (LGA), with a maximum of 2500000 energy evaluations.

Final-Value: -16.293


	FINAL GENETIC ALGORITHM DOCKED STATE
	_______________________________________________


Detailed state:  trans 29.098 -16.219 -1.391 quatxyzw 0.292914 -0.239665 0.561055 0.736192 center 0.285 0.077 -0.044 ntor 10 138.4145 -31.9992 56.7564 -170.8701 53.2770 -153.5953 -49.8438 -5.8623 171.9177 110.1408
State:	 29.098 -16.219  -1.391   0.433 -0.354  0.829 85.184    138.41  -32.00   56.76 -170.87   53.28 -153.60  -49.84   -5.86  171.92  110.14

DOCKED: MODEL       33
DOCKED: USER    Run = 33
DOCKED: USER    DPF = ligand_dock.biased.dpf
DOCKED: USER  
DOCKED: USER    Estimated Free Energy of Binding    =  -10.80 kcal/mol  [=(1)+(2)+(3)-(4)]
DOCKED: USER    Estimated Inhibition Constant, Ki   =   12.18 nM (nanomolar)  [Temperature = 298.15 K]
DOCKED: USER    
DOCKED: USER    (1) Final Intermolecular Energy     =  -13.78 kcal/mol
DOCKED: USER        vdW + Hbond + desolv Energy     =  -13.78 kcal/mol
DOCKED: USER        Electrostatic Energy            =   +0.00 kcal/mol
DOCKED: USER    (2) Final Total Internal Energy     =   -2.51 kcal/mol
DOCKED: USER    (3) Torsional Free Energy           =   +2.98 kcal/mol
DOCKED: USER    (4) Unbound System's Energy  [=(2)] =   -2.51 kcal/mol
DOCKED: USER    
DOCKED: USER    
DOCKED: USER    NEWDPF move ligand.pdbqt
DOCKED: USER    NEWDPF about 0.285000 0.077000 -0.044000
DOCKED: USER    NEWDPF tran0 29.098342 -16.219139 -1.391330
DOCKED: USER    NEWDPF quaternion0 0.292914 -0.239665 0.561055 0.736192
DOCKED: USER    NEWDPF axisangle0 0.432811 -0.354129 0.829016 85.183893
DOCKED: USER    NEWDPF quat0 0.432811 -0.354129 0.829016 85.183893
DOCKED: USER    NEWDPF dihe0 138.41 -32.00 56.76 -170.87 53.28 -153.60 -49.84 -5.86 171.92 110.14 
DOCKED: USER  keepresnum = 1 
DOCKED: USER  
DOCKED: REMARK  Name = 
DOCKED: REMARK  10 active torsions:
DOCKED: REMARK  status: ('A' for Active; 'I' for Inactive)
DOCKED: REMARK    1  A    between atoms: C_2  and  C_5
DOCKED: REMARK    2  A    between atoms: C_6  and  C_7
DOCKED: REMARK    3  A    between atoms: C_10  and  C_11
DOCKED: REMARK    4  A    between atoms: C_11  and  N_12
DOCKED: REMARK    5  A    between atoms: N_12  and  C_13
DOCKED: REMARK    6  A    between atoms: N_12  and  C_16
DOCKED: REMARK    7  A    between atoms: C_13  and  C_14
DOCKED: REMARK    8  A    between atoms: C_14  and  O_15
DOCKED: REMARK    9  A    between atoms: C_16  and  C_17
DOCKED: REMARK   10  A    between atoms: C_17  and  C_18
DOCKED: REMARK                            x       y       z     vdW  Elec       q    Type
DOCKED: REMARK                         _______ _______ _______ _____ _____    ______ ____
DOCKED: USER                              x       y       z     vdW  Elec       q    Type
DOCKED: USER                           _______ _______ _______ _____ _____    ______ ____
DOCKED: ROOT
DOCKED: ATOM      1  N   UNL     1      28.524 -15.029  -1.195 -0.15 -0.00    +0.000 N 
DOCKED: ATOM      2  H   UNL     1      27.923 -14.327  -1.625 +0.01 -0.00    +0.000 HD
DOCKED: ENDROOT
DOCKED: BRANCH   1   3
DOCKED: ATOM      3  C   UNL     1      28.194 -16.274  -1.936 -0.30 -0.00    +0.000 C 
DOCKED: BRANCH   3   7
DOCKED: ATOM      4  C   UNL     1      24.378 -18.016  -0.809 -0.68 -0.00    +0.000 A 
DOCKED: ATOM      5  C   UNL     1      25.570 -18.462  -0.220 -0.55 -0.00    +0.000 A 
DOCKED: ATOM      6  C   UNL     1      26.797 -17.900  -0.580 -0.48 -0.00    +0.000 A 
DOCKED: ATOM      7  C   UNL     1      26.862 -16.897  -1.561 -0.40 -0.00    +0.000 A 
DOCKED: ATOM      8  C   UNL     1      25.670 -16.439  -2.142 -0.49 -0.00    +0.000 A 
DOCKED: ATOM      9  C   UNL     1      24.441 -17.000  -1.783 -0.54 -0.00    +0.000 A 
DOCKED: BRANCH   4  11
DOCKED: ATOM     10  C   UNL     1      22.054 -18.819  -1.222 -0.75 -0.00    +0.000 C 
DOCKED: ATOM     11  C   UNL     1      23.101 -18.653  -0.401 -0.81 -0.00    +0.000 C 
DOCKED: BRANCH  10  13
DOCKED: ATOM     12  O   UNL     1      19.886 -19.724  -1.603 -2.31 -0.00    +0.000 OA
DOCKED: ATOM     13  C   UNL     1      20.796 -19.448  -0.775 -0.87 -0.00    +0.000 C 
DOCKED: ATOM     14  N   UNL     1      20.605 -19.748   0.609 -0.68 -0.00    +0.000 N 
DOCKED: ATOM     15  O   UNL     1      19.457 -20.325   1.034 -0.78 -0.00    +0.000 OA
DOCKED: ATOM     16  H   UNL     1      21.314 -19.533   1.258 -0.44 -0.00    +0.000 HD
DOCKED: ENDBRANCH  10  13
DOCKED: ENDBRANCH   4  11
DOCKED: ENDBRANCH   3   7
DOCKED: ENDBRANCH   1   3
DOCKED: BRANCH   1  17
DOCKED: ATOM     17  C   UNL     1      29.897 -14.519  -1.413 -0.07 -0.00    +0.000 C 
DOCKED: BRANCH  17  18
DOCKED: ATOM     18  C   UNL     1      29.892 -13.048  -1.855 -0.03 -0.00    +0.000 C 
DOCKED: BRANCH  18  19
DOCKED: ATOM     19  O   UNL     1      28.675 -12.433  -1.528 -0.07 -0.00    +0.000 OA
DOCKED: ATOM     20  H   UNL     1      28.665 -12.219  -0.582 +0.00 -0.00    +0.000 HD
DOCKED: ENDBRANCH  18  19
DOCKED: ENDBRANCH  17  18
DOCKED: ENDBRANCH   1  17
DOCKED: BRANCH   1  21
DOCKED: ATOM     21  C   UNL     1      28.146 -15.073   0.237 -0.26 -0.00    +0.000 C 
DOCKED: BRANCH  21  22
DOCKED: ATOM     22  C   UNL     1      26.757 -14.462   0.443 -0.24 -0.00    +0.000 C 
DOCKED: BRANCH  22  23
DOCKED: ATOM     23  C   UNL     1      26.848 -13.161   1.186 -0.28 -0.00    +0.000 A 
DOCKED: ATOM     24  C   UNL     1      26.330 -11.937   0.769 -0.28 +0.00    +0.000 A 
DOCKED: ATOM     25  N   UNL     1      26.475 -11.007   1.741 -0.33 +0.00    +0.000 N 
DOCKED: ATOM     26  C   UNL     1      27.065 -11.636   2.772 -0.26 +0.00    +0.000 A 
DOCKED: ATOM     27  C   UNL     1      27.306 -12.952   2.473 -0.29 -0.00    +0.000 A 
DOCKED: ATOM     28  C   UNL     1      27.882 -13.822   3.401 -0.38 -0.00    +0.000 A 
DOCKED: ATOM     29  C   UNL     1      28.217 -13.304   4.665 -0.41 -0.00    +0.000 A 
DOCKED: ATOM     30  C   UNL     1      27.970 -11.948   4.972 -0.34 +0.00    +0.000 A 
DOCKED: ATOM     31  C   UNL     1      27.384 -11.097   4.017 -0.25 +0.00    +0.000 A 
DOCKED: ATOM     32  H   UNL     1      26.202 -10.062   1.700 -0.03 +0.00    +0.000 HD
DOCKED: ENDBRANCH  22  23
DOCKED: ENDBRANCH  21  22
DOCKED: ENDBRANCH   1  21
DOCKED: TORSDOF 10
DOCKED: TER
DOCKED: ENDMDL
________________________________________________________________________________


	BEGINNING GENETIC ALGORITHM DOCKING 34 of 100
Run: 34 Seed: 1632538727 1198477421 [ Run 34 of 100 GA/GALS ]
Beginning LAMARCKIAN GENETIC ALGORITHM (LGA), with a maximum of 2500000 energy evaluations.

Final-Value: -16.254


	FINAL GENETIC ALGORITHM DOCKED STATE
	_______________________________________________


Detailed state:  trans 26.868 -14.750 -1.665 quatxyzw -0.062885 0.941164 0.135325 0.303219 center 0.285 0.077 -0.044 ntor 10 165.3755 -144.2432 -171.8751 -119.8654 -171.1203 97.5029 -50.6786 -10.6739 -152.9975 43.0442
State:	 26.868 -14.750  -1.665  -0.066  0.988  0.142 144.698    165.38 -144.24 -171.88 -119.87 -171.12   97.50  -50.68  -10.67 -153.00   43.04

DOCKED: MODEL       34
DOCKED: USER    Run = 34
DOCKED: USER    DPF = ligand_dock.biased.dpf
DOCKED: USER  
DOCKED: USER    Estimated Free Energy of Binding    =  -11.57 kcal/mol  [=(1)+(2)+(3)-(4)]
DOCKED: USER    Estimated Inhibition Constant, Ki   =    3.30 nM (nanomolar)  [Temperature = 298.15 K]
DOCKED: USER    
DOCKED: USER    (1) Final Intermolecular Energy     =  -14.55 kcal/mol
DOCKED: USER        vdW + Hbond + desolv Energy     =  -14.55 kcal/mol
DOCKED: USER        Electrostatic Energy            =   +0.00 kcal/mol
DOCKED: USER    (2) Final Total Internal Energy     =   -1.70 kcal/mol
DOCKED: USER    (3) Torsional Free Energy           =   +2.98 kcal/mol
DOCKED: USER    (4) Unbound System's Energy  [=(2)] =   -1.70 kcal/mol
DOCKED: USER    
DOCKED: USER    
DOCKED: USER    NEWDPF move ligand.pdbqt
DOCKED: USER    NEWDPF about 0.285000 0.077000 -0.044000
DOCKED: USER    NEWDPF tran0 26.868308 -14.749745 -1.665187
DOCKED: USER    NEWDPF quaternion0 -0.062885 0.941164 0.135325 0.303219
DOCKED: USER    NEWDPF axisangle0 -0.065992 0.987663 0.142011 144.697848
DOCKED: USER    NEWDPF quat0 -0.065992 0.987663 0.142011 144.697848
DOCKED: USER    NEWDPF dihe0 165.38 -144.24 -171.88 -119.87 -171.12 97.50 -50.68 -10.67 -153.00 43.04 
DOCKED: USER  keepresnum = 1 
DOCKED: USER  
DOCKED: REMARK  Name = 
DOCKED: REMARK  10 active torsions:
DOCKED: REMARK  status: ('A' for Active; 'I' for Inactive)
DOCKED: REMARK    1  A    between atoms: C_2  and  C_5
DOCKED: REMARK    2  A    between atoms: C_6  and  C_7
DOCKED: REMARK    3  A    between atoms: C_10  and  C_11
DOCKED: REMARK    4  A    between atoms: C_11  and  N_12
DOCKED: REMARK    5  A    between atoms: N_12  and  C_13
DOCKED: REMARK    6  A    between atoms: N_12  and  C_16
DOCKED: REMARK    7  A    between atoms: C_13  and  C_14
DOCKED: REMARK    8  A    between atoms: C_14  and  O_15
DOCKED: REMARK    9  A    between atoms: C_16  and  C_17
DOCKED: REMARK   10  A    between atoms: C_17  and  C_18
DOCKED: REMARK                            x       y       z     vdW  Elec       q    Type
DOCKED: REMARK                         _______ _______ _______ _____ _____    ______ ____
DOCKED: USER                              x       y       z     vdW  Elec       q    Type
DOCKED: USER                           _______ _______ _______ _____ _____    ______ ____
DOCKED: ROOT
DOCKED: ATOM      1  N   UNL     1      27.965 -14.782  -2.427 -0.18 -0.00    +0.000 N 
DOCKED: ATOM      2  H   UNL     1      28.983 -14.721  -2.404 +0.01 -0.00    +0.000 HD
DOCKED: ENDROOT
DOCKED: BRANCH   1   3
DOCKED: ATOM      3  C   UNL     1      27.607 -15.175  -1.039 -0.27 -0.00    +0.000 C 
DOCKED: BRANCH   3   7
DOCKED: ATOM      4  C   UNL     1      24.321 -18.007  -0.814 -0.69 -0.00    +0.000 A 
DOCKED: ATOM      5  C   UNL     1      24.139 -16.744  -1.395 -0.52 -0.00    +0.000 A 
DOCKED: ATOM      6  C   UNL     1      25.196 -15.833  -1.470 -0.41 -0.00    +0.000 A 
DOCKED: ATOM      7  C   UNL     1      26.455 -16.157  -0.938 -0.41 -0.00    +0.000 A 
DOCKED: ATOM      8  C   UNL     1      26.645 -17.426  -0.369 -0.51 -0.00    +0.000 A 
DOCKED: ATOM      9  C   UNL     1      25.588 -18.338  -0.293 -0.59 -0.00    +0.000 A 
DOCKED: BRANCH   4  11
DOCKED: ATOM     10  C   UNL     1      21.899 -18.565  -0.997 -0.82 -0.00    +0.000 C 
DOCKED: ATOM     11  C   UNL     1      23.164 -18.933  -0.748 -0.81 -0.00    +0.000 C 
DOCKED: BRANCH  10  13
DOCKED: ATOM     12  O   UNL     1      20.039 -19.736  -1.911 -2.38 -0.00    +0.000 OA
DOCKED: ATOM     13  C   UNL     1      20.772 -19.515  -0.909 -0.86 -0.00    +0.000 C 
DOCKED: ATOM     14  N   UNL     1      20.506 -20.189   0.323 -0.69 -0.00    +0.000 N 
DOCKED: ATOM     15  O   UNL     1      19.476 -21.062   0.418 -0.89 -0.00    +0.000 OA
DOCKED: ATOM     16  H   UNL     1      21.076 -20.018   1.107 -0.52 -0.00    +0.000 HD
DOCKED: ENDBRANCH  10  13
DOCKED: ENDBRANCH   4  11
DOCKED: ENDBRANCH   3   7
DOCKED: ENDBRANCH   1   3
DOCKED: BRANCH   1  17
DOCKED: ATOM     17  C   UNL     1      27.525 -13.426  -2.826 -0.19 -0.00    +0.000 C 
DOCKED: BRANCH  17  18
DOCKED: ATOM     18  C   UNL     1      26.270 -13.474  -3.708 -0.37 -0.00    +0.000 C 
DOCKED: BRANCH  18  19
DOCKED: ATOM     19  O   UNL     1      26.615 -13.493  -5.066 -0.35 -0.00    +0.000 OA
DOCKED: ATOM     20  H   UNL     1      26.491 -14.388  -5.418 -0.03 -0.00    +0.000 HD
DOCKED: ENDBRANCH  18  19
DOCKED: ENDBRANCH  17  18
DOCKED: ENDBRANCH   1  17
DOCKED: BRANCH   1  21
DOCKED: ATOM     21  C   UNL     1      27.638 -15.815  -3.438 -0.29 -0.00    +0.000 C 
DOCKED: BRANCH  21  22
DOCKED: ATOM     22  C   UNL     1      28.885 -16.632  -3.792 -0.13 -0.00    +0.000 C 
DOCKED: BRANCH  22  23
DOCKED: ATOM     23  C   UNL     1      29.323 -16.357  -5.201 -0.29 -0.00    +0.000 A 
DOCKED: ATOM     24  C   UNL     1      28.932 -15.278  -5.990 -0.35 -0.00    +0.000 A 
DOCKED: ATOM     25  N   UNL     1      29.622 -15.268  -7.153 -0.31 -0.00    +0.000 N 
DOCKED: ATOM     26  C   UNL     1      30.455 -16.321  -7.100 -0.28 -0.00    +0.000 A 
DOCKED: ATOM     27  C   UNL     1      30.305 -17.009  -5.923 -0.30 -0.00    +0.000 A 
DOCKED: ATOM     28  C   UNL     1      31.088 -18.125  -5.620 -0.24 -0.00    +0.000 A 
DOCKED: ATOM     29  C   UNL     1      32.044 -18.532  -6.568 -0.15 -0.00    +0.000 A 
DOCKED: ATOM     30  C   UNL     1      32.197 -17.824  -7.780 -0.17 -0.00    +0.000 A 
DOCKED: ATOM     31  C   UNL     1      31.395 -16.701  -8.056 -0.24 -0.00    +0.000 A 
DOCKED: ATOM     32  H   UNL     1      29.530 -14.620  -7.888 -0.32 -0.00    +0.000 HD
DOCKED: ENDBRANCH  22  23
DOCKED: ENDBRANCH  21  22
DOCKED: ENDBRANCH   1  21
DOCKED: TORSDOF 10
DOCKED: TER
DOCKED: ENDMDL
________________________________________________________________________________


	BEGINNING GENETIC ALGORITHM DOCKING 35 of 100
Run: 35 Seed: 2020499824 537265344 [ Run 35 of 100 GA/GALS ]
Beginning LAMARCKIAN GENETIC ALGORITHM (LGA), with a maximum of 2500000 energy evaluations.

Final-Value: -16.001


	FINAL GENETIC ALGORITHM DOCKED STATE
	_______________________________________________


Detailed state:  trans 28.368 -15.272 -1.728 quatxyzw 0.557493 0.732359 0.367453 0.133530 center 0.285 0.077 -0.044 ntor 10 180.0000 -71.8936 91.0349 127.5300 121.5821 66.1938 178.8892 156.9854 7.6138 113.9534
State:	 28.368 -15.272  -1.728   0.563  0.739  0.371 164.653    180.00  -71.89   91.03  127.53  121.58   66.19  178.89  156.99    7.61  113.95

DOCKED: MODEL       35
DOCKED: USER    Run = 35
DOCKED: USER    DPF = ligand_dock.biased.dpf
DOCKED: USER  
DOCKED: USER    Estimated Free Energy of Binding    =  -10.88 kcal/mol  [=(1)+(2)+(3)-(4)]
DOCKED: USER    Estimated Inhibition Constant, Ki   =   10.59 nM (nanomolar)  [Temperature = 298.15 K]
DOCKED: USER    
DOCKED: USER    (1) Final Intermolecular Energy     =  -13.86 kcal/mol
DOCKED: USER        vdW + Hbond + desolv Energy     =  -13.86 kcal/mol
DOCKED: USER        Electrostatic Energy            =   +0.00 kcal/mol
DOCKED: USER    (2) Final Total Internal Energy     =   -2.14 kcal/mol
DOCKED: USER    (3) Torsional Free Energy           =   +2.98 kcal/mol
DOCKED: USER    (4) Unbound System's Energy  [=(2)] =   -2.14 kcal/mol
DOCKED: USER    
DOCKED: USER    
DOCKED: USER    NEWDPF move ligand.pdbqt
DOCKED: USER    NEWDPF about 0.285000 0.077000 -0.044000
DOCKED: USER    NEWDPF tran0 28.368146 -15.272126 -1.728329
DOCKED: USER    NEWDPF quaternion0 0.557493 0.732359 0.367453 0.133530
DOCKED: USER    NEWDPF axisangle0 0.562531 0.738976 0.370774 164.652758
DOCKED: USER    NEWDPF quat0 0.562531 0.738976 0.370774 164.652758
DOCKED: USER    NEWDPF dihe0 180.00 -71.89 91.03 127.53 121.58 66.19 178.89 156.99 7.61 113.95 
DOCKED: USER  keepresnum = 1 
DOCKED: USER  
DOCKED: REMARK  Name = 
DOCKED: REMARK  10 active torsions:
DOCKED: REMARK  status: ('A' for Active; 'I' for Inactive)
DOCKED: REMARK    1  A    between atoms: C_2  and  C_5
DOCKED: REMARK    2  A    between atoms: C_6  and  C_7
DOCKED: REMARK    3  A    between atoms: C_10  and  C_11
DOCKED: REMARK    4  A    between atoms: C_11  and  N_12
DOCKED: REMARK    5  A    between atoms: N_12  and  C_13
DOCKED: REMARK    6  A    between atoms: N_12  and  C_16
DOCKED: REMARK    7  A    between atoms: C_13  and  C_14
DOCKED: REMARK    8  A    between atoms: C_14  and  O_15
DOCKED: REMARK    9  A    between atoms: C_16  and  C_17
DOCKED: REMARK   10  A    between atoms: C_17  and  C_18
DOCKED: REMARK                            x       y       z     vdW  Elec       q    Type
DOCKED: REMARK                         _______ _______ _______ _____ _____    ______ ____
DOCKED: USER                              x       y       z     vdW  Elec       q    Type
DOCKED: USER                           _______ _______ _______ _____ _____    ______ ____
DOCKED: ROOT
DOCKED: ATOM      1  N   UNL     1      28.533 -16.279  -2.591 -0.25 -0.00    +0.000 N 
DOCKED: ATOM      2  H   UNL     1      28.711 -17.281  -2.659 -0.02 -0.00    +0.000 HD
DOCKED: ENDROOT
DOCKED: BRANCH   1   3
DOCKED: ATOM      3  C   UNL     1      27.979 -16.114  -1.222 -0.33 -0.00    +0.000 C 
DOCKED: BRANCH   3   7
DOCKED: ATOM      4  C   UNL     1      23.966 -17.667  -0.628 -0.67 -0.00    +0.000 A 
DOCKED: ATOM      5  C   UNL     1      25.086 -18.400  -0.209 -0.56 -0.00    +0.000 A 
DOCKED: ATOM      6  C   UNL     1      26.377 -17.900  -0.397 -0.55 -0.00    +0.000 A 
DOCKED: ATOM      7  C   UNL     1      26.578 -16.665  -1.037 -0.44 -0.00    +0.000 A 
DOCKED: ATOM      8  C   UNL     1      25.458 -15.923  -1.444 -0.46 -0.00    +0.000 A 
DOCKED: ATOM      9  C   UNL     1      24.166 -16.421  -1.256 -0.31 -0.00    +0.000 A 
DOCKED: BRANCH   4  11
DOCKED: ATOM     10  C   UNL     1      22.077 -19.188  -1.204 -0.74 -0.00    +0.000 C 
DOCKED: ATOM     11  C   UNL     1      22.617 -18.247  -0.416 -0.83 -0.00    +0.000 C 
DOCKED: BRANCH  10  13
DOCKED: ATOM     12  O   UNL     1      19.862 -19.731  -1.885 -2.37 -0.00    +0.000 OA
DOCKED: ATOM     13  C   UNL     1      20.726 -19.733  -0.966 -0.82 -0.00    +0.000 C 
DOCKED: ATOM     14  N   UNL     1      20.392 -20.268   0.316 -0.69 -0.00    +0.000 N 
DOCKED: ATOM     15  O   UNL     1      19.157 -20.770   0.550 -0.88 -0.00    +0.000 OA
DOCKED: ATOM     16  H   UNL     1      21.065 -20.270   1.035 -0.55 -0.00    +0.000 HD
DOCKED: ENDBRANCH  10  13
DOCKED: ENDBRANCH   4  11
DOCKED: ENDBRANCH   3   7
DOCKED: ENDBRANCH   1   3
DOCKED: BRANCH   1  17
DOCKED: ATOM     17  C   UNL     1      29.858 -15.655  -2.807 -0.15 -0.00    +0.000 C 
DOCKED: BRANCH  17  18
DOCKED: ATOM     18  C   UNL     1      30.566 -16.242  -4.036 -0.16 -0.00    +0.000 C 
DOCKED: BRANCH  18  19
DOCKED: ATOM     19  O   UNL     1      30.035 -17.496  -4.368 -0.32 -0.00    +0.000 OA
DOCKED: ATOM     20  H   UNL     1      29.664 -17.463  -5.263 -0.03 -0.00    +0.000 HD
DOCKED: ENDBRANCH  18  19
DOCKED: ENDBRANCH  17  18
DOCKED: ENDBRANCH   1  17
DOCKED: BRANCH   1  21
DOCKED: ATOM     21  C   UNL     1      27.563 -15.960  -3.664 -0.20 -0.00    +0.000 C 
DOCKED: BRANCH  21  22
DOCKED: ATOM     22  C   UNL     1      27.261 -14.458  -3.684 -0.33 -0.00    +0.000 C 
DOCKED: BRANCH  22  23
DOCKED: ATOM     23  C   UNL     1      27.681 -13.844  -4.987 -0.27 -0.00    +0.000 A 
DOCKED: ATOM     24  C   UNL     1      28.516 -14.423  -5.939 -0.33 -0.00    +0.000 A 
DOCKED: ATOM     25  N   UNL     1      28.573 -13.652  -7.049 -0.32 -0.00    +0.000 N 
DOCKED: ATOM     26  C   UNL     1      27.770 -12.601  -6.814 -0.09 -0.00    +0.000 A 
DOCKED: ATOM     27  C   UNL     1      27.205 -12.683  -5.567 -0.18 -0.00    +0.000 A 
DOCKED: ATOM     28  C   UNL     1      26.303 -11.722  -5.105 -0.24 -0.00    +0.000 A 
DOCKED: ATOM     29  C   UNL     1      25.990 -10.651  -5.962 -0.22 -0.00    +0.000 A 
DOCKED: ATOM     30  C   UNL     1      26.574 -10.566  -7.245 -0.17 -0.00    +0.000 A 
DOCKED: ATOM     31  C   UNL     1      27.476 -11.553  -7.684 -0.16 -0.00    +0.000 A 
DOCKED: ATOM     32  H   UNL     1      29.097 -13.828  -7.864 -0.20 -0.00    +0.000 HD
DOCKED: ENDBRANCH  22  23
DOCKED: ENDBRANCH  21  22
DOCKED: ENDBRANCH   1  21
DOCKED: TORSDOF 10
DOCKED: TER
DOCKED: ENDMDL
________________________________________________________________________________


	BEGINNING GENETIC ALGORITHM DOCKING 36 of 100
Run: 36 Seed: 1689780066 561010201 [ Run 36 of 100 GA/GALS ]
Beginning LAMARCKIAN GENETIC ALGORITHM (LGA), with a maximum of 2500000 energy evaluations.

Final-Value: -17.984


	FINAL GENETIC ALGORITHM DOCKED STATE
	_______________________________________________


Detailed state:  trans 28.687 -15.794 -1.292 quatxyzw -0.335711 0.605567 0.258352 -0.673677 center 0.285 0.077 -0.044 ntor 10 80.8608 -16.3776 52.1686 77.8456 171.0928 23.6376 -28.2567 150.7740 -178.2877 -138.6250
State:	 28.687 -15.794  -1.292  -0.454  0.819  0.350 -95.297     80.86  -16.38   52.17   77.85  171.09   23.64  -28.26  150.77 -178.29 -138.63

DOCKED: MODEL       36
DOCKED: USER    Run = 36
DOCKED: USER    DPF = ligand_dock.biased.dpf
DOCKED: USER  
DOCKED: USER    Estimated Free Energy of Binding    =  -12.50 kcal/mol  [=(1)+(2)+(3)-(4)]
DOCKED: USER    Estimated Inhibition Constant, Ki   =  691.83 pM (picomolar)  [Temperature = 298.15 K]
DOCKED: USER    
DOCKED: USER    (1) Final Intermolecular Energy     =  -15.48 kcal/mol
DOCKED: USER        vdW + Hbond + desolv Energy     =  -15.48 kcal/mol
DOCKED: USER        Electrostatic Energy            =   +0.00 kcal/mol
DOCKED: USER    (2) Final Total Internal Energy     =   -2.50 kcal/mol
DOCKED: USER    (3) Torsional Free Energy           =   +2.98 kcal/mol
DOCKED: USER    (4) Unbound System's Energy  [=(2)] =   -2.50 kcal/mol
DOCKED: USER    
DOCKED: USER    
DOCKED: USER    NEWDPF move ligand.pdbqt
DOCKED: USER    NEWDPF about 0.285000 0.077000 -0.044000
DOCKED: USER    NEWDPF tran0 28.687115 -15.793711 -1.291643
DOCKED: USER    NEWDPF quaternion0 -0.335711 0.605567 0.258352 -0.673677
DOCKED: USER    NEWDPF axisangle0 -0.454261 0.819413 0.349585 -95.296975
DOCKED: USER    NEWDPF quat0 -0.454261 0.819413 0.349585 -95.296975
DOCKED: USER    NEWDPF dihe0 80.86 -16.38 52.17 77.85 171.09 23.64 -28.26 150.77 -178.29 -138.63 
DOCKED: USER  keepresnum = 1 
DOCKED: USER  
DOCKED: REMARK  Name = 
DOCKED: REMARK  10 active torsions:
DOCKED: REMARK  status: ('A' for Active; 'I' for Inactive)
DOCKED: REMARK    1  A    between atoms: C_2  and  C_5
DOCKED: REMARK    2  A    between atoms: C_6  and  C_7
DOCKED: REMARK    3  A    between atoms: C_10  and  C_11
DOCKED: REMARK    4  A    between atoms: C_11  and  N_12
DOCKED: REMARK    5  A    between atoms: N_12  and  C_13
DOCKED: REMARK    6  A    between atoms: N_12  and  C_16
DOCKED: REMARK    7  A    between atoms: C_13  and  C_14
DOCKED: REMARK    8  A    between atoms: C_14  and  O_15
DOCKED: REMARK    9  A    between atoms: C_16  and  C_17
DOCKED: REMARK   10  A    between atoms: C_17  and  C_18
DOCKED: REMARK                            x       y       z     vdW  Elec       q    Type
DOCKED: REMARK                         _______ _______ _______ _____ _____    ______ ____
DOCKED: USER                              x       y       z     vdW  Elec       q    Type
DOCKED: USER                           _______ _______ _______ _____ _____    ______ ____
DOCKED: ROOT
DOCKED: ATOM      1  N   UNL     1      28.698 -15.950   0.035 -0.24 -0.00    +0.000 N 
DOCKED: ATOM      2  H   UNL     1      28.181 -16.346   0.820 -0.56 -0.00    +0.000 HD
DOCKED: ENDROOT
DOCKED: BRANCH   1   3
DOCKED: ATOM      3  C   UNL     1      28.202 -16.720  -1.135 -0.36 -0.00    +0.000 C 
DOCKED: BRANCH   3   7
DOCKED: ATOM      4  C   UNL     1      23.981 -17.719  -0.907 -0.68 -0.00    +0.000 A 
DOCKED: ATOM      5  C   UNL     1      24.945 -18.540  -0.302 -0.55 -0.00    +0.000 A 
DOCKED: ATOM      6  C   UNL     1      26.303 -18.218  -0.373 -0.56 -0.00    +0.000 A 
DOCKED: ATOM      7  C   UNL     1      26.730 -17.080  -1.077 -0.46 -0.00    +0.000 A 
DOCKED: ATOM      8  C   UNL     1      25.767 -16.249  -1.671 -0.48 -0.00    +0.000 A 
DOCKED: ATOM      9  C   UNL     1      24.408 -16.569  -1.601 -0.48 -0.00    +0.000 A 
DOCKED: BRANCH   4  11
DOCKED: ATOM     10  C   UNL     1      22.133 -19.382  -0.727 -0.75 -0.00    +0.000 C 
DOCKED: ATOM     11  C   UNL     1      22.553 -18.111  -0.814 -0.81 -0.00    +0.000 C 
DOCKED: BRANCH  10  13
DOCKED: ATOM     12  O   UNL     1      19.973 -19.699  -1.675 -2.31 -0.00    +0.000 OA
DOCKED: ATOM     13  C   UNL     1      20.701 -19.732  -0.646 -0.84 -0.00    +0.000 C 
DOCKED: ATOM     14  N   UNL     1      20.133 -20.113   0.609 -0.71 -0.00    +0.000 N 
DOCKED: ATOM     15  O   UNL     1      18.822 -20.437   0.698 -0.83 -0.00    +0.000 OA
DOCKED: ATOM     16  H   UNL     1      20.700 -20.139   1.414 -0.46 -0.00    +0.000 HD
DOCKED: ENDBRANCH  10  13
DOCKED: ENDBRANCH   4  11
DOCKED: ENDBRANCH   3   7
DOCKED: ENDBRANCH   1   3
DOCKED: BRANCH   1  17
DOCKED: ATOM     17  C   UNL     1      28.333 -14.516   0.040 -0.21 -0.00    +0.000 C 
DOCKED: BRANCH  17  18
DOCKED: ATOM     18  C   UNL     1      27.543 -14.136   1.300 -0.29 -0.00    +0.000 C 
DOCKED: BRANCH  18  19
DOCKED: ATOM     19  O   UNL     1      27.994 -14.864   2.410 -0.32 -0.00    +0.000 OA
DOCKED: ATOM     20  H   UNL     1      28.886 -15.201   2.234 -1.82 -0.00    +0.000 HD
DOCKED: ENDBRANCH  18  19
DOCKED: ENDBRANCH  17  18
DOCKED: ENDBRANCH   1  17
DOCKED: BRANCH   1  21
DOCKED: ATOM     21  C   UNL     1      30.132 -16.181   0.331 +0.00 -0.00    +0.000 C 
DOCKED: BRANCH  21  22
DOCKED: ATOM     22  C   UNL     1      31.002 -15.715  -0.842 -0.09 -0.00    +0.000 C 
DOCKED: BRANCH  22  23
DOCKED: ATOM     23  C   UNL     1      31.204 -16.823  -1.833 -0.10 -0.00    +0.000 A 
DOCKED: ATOM     24  C   UNL     1      31.753 -18.075  -1.568 -0.11 -0.00    +0.000 A 
DOCKED: ATOM     25  N   UNL     1      31.660 -18.872  -2.657 -0.13 -0.00    +0.000 N 
DOCKED: ATOM     26  C   UNL     1      31.045 -18.141  -3.601 -0.16 -0.00    +0.000 A 
DOCKED: ATOM     27  C   UNL     1      30.747 -16.886  -3.136 -0.14 -0.00    +0.000 A 
DOCKED: ATOM     28  C   UNL     1      30.073 -15.951  -3.924 -0.16 -0.00    +0.000 A 
DOCKED: ATOM     29  C   UNL     1      29.707 -16.335  -5.227 -0.28 -0.00    +0.000 A 
DOCKED: ATOM     30  C   UNL     1      30.015 -17.627  -5.706 -0.30 -0.00    +0.000 A 
DOCKED: ATOM     31  C   UNL     1      30.691 -18.549  -4.886 -0.26 -0.00    +0.000 A 
DOCKED: ATOM     32  H   UNL     1      31.980 -19.800  -2.739 -0.00 -0.00    +0.000 HD
DOCKED: ENDBRANCH  22  23
DOCKED: ENDBRANCH  21  22
DOCKED: ENDBRANCH   1  21
DOCKED: TORSDOF 10
DOCKED: TER
DOCKED: ENDMDL
________________________________________________________________________________


	BEGINNING GENETIC ALGORITHM DOCKING 37 of 100
Run: 37 Seed: 345418564 1777437287 [ Run 37 of 100 GA/GALS ]
Beginning LAMARCKIAN GENETIC ALGORITHM (LGA), with a maximum of 2500000 energy evaluations.

Final-Value: -16.057


	FINAL GENETIC ALGORITHM DOCKED STATE
	_______________________________________________


Detailed state:  trans 27.102 -15.808 -1.677 quatxyzw 0.297596 -0.913660 0.222006 -0.165456 center 0.285 0.077 -0.044 ntor 10 -12.0662 107.2833 144.6302 -111.7873 -176.3038 -176.3833 164.6726 -21.6914 180.0000 3.2751
State:	 27.102 -15.808  -1.677   0.302 -0.926  0.225 -160.953    -12.07  107.28  144.63 -111.79 -176.30 -176.38  164.67  -21.69  180.00    3.28

DOCKED: MODEL       37
DOCKED: USER    Run = 37
DOCKED: USER    DPF = ligand_dock.biased.dpf
DOCKED: USER  
DOCKED: USER    Estimated Free Energy of Binding    =  -11.22 kcal/mol  [=(1)+(2)+(3)-(4)]
DOCKED: USER    Estimated Inhibition Constant, Ki   =    5.96 nM (nanomolar)  [Temperature = 298.15 K]
DOCKED: USER    
DOCKED: USER    (1) Final Intermolecular Energy     =  -14.20 kcal/mol
DOCKED: USER        vdW + Hbond + desolv Energy     =  -14.20 kcal/mol
DOCKED: USER        Electrostatic Energy            =   +0.00 kcal/mol
DOCKED: USER    (2) Final Total Internal Energy     =   -1.85 kcal/mol
DOCKED: USER    (3) Torsional Free Energy           =   +2.98 kcal/mol
DOCKED: USER    (4) Unbound System's Energy  [=(2)] =   -1.85 kcal/mol
DOCKED: USER    
DOCKED: USER    
DOCKED: USER    NEWDPF move ligand.pdbqt
DOCKED: USER    NEWDPF about 0.285000 0.077000 -0.044000
DOCKED: USER    NEWDPF tran0 27.101802 -15.808327 -1.677187
DOCKED: USER    NEWDPF quaternion0 0.297596 -0.913660 0.222006 -0.165456
DOCKED: USER    NEWDPF axisangle0 0.301755 -0.926428 0.225109 -160.952605
DOCKED: USER    NEWDPF quat0 0.301755 -0.926428 0.225109 -160.952605
DOCKED: USER    NEWDPF dihe0 -12.07 107.28 144.63 -111.79 -176.30 -176.38 164.67 -21.69 180.00 3.28 
DOCKED: USER  keepresnum = 1 
DOCKED: USER  
DOCKED: REMARK  Name = 
DOCKED: REMARK  10 active torsions:
DOCKED: REMARK  status: ('A' for Active; 'I' for Inactive)
DOCKED: REMARK    1  A    between atoms: C_2  and  C_5
DOCKED: REMARK    2  A    between atoms: C_6  and  C_7
DOCKED: REMARK    3  A    between atoms: C_10  and  C_11
DOCKED: REMARK    4  A    between atoms: C_11  and  N_12
DOCKED: REMARK    5  A    between atoms: N_12  and  C_13
DOCKED: REMARK    6  A    between atoms: N_12  and  C_16
DOCKED: REMARK    7  A    between atoms: C_13  and  C_14
DOCKED: REMARK    8  A    between atoms: C_14  and  O_15
DOCKED: REMARK    9  A    between atoms: C_16  and  C_17
DOCKED: REMARK   10  A    between atoms: C_17  and  C_18
DOCKED: REMARK                            x       y       z     vdW  Elec       q    Type
DOCKED: REMARK                         _______ _______ _______ _____ _____    ______ ____
DOCKED: USER                              x       y       z     vdW  Elec       q    Type
DOCKED: USER                           _______ _______ _______ _____ _____    ______ ____
DOCKED: ROOT
DOCKED: ATOM      1  N   UNL     1      28.293 -15.380  -2.103 -0.19 -0.00    +0.000 N 
DOCKED: ATOM      2  H   UNL     1      29.010 -14.669  -1.959 +0.01 -0.00    +0.000 HD
DOCKED: ENDROOT
DOCKED: BRANCH   1   3
DOCKED: ATOM      3  C   UNL     1      27.555 -15.401  -0.814 -0.30 -0.00    +0.000 C 
DOCKED: BRANCH   3   7
DOCKED: ATOM      4  C   UNL     1      24.210 -18.170  -0.760 -0.70 -0.00    +0.000 A 
DOCKED: ATOM      5  C   UNL     1      24.045 -16.857  -1.225 -0.55 -0.00    +0.000 A 
DOCKED: ATOM      6  C   UNL     1      25.121 -15.967  -1.244 -0.43 -0.00    +0.000 A 
DOCKED: ATOM      7  C   UNL     1      26.383 -16.362  -0.772 -0.43 -0.00    +0.000 A 
DOCKED: ATOM      8  C   UNL     1      26.555 -17.680  -0.319 -0.53 -0.00    +0.000 A 
DOCKED: ATOM      9  C   UNL     1      25.479 -18.572  -0.299 -0.53 -0.00    +0.000 A 
DOCKED: BRANCH   4  11
DOCKED: ATOM     10  C   UNL     1      21.764 -18.647  -0.834 -0.84 -0.00    +0.000 C 
DOCKED: ATOM     11  C   UNL     1      23.033 -19.074  -0.747 -0.80 -0.00    +0.000 C 
DOCKED: BRANCH  10  13
DOCKED: ATOM     12  O   UNL     1      19.894 -19.734  -1.828 -2.40 -0.00    +0.000 OA
DOCKED: ATOM     13  C   UNL     1      20.619 -19.577  -0.807 -0.87 -0.00    +0.000 C 
DOCKED: ATOM     14  N   UNL     1      20.324 -20.307   0.386 -0.70 -0.00    +0.000 N 
DOCKED: ATOM     15  O   UNL     1      19.277 -21.163   0.426 -0.84 -0.00    +0.000 OA
DOCKED: ATOM     16  H   UNL     1      20.888 -20.186   1.184 -0.50 -0.00    +0.000 HD
DOCKED: ENDBRANCH  10  13
DOCKED: ENDBRANCH   4  11
DOCKED: ENDBRANCH   3   7
DOCKED: ENDBRANCH   1   3
DOCKED: BRANCH   1  17
DOCKED: ATOM     17  C   UNL     1      27.514 -14.885  -3.261 -0.30 -0.00    +0.000 C 
DOCKED: BRANCH  17  18
DOCKED: ATOM     18  C   UNL     1      27.898 -15.613  -4.556 -0.37 -0.00    +0.000 C 
DOCKED: BRANCH  18  19
DOCKED: ATOM     19  O   UNL     1      26.876 -15.509  -5.509 -1.15 +0.00    +0.000 OA
DOCKED: ATOM     20  H   UNL     1      26.132 -16.075  -5.248 -0.08 +0.00    +0.000 HD
DOCKED: ENDBRANCH  18  19
DOCKED: ENDBRANCH  17  18
DOCKED: ENDBRANCH   1  17
DOCKED: BRANCH   1  21
DOCKED: ATOM     21  C   UNL     1      29.017 -16.640  -2.392 -0.26 -0.00    +0.000 C 
DOCKED: BRANCH  21  22
DOCKED: ATOM     22  C   UNL     1      30.530 -16.426  -2.284 -0.14 -0.00    +0.000 C 
DOCKED: BRANCH  22  23
DOCKED: ATOM     23  C   UNL     1      31.062 -17.000  -1.003 -0.13 -0.00    +0.000 A 
DOCKED: ATOM     24  C   UNL     1      31.752 -18.201  -0.862 -0.13 -0.00    +0.000 A 
DOCKED: ATOM     25  N   UNL     1      32.202 -18.342   0.405 -0.13 -0.00    +0.000 N 
DOCKED: ATOM     26  C   UNL     1      31.816 -17.235   1.062 -0.13 -0.00    +0.000 A 
DOCKED: ATOM     27  C   UNL     1      31.121 -16.390   0.236 -0.12 -0.00    +0.000 A 
DOCKED: ATOM     28  C   UNL     1      30.644 -15.155   0.682 -0.11 -0.00    +0.000 A 
DOCKED: ATOM     29  C   UNL     1      30.896 -14.799   2.019 -0.13 -0.00    +0.000 A 
DOCKED: ATOM     30  C   UNL     1      31.611 -15.671   2.869 -0.21 -0.00    +0.000 A 
DOCKED: ATOM     31  C   UNL     1      32.082 -16.907   2.390 -0.20 -0.00    +0.000 A 
DOCKED: ATOM     32  H   UNL     1      32.709 -19.103   0.771 +0.00 -0.00    +0.000 HD
DOCKED: ENDBRANCH  22  23
DOCKED: ENDBRANCH  21  22
DOCKED: ENDBRANCH   1  21
DOCKED: TORSDOF 10
DOCKED: TER
DOCKED: ENDMDL
________________________________________________________________________________


	BEGINNING GENETIC ALGORITHM DOCKING 38 of 100
Run: 38 Seed: 455701673 206685648 [ Run 38 of 100 GA/GALS ]
Beginning LAMARCKIAN GENETIC ALGORITHM (LGA), with a maximum of 2500000 energy evaluations.

Final-Value: -18.090


	FINAL GENETIC ALGORITHM DOCKED STATE
	_______________________________________________


Detailed state:  trans 28.186 -15.879 -2.662 quatxyzw 0.878547 -0.344926 0.233628 0.233663 center 0.285 0.077 -0.044 ntor 10 -171.0052 1.6308 15.3633 -153.9417 59.8920 -128.8638 -6.9688 98.8999 58.2853 -135.7118
State:	 28.186 -15.879  -2.662   0.904 -0.355  0.240 152.974   -171.01    1.63   15.36 -153.94   59.89 -128.86   -6.97   98.90   58.29 -135.71

DOCKED: MODEL       38
DOCKED: USER    Run = 38
DOCKED: USER    DPF = ligand_dock.biased.dpf
DOCKED: USER  
DOCKED: USER    Estimated Free Energy of Binding    =  -13.34 kcal/mol  [=(1)+(2)+(3)-(4)]
DOCKED: USER    Estimated Inhibition Constant, Ki   =  167.35 pM (picomolar)  [Temperature = 298.15 K]
DOCKED: USER    
DOCKED: USER    (1) Final Intermolecular Energy     =  -16.32 kcal/mol
DOCKED: USER        vdW + Hbond + desolv Energy     =  -16.32 kcal/mol
DOCKED: USER        Electrostatic Energy            =   +0.00 kcal/mol
DOCKED: USER    (2) Final Total Internal Energy     =   -1.77 kcal/mol
DOCKED: USER    (3) Torsional Free Energy           =   +2.98 kcal/mol
DOCKED: USER    (4) Unbound System's Energy  [=(2)] =   -1.77 kcal/mol
DOCKED: USER    
DOCKED: USER    
DOCKED: USER    NEWDPF move ligand.pdbqt
DOCKED: USER    NEWDPF about 0.285000 0.077000 -0.044000
DOCKED: USER    NEWDPF tran0 28.186098 -15.878915 -2.662486
DOCKED: USER    NEWDPF quaternion0 0.878547 -0.344926 0.233628 0.233663
DOCKED: USER    NEWDPF axisangle0 0.903560 -0.354746 0.240280 152.974315
DOCKED: USER    NEWDPF quat0 0.903560 -0.354746 0.240280 152.974315
DOCKED: USER    NEWDPF dihe0 -171.01 1.63 15.36 -153.94 59.89 -128.86 -6.97 98.90 58.29 -135.71 
DOCKED: USER  keepresnum = 1 
DOCKED: USER  
DOCKED: REMARK  Name = 
DOCKED: REMARK  10 active torsions:
DOCKED: REMARK  status: ('A' for Active; 'I' for Inactive)
DOCKED: REMARK    1  A    between atoms: C_2  and  C_5
DOCKED: REMARK    2  A    between atoms: C_6  and  C_7
DOCKED: REMARK    3  A    between atoms: C_10  and  C_11
DOCKED: REMARK    4  A    between atoms: C_11  and  N_12
DOCKED: REMARK    5  A    between atoms: N_12  and  C_13
DOCKED: REMARK    6  A    between atoms: N_12  and  C_16
DOCKED: REMARK    7  A    between atoms: C_13  and  C_14
DOCKED: REMARK    8  A    between atoms: C_14  and  O_15
DOCKED: REMARK    9  A    between atoms: C_16  and  C_17
DOCKED: REMARK   10  A    between atoms: C_17  and  C_18
DOCKED: REMARK                            x       y       z     vdW  Elec       q    Type
DOCKED: REMARK                         _______ _______ _______ _____ _____    ______ ____
DOCKED: USER                              x       y       z     vdW  Elec       q    Type
DOCKED: USER                           _______ _______ _______ _____ _____    ______ ____
DOCKED: ROOT
DOCKED: ATOM      1  N   UNL     1      27.449 -14.770  -2.774 -0.23 -0.00    +0.000 N 
DOCKED: ATOM      2  H   UNL     1      26.554 -14.351  -2.523 -0.00 -0.00    +0.000 HD
DOCKED: ENDROOT
DOCKED: BRANCH   1   3
DOCKED: ATOM      3  C   UNL     1      27.623 -15.851  -1.768 -0.32 -0.00    +0.000 C 
DOCKED: BRANCH   3   7
DOCKED: ATOM      4  C   UNL     1      23.994 -17.993  -0.717 -0.70 -0.00    +0.000 A 
DOCKED: ATOM      5  C   UNL     1      25.245 -18.625  -0.645 -0.52 -0.00    +0.000 A 
DOCKED: ATOM      6  C   UNL     1      26.412 -17.935  -0.980 -0.43 -0.00    +0.000 A 
DOCKED: ATOM      7  C   UNL     1      26.352 -16.604  -1.424 -0.45 -0.00    +0.000 A 
DOCKED: ATOM      8  C   UNL     1      25.104 -15.965  -1.484 -0.44 -0.00    +0.000 A 
DOCKED: ATOM      9  C   UNL     1      23.934 -16.653  -1.148 -0.42 -0.00    +0.000 A 
DOCKED: BRANCH   4  11
DOCKED: ATOM     10  C   UNL     1      21.616 -18.678  -1.015 -0.82 -0.00    +0.000 C 
DOCKED: ATOM     11  C   UNL     1      22.782 -18.773  -0.361 -0.81 -0.00    +0.000 C 
DOCKED: BRANCH  10  13
DOCKED: ATOM     12  O   UNL     1      19.527 -19.728  -1.466 -2.10 -0.00    +0.000 OA
DOCKED: ATOM     13  C   UNL     1      20.429 -19.463  -0.624 -0.89 -0.00    +0.000 C 
DOCKED: ATOM     14  N   UNL     1      20.296 -19.927   0.721 -0.69 -0.00    +0.000 N 
DOCKED: ATOM     15  O   UNL     1      19.213 -20.648   1.095 -0.76 -0.00    +0.000 OA
DOCKED: ATOM     16  H   UNL     1      20.998 -19.721   1.380 -0.49 -0.00    +0.000 HD
DOCKED: ENDBRANCH  10  13
DOCKED: ENDBRANCH   4  11
DOCKED: ENDBRANCH   3   7
DOCKED: ENDBRANCH   1   3
DOCKED: BRANCH   1  17
DOCKED: ATOM     17  C   UNL     1      27.259 -15.237  -4.166 -0.44 -0.00    +0.000 C 
DOCKED: BRANCH  17  18
DOCKED: ATOM     18  C   UNL     1      25.788 -15.565  -4.458 -0.57 -0.00    +0.000 C 
DOCKED: BRANCH  18  19
DOCKED: ATOM     19  O   UNL     1      24.960 -14.484  -4.124 -1.03 -0.00    +0.000 OA
DOCKED: ATOM     20  H   UNL     1      24.389 -14.269  -4.879 -0.44 -0.00    +0.000 HD
DOCKED: ENDBRANCH  18  19
DOCKED: ENDBRANCH  17  18
DOCKED: ENDBRANCH   1  17
DOCKED: BRANCH   1  21
DOCKED: ATOM     21  C   UNL     1      28.456 -13.689  -2.661 -0.12 -0.00    +0.000 C 
DOCKED: BRANCH  21  22
DOCKED: ATOM     22  C   UNL     1      29.578 -14.100  -1.701 -0.07 -0.00    +0.000 C 
DOCKED: BRANCH  22  23
DOCKED: ATOM     23  C   UNL     1      29.070 -14.193  -0.292 -0.11 -0.00    +0.000 A 
DOCKED: ATOM     24  C   UNL     1      29.554 -15.039   0.703 -0.10 -0.00    +0.000 A 
DOCKED: ATOM     25  N   UNL     1      28.960 -14.765   1.887 -0.06 -0.00    +0.000 N 
DOCKED: ATOM     26  C   UNL     1      28.117 -13.745   1.652 -0.22 -0.00    +0.000 A 
DOCKED: ATOM     27  C   UNL     1      28.158 -13.365   0.335 -0.14 -0.00    +0.000 A 
DOCKED: ATOM     28  C   UNL     1      27.394 -12.300  -0.147 -0.15 -0.00    +0.000 A 
DOCKED: ATOM     29  C   UNL     1      26.566 -11.622   0.766 -0.26 +0.00    +0.000 A 
DOCKED: ATOM     30  C   UNL     1      26.524 -12.014   2.122 -0.27 +0.00    +0.000 A 
DOCKED: ATOM     31  C   UNL     1      27.308 -13.089   2.579 -0.30 -0.00    +0.000 A 
DOCKED: ATOM     32  H   UNL     1      29.114 -15.221   2.745 -1.98 -0.00    +0.000 HD
DOCKED: ENDBRANCH  22  23
DOCKED: ENDBRANCH  21  22
DOCKED: ENDBRANCH   1  21
DOCKED: TORSDOF 10
DOCKED: TER
DOCKED: ENDMDL
________________________________________________________________________________


	BEGINNING GENETIC ALGORITHM DOCKING 39 of 100
Run: 39 Seed: 1048799345 606526386 [ Run 39 of 100 GA/GALS ]
Beginning LAMARCKIAN GENETIC ALGORITHM (LGA), with a maximum of 2500000 energy evaluations.

Final-Value: -16.208


	FINAL GENETIC ALGORITHM DOCKED STATE
	_______________________________________________


Detailed state:  trans 27.350 -15.488 -2.018 quatxyzw -0.098471 0.965210 -0.179808 0.162305 center 0.285 0.077 -0.044 ntor 10 163.8888 161.6820 -169.7841 -144.7988 42.5537 -37.0511 -78.1920 -21.2517 -12.2127 27.4087
State:	 27.350 -15.488  -2.018  -0.100  0.978 -0.182 161.319    163.89  161.68 -169.78 -144.80   42.55  -37.05  -78.19  -21.25  -12.21   27.41

DOCKED: MODEL       39
DOCKED: USER    Run = 39
DOCKED: USER    DPF = ligand_dock.biased.dpf
DOCKED: USER  
DOCKED: USER    Estimated Free Energy of Binding    =  -11.39 kcal/mol  [=(1)+(2)+(3)-(4)]
DOCKED: USER    Estimated Inhibition Constant, Ki   =    4.50 nM (nanomolar)  [Temperature = 298.15 K]
DOCKED: USER    
DOCKED: USER    (1) Final Intermolecular Energy     =  -14.37 kcal/mol
DOCKED: USER        vdW + Hbond + desolv Energy     =  -14.37 kcal/mol
DOCKED: USER        Electrostatic Energy            =   +0.00 kcal/mol
DOCKED: USER    (2) Final Total Internal Energy     =   -1.84 kcal/mol
DOCKED: USER    (3) Torsional Free Energy           =   +2.98 kcal/mol
DOCKED: USER    (4) Unbound System's Energy  [=(2)] =   -1.84 kcal/mol
DOCKED: USER    
DOCKED: USER    
DOCKED: USER    NEWDPF move ligand.pdbqt
DOCKED: USER    NEWDPF about 0.285000 0.077000 -0.044000
DOCKED: USER    NEWDPF tran0 27.349862 -15.488195 -2.017595
DOCKED: USER    NEWDPF quaternion0 -0.098471 0.965210 -0.179808 0.162305
DOCKED: USER    NEWDPF axisangle0 -0.099795 0.978180 -0.182224 161.318581
DOCKED: USER    NEWDPF quat0 -0.099795 0.978180 -0.182224 161.318581
DOCKED: USER    NEWDPF dihe0 163.89 161.68 -169.78 -144.80 42.55 -37.05 -78.19 -21.25 -12.21 27.41 
DOCKED: USER  keepresnum = 1 
DOCKED: USER  
DOCKED: REMARK  Name = 
DOCKED: REMARK  10 active torsions:
DOCKED: REMARK  status: ('A' for Active; 'I' for Inactive)
DOCKED: REMARK    1  A    between atoms: C_2  and  C_5
DOCKED: REMARK    2  A    between atoms: C_6  and  C_7
DOCKED: REMARK    3  A    between atoms: C_10  and  C_11
DOCKED: REMARK    4  A    between atoms: C_11  and  N_12
DOCKED: REMARK    5  A    between atoms: N_12  and  C_13
DOCKED: REMARK    6  A    between atoms: N_12  and  C_16
DOCKED: REMARK    7  A    between atoms: C_13  and  C_14
DOCKED: REMARK    8  A    between atoms: C_14  and  O_15
DOCKED: REMARK    9  A    between atoms: C_16  and  C_17
DOCKED: REMARK   10  A    between atoms: C_17  and  C_18
DOCKED: REMARK                            x       y       z     vdW  Elec       q    Type
DOCKED: REMARK                         _______ _______ _______ _____ _____    ______ ____
DOCKED: USER                              x       y       z     vdW  Elec       q    Type
DOCKED: USER                           _______ _______ _______ _____ _____    ______ ____
DOCKED: ROOT
DOCKED: ATOM      1  N   UNL     1      28.647 -15.564  -2.328 -0.18 -0.00    +0.000 N 
DOCKED: ATOM      2  H   UNL     1      29.571 -15.201  -2.091 +0.00 -0.00    +0.000 HD
DOCKED: ENDROOT
DOCKED: BRANCH   1   3
DOCKED: ATOM      3  C   UNL     1      27.847 -15.311  -1.101 -0.26 -0.00    +0.000 C 
DOCKED: BRANCH   3   7
DOCKED: ATOM      4  C   UNL     1      24.332 -17.816  -0.613 -0.67 -0.00    +0.000 A 
DOCKED: ATOM      5  C   UNL     1      25.606 -18.297  -0.277 -0.60 -0.00    +0.000 A 
DOCKED: ATOM      6  C   UNL     1      26.737 -17.491  -0.431 -0.50 -0.00    +0.000 A 
DOCKED: ATOM      7  C   UNL     1      26.621 -16.192  -0.954 -0.40 -0.00    +0.000 A 
DOCKED: ATOM      8  C   UNL     1      25.346 -15.703  -1.278 -0.38 -0.00    +0.000 A 
DOCKED: ATOM      9  C   UNL     1      24.214 -16.508  -1.124 -0.40 -0.00    +0.000 A 
DOCKED: BRANCH   4  11
DOCKED: ATOM     10  C   UNL     1      22.001 -18.560  -1.090 -0.80 -0.00    +0.000 C 
DOCKED: ATOM     11  C   UNL     1      23.165 -18.716  -0.442 -0.80 -0.00    +0.000 C 
DOCKED: BRANCH  10  13
DOCKED: ATOM     12  O   UNL     1      20.078 -19.748  -1.836 -2.38 -0.00    +0.000 OA
DOCKED: ATOM     13  C   UNL     1      20.858 -19.470  -0.885 -0.86 -0.00    +0.000 C 
DOCKED: ATOM     14  N   UNL     1      20.630 -20.043   0.405 -0.68 -0.00    +0.000 N 
DOCKED: ATOM     15  O   UNL     1      19.586 -20.880   0.609 -0.86 -0.00    +0.000 OA
DOCKED: ATOM     16  H   UNL     1      21.237 -19.828   1.150 -0.50 -0.00    +0.000 HD
DOCKED: ENDBRANCH  10  13
DOCKED: ENDBRANCH   4  11
DOCKED: ENDBRANCH   3   7
DOCKED: ENDBRANCH   1   3
DOCKED: BRANCH   1  17
DOCKED: ATOM     17  C   UNL     1      28.238 -14.779  -3.514 -0.23 -0.00    +0.000 C 
DOCKED: BRANCH  17  18
DOCKED: ATOM     18  C   UNL     1      27.368 -15.607  -4.470 -0.38 -0.00    +0.000 C 
DOCKED: BRANCH  18  19
DOCKED: ATOM     19  O   UNL     1      27.592 -15.230  -5.801 -0.99 +0.00    +0.000 OA
DOCKED: ATOM     20  H   UNL     1      28.152 -15.893  -6.235 -0.05 +0.00    +0.000 HD
DOCKED: ENDBRANCH  18  19
DOCKED: ENDBRANCH  17  18
DOCKED: ENDBRANCH   1  17
DOCKED: BRANCH   1  21
DOCKED: ATOM     21  C   UNL     1      28.834 -17.004  -2.626 -0.17 -0.00    +0.000 C 
DOCKED: BRANCH  21  22
DOCKED: ATOM     22  C   UNL     1      30.289 -17.417  -2.380 -0.20 -0.00    +0.000 C 
DOCKED: BRANCH  22  23
DOCKED: ATOM     23  C   UNL     1      30.771 -18.348  -3.454 -0.13 -0.00    +0.000 A 
DOCKED: ATOM     24  C   UNL     1      31.196 -19.662  -3.275 -0.07 -0.00    +0.000 A 
DOCKED: ATOM     25  N   UNL     1      31.430 -20.250  -4.470 -0.20 -0.00    +0.000 N 
DOCKED: ATOM     26  C   UNL     1      31.142 -19.326  -5.402 -0.26 -0.00    +0.000 A 
DOCKED: ATOM     27  C   UNL     1      30.733 -18.152  -4.822 -0.25 -0.00    +0.000 A 
DOCKED: ATOM     28  C   UNL     1      30.345 -17.051  -5.588 -0.28 -0.00    +0.000 A 
DOCKED: ATOM     29  C   UNL     1      30.389 -17.177  -6.988 -0.27 -0.00    +0.000 A 
DOCKED: ATOM     30  C   UNL     1      30.812 -18.385  -7.584 -0.32 -0.00    +0.000 A 
DOCKED: ATOM     31  C   UNL     1      31.194 -19.480  -6.787 -0.30 -0.00    +0.000 A 
DOCKED: ATOM     32  H   UNL     1      31.748 -21.169  -4.624 -0.00 -0.00    +0.000 HD
DOCKED: ENDBRANCH  22  23
DOCKED: ENDBRANCH  21  22
DOCKED: ENDBRANCH   1  21
DOCKED: TORSDOF 10
DOCKED: TER
DOCKED: ENDMDL
________________________________________________________________________________


	BEGINNING GENETIC ALGORITHM DOCKING 40 of 100
Run: 40 Seed: 1316989346 1709305436 [ Run 40 of 100 GA/GALS ]
Beginning LAMARCKIAN GENETIC ALGORITHM (LGA), with a maximum of 2500000 energy evaluations.

Final-Value: -17.428


	FINAL GENETIC ALGORITHM DOCKED STATE
	_______________________________________________


Detailed state:  trans 28.962 -15.950 -0.367 quatxyzw 0.198675 0.216694 0.769474 0.566993 center 0.285 0.077 -0.044 ntor 10 -179.9590 -155.5823 -111.3755 7.5454 159.9329 108.8905 -179.6467 157.5273 155.2115 81.3486
State:	 28.962 -15.950  -0.367   0.241  0.263  0.934 110.918   -179.96 -155.58 -111.38    7.55  159.93  108.89 -179.65  157.53  155.21   81.35

DOCKED: MODEL       40
DOCKED: USER    Run = 40
DOCKED: USER    DPF = ligand_dock.biased.dpf
DOCKED: USER  
DOCKED: USER    Estimated Free Energy of Binding    =  -12.74 kcal/mol  [=(1)+(2)+(3)-(4)]
DOCKED: USER    Estimated Inhibition Constant, Ki   =  462.39 pM (picomolar)  [Temperature = 298.15 K]
DOCKED: USER    
DOCKED: USER    (1) Final Intermolecular Energy     =  -15.72 kcal/mol
DOCKED: USER        vdW + Hbond + desolv Energy     =  -15.72 kcal/mol
DOCKED: USER        Electrostatic Energy            =   +0.00 kcal/mol
DOCKED: USER    (2) Final Total Internal Energy     =   -1.71 kcal/mol
DOCKED: USER    (3) Torsional Free Energy           =   +2.98 kcal/mol
DOCKED: USER    (4) Unbound System's Energy  [=(2)] =   -1.71 kcal/mol
DOCKED: USER    
DOCKED: USER    
DOCKED: USER    NEWDPF move ligand.pdbqt
DOCKED: USER    NEWDPF about 0.285000 0.077000 -0.044000
DOCKED: USER    NEWDPF tran0 28.961731 -15.949829 -0.367315
DOCKED: USER    NEWDPF quaternion0 0.198675 0.216694 0.769474 0.566993
DOCKED: USER    NEWDPF axisangle0 0.241191 0.263067 0.934143 110.918372
DOCKED: USER    NEWDPF quat0 0.241191 0.263067 0.934143 110.918372
DOCKED: USER    NEWDPF dihe0 -179.96 -155.58 -111.38 7.55 159.93 108.89 -179.65 157.53 155.21 81.35 
DOCKED: USER  keepresnum = 1 
DOCKED: USER  
DOCKED: REMARK  Name = 
DOCKED: REMARK  10 active torsions:
DOCKED: REMARK  status: ('A' for Active; 'I' for Inactive)
DOCKED: REMARK    1  A    between atoms: C_2  and  C_5
DOCKED: REMARK    2  A    between atoms: C_6  and  C_7
DOCKED: REMARK    3  A    between atoms: C_10  and  C_11
DOCKED: REMARK    4  A    between atoms: C_11  and  N_12
DOCKED: REMARK    5  A    between atoms: N_12  and  C_13
DOCKED: REMARK    6  A    between atoms: N_12  and  C_16
DOCKED: REMARK    7  A    between atoms: C_13  and  C_14
DOCKED: REMARK    8  A    between atoms: C_14  and  O_15
DOCKED: REMARK    9  A    between atoms: C_16  and  C_17
DOCKED: REMARK   10  A    between atoms: C_17  and  C_18
DOCKED: REMARK                            x       y       z     vdW  Elec       q    Type
DOCKED: REMARK                         _______ _______ _______ _____ _____    ______ ____
DOCKED: USER                              x       y       z     vdW  Elec       q    Type
DOCKED: USER                           _______ _______ _______ _____ _____    ______ ____
DOCKED: ROOT
DOCKED: ATOM      1  N   UNL     1      29.038 -14.881  -1.165 -0.12 -0.00    +0.000 N 
DOCKED: ATOM      2  H   UNL     1      29.258 -14.579  -2.114 +0.01 -0.00    +0.000 HD
DOCKED: ENDROOT
DOCKED: BRANCH   1   3
DOCKED: ATOM      3  C   UNL     1      28.707 -16.321  -1.324 -0.28 -0.00    +0.000 C 
DOCKED: BRANCH   3   7
DOCKED: ATOM      4  C   UNL     1      24.454 -17.175  -1.114 -0.62 -0.00    +0.000 A 
DOCKED: ATOM      5  C   UNL     1      25.323 -17.613  -0.104 -0.47 -0.00    +0.000 A 
DOCKED: ATOM      6  C   UNL     1      26.690 -17.337  -0.170 -0.48 -0.00    +0.000 A 
DOCKED: ATOM      7  C   UNL     1      27.225 -16.638  -1.265 -0.38 -0.00    +0.000 A 
DOCKED: ATOM      8  C   UNL     1      26.356 -16.186  -2.270 -0.41 -0.00    +0.000 A 
DOCKED: ATOM      9  C   UNL     1      24.987 -16.462  -2.206 -0.49 -0.00    +0.000 A 
DOCKED: BRANCH   4  11
DOCKED: ATOM     10  C   UNL     1      22.547 -18.693  -0.590 -0.83 -0.00    +0.000 C 
DOCKED: ATOM     11  C   UNL     1      23.011 -17.505  -1.004 -0.72 -0.00    +0.000 C 
DOCKED: BRANCH  10  13
DOCKED: ATOM     12  O   UNL     1      20.252 -18.161  -0.934 -2.13 -0.00    +0.000 OA
DOCKED: ATOM     13  C   UNL     1      21.103 -18.987  -0.505 -0.87 -0.00    +0.000 C 
DOCKED: ATOM     14  N   UNL     1      20.663 -20.219   0.071 -0.67 -0.00    +0.000 N 
DOCKED: ATOM     15  O   UNL     1      19.342 -20.502   0.158 -1.06 -0.00    +0.000 OA
DOCKED: ATOM     16  H   UNL     1      21.325 -20.865   0.408 -0.59 -0.00    +0.000 HD
DOCKED: ENDBRANCH  10  13
DOCKED: ENDBRANCH   4  11
DOCKED: ENDBRANCH   3   7
DOCKED: ENDBRANCH   1   3
DOCKED: BRANCH   1  17
DOCKED: ATOM     17  C   UNL     1      30.274 -14.605  -0.398 -0.09 -0.00    +0.000 C 
DOCKED: BRANCH  17  18
DOCKED: ATOM     18  C   UNL     1      30.396 -15.522   0.828 -0.06 -0.00    +0.000 C 
DOCKED: BRANCH  18  19
DOCKED: ATOM     19  O   UNL     1      30.089 -14.824   2.005 -0.19 -0.00    +0.000 OA
DOCKED: ATOM     20  H   UNL     1      29.328 -15.242   2.438 -1.94 -0.00    +0.000 HD
DOCKED: ENDBRANCH  18  19
DOCKED: ENDBRANCH  17  18
DOCKED: ENDBRANCH   1  17
DOCKED: BRANCH   1  21
DOCKED: ATOM     21  C   UNL     1      27.890 -14.054  -0.725 -0.19 -0.00    +0.000 C 
DOCKED: BRANCH  21  22
DOCKED: ATOM     22  C   UNL     1      27.516 -14.386   0.723 -0.29 -0.00    +0.000 C 
DOCKED: BRANCH  22  23
DOCKED: ATOM     23  C   UNL     1      27.650 -13.176   1.602 -0.23 -0.00    +0.000 A 
DOCKED: ATOM     24  C   UNL     1      27.518 -11.849   1.202 -0.18 -0.00    +0.000 A 
DOCKED: ATOM     25  N   UNL     1      27.566 -11.025   2.273 -0.22 +0.00    +0.000 N 
DOCKED: ATOM     26  C   UNL     1      27.712 -11.820   3.347 -0.26 +0.00    +0.000 A 
DOCKED: ATOM     27  C   UNL     1      27.764 -13.140   2.979 -0.30 -0.00    +0.000 A 
DOCKED: ATOM     28  C   UNL     1      27.879 -14.162   3.924 -0.48 -0.00    +0.000 A 
DOCKED: ATOM     29  C   UNL     1      27.944 -13.796   5.280 -0.44 -0.00    +0.000 A 
DOCKED: ATOM     30  C   UNL     1      27.891 -12.436   5.658 -0.39 +0.00    +0.000 A 
DOCKED: ATOM     31  C   UNL     1      27.772 -11.429   4.683 -0.33 +0.00    +0.000 A 
DOCKED: ATOM     32  H   UNL     1      27.506 -10.042   2.266 -0.01 +0.00    +0.000 HD
DOCKED: ENDBRANCH  22  23
DOCKED: ENDBRANCH  21  22
DOCKED: ENDBRANCH   1  21
DOCKED: TORSDOF 10
DOCKED: TER
DOCKED: ENDMDL
________________________________________________________________________________


	BEGINNING GENETIC ALGORITHM DOCKING 41 of 100
Run: 41 Seed: 1904778861 718857461 [ Run 41 of 100 GA/GALS ]
Beginning LAMARCKIAN GENETIC ALGORITHM (LGA), with a maximum of 2500000 energy evaluations.

Final-Value: -16.537


	FINAL GENETIC ALGORITHM DOCKED STATE
	_______________________________________________


Detailed state:  trans 28.616 -15.744 -0.514 quatxyzw 0.214348 -0.905900 -0.343929 -0.122931 center 0.285 0.077 -0.044 ntor 10 -55.3235 -49.6938 -12.7854 -75.3975 97.0611 -59.7231 -123.7802 179.3300 -148.4734 4.2370
State:	 28.616 -15.744  -0.514   0.216 -0.913 -0.347 -165.877    -55.32  -49.69  -12.79  -75.40   97.06  -59.72 -123.78  179.33 -148.47    4.24

DOCKED: MODEL       41
DOCKED: USER    Run = 41
DOCKED: USER    DPF = ligand_dock.biased.dpf
DOCKED: USER  
DOCKED: USER    Estimated Free Energy of Binding    =  -11.80 kcal/mol  [=(1)+(2)+(3)-(4)]
DOCKED: USER    Estimated Inhibition Constant, Ki   =    2.25 nM (nanomolar)  [Temperature = 298.15 K]
DOCKED: USER    
DOCKED: USER    (1) Final Intermolecular Energy     =  -14.78 kcal/mol
DOCKED: USER        vdW + Hbond + desolv Energy     =  -14.78 kcal/mol
DOCKED: USER        Electrostatic Energy            =   +0.00 kcal/mol
DOCKED: USER    (2) Final Total Internal Energy     =   -1.76 kcal/mol
DOCKED: USER    (3) Torsional Free Energy           =   +2.98 kcal/mol
DOCKED: USER    (4) Unbound System's Energy  [=(2)] =   -1.76 kcal/mol
DOCKED: USER    
DOCKED: USER    
DOCKED: USER    NEWDPF move ligand.pdbqt
DOCKED: USER    NEWDPF about 0.285000 0.077000 -0.044000
DOCKED: USER    NEWDPF tran0 28.616250 -15.744434 -0.514399
DOCKED: USER    NEWDPF quaternion0 0.214348 -0.905900 -0.343929 -0.122931
DOCKED: USER    NEWDPF axisangle0 0.215987 -0.912824 -0.346558 -165.877378
DOCKED: USER    NEWDPF quat0 0.215987 -0.912824 -0.346558 -165.877378
DOCKED: USER    NEWDPF dihe0 -55.32 -49.69 -12.79 -75.40 97.06 -59.72 -123.78 179.33 -148.47 4.24 
DOCKED: USER  keepresnum = 1 
DOCKED: USER  
DOCKED: REMARK  Name = 
DOCKED: REMARK  10 active torsions:
DOCKED: REMARK  status: ('A' for Active; 'I' for Inactive)
DOCKED: REMARK    1  A    between atoms: C_2  and  C_5
DOCKED: REMARK    2  A    between atoms: C_6  and  C_7
DOCKED: REMARK    3  A    between atoms: C_10  and  C_11
DOCKED: REMARK    4  A    between atoms: C_11  and  N_12
DOCKED: REMARK    5  A    between atoms: N_12  and  C_13
DOCKED: REMARK    6  A    between atoms: N_12  and  C_16
DOCKED: REMARK    7  A    between atoms: C_13  and  C_14
DOCKED: REMARK    8  A    between atoms: C_14  and  O_15
DOCKED: REMARK    9  A    between atoms: C_16  and  C_17
DOCKED: REMARK   10  A    between atoms: C_17  and  C_18
DOCKED: REMARK                            x       y       z     vdW  Elec       q    Type
DOCKED: REMARK                         _______ _______ _______ _____ _____    ______ ____
DOCKED: USER                              x       y       z     vdW  Elec       q    Type
DOCKED: USER                           _______ _______ _______ _____ _____    ______ ____
DOCKED: ROOT
DOCKED: ATOM      1  N   UNL     1      29.870 -15.359  -0.769 -0.12 -0.00    +0.000 N 
DOCKED: ATOM      2  H   UNL     1      30.806 -15.296  -0.369 +0.00 -0.00    +0.000 HD
DOCKED: ENDROOT
DOCKED: BRANCH   1   3
DOCKED: ATOM      3  C   UNL     1      29.212 -16.413   0.048 -0.02 -0.00    +0.000 C 
DOCKED: BRANCH   3   7
DOCKED: ATOM      4  C   UNL     1      25.100 -17.209  -1.100 -0.59 -0.00    +0.000 A 
DOCKED: ATOM      5  C   UNL     1      25.507 -15.913  -0.749 -0.38 -0.00    +0.000 A 
DOCKED: ATOM      6  C   UNL     1      26.830 -15.656  -0.383 -0.33 -0.00    +0.000 A 
DOCKED: ATOM      7  C   UNL     1      27.771 -16.697  -0.330 -0.34 -0.00    +0.000 A 
DOCKED: ATOM      8  C   UNL     1      27.370 -17.992  -0.694 -0.33 -0.00    +0.000 A 
DOCKED: ATOM      9  C   UNL     1      26.046 -18.251  -1.062 -0.34 -0.00    +0.000 A 
DOCKED: BRANCH   4  11
DOCKED: ATOM     10  C   UNL     1      22.779 -18.006  -0.659 -0.82 -0.00    +0.000 C 
DOCKED: ATOM     11  C   UNL     1      23.680 -17.432  -1.470 -0.66 -0.00    +0.000 C 
DOCKED: BRANCH  10  13
DOCKED: ATOM     12  O   UNL     1      20.558 -17.262  -1.084 -1.89 -0.00    +0.000 OA
DOCKED: ATOM     13  C   UNL     1      21.377 -18.221  -1.068 -0.68 -0.00    +0.000 C 
DOCKED: ATOM     14  N   UNL     1      20.941 -19.528  -1.449 -0.79 -0.00    +0.000 N 
DOCKED: ATOM     15  O   UNL     1      19.659 -19.740  -1.826 -2.23 -0.00    +0.000 OA
DOCKED: ATOM     16  H   UNL     1      21.579 -20.278  -1.438 -0.32 -0.00    +0.000 HD
DOCKED: ENDBRANCH  10  13
DOCKED: ENDBRANCH   4  11
DOCKED: ENDBRANCH   3   7
DOCKED: ENDBRANCH   1   3
DOCKED: BRANCH   1  17
DOCKED: ATOM     17  C   UNL     1      29.308 -14.000  -0.604 -0.09 -0.00    +0.000 C 
DOCKED: BRANCH  17  18
DOCKED: ATOM     18  C   UNL     1      29.348 -13.543   0.861 -0.12 -0.00    +0.000 C 
DOCKED: BRANCH  18  19
DOCKED: ATOM     19  O   UNL     1      29.944 -14.519   1.672 -0.18 -0.00    +0.000 OA
DOCKED: ATOM     20  H   UNL     1      29.291 -14.854   2.307 -1.59 -0.00    +0.000 HD
DOCKED: ENDBRANCH  18  19
DOCKED: ENDBRANCH  17  18
DOCKED: ENDBRANCH   1  17
DOCKED: BRANCH   1  21
DOCKED: ATOM     21  C   UNL     1      30.053 -15.739  -2.189 -0.13 -0.00    +0.000 C 
DOCKED: BRANCH  21  22
DOCKED: ATOM     22  C   UNL     1      28.848 -15.292  -3.023 -0.20 -0.00    +0.000 C 
DOCKED: BRANCH  22  23
DOCKED: ATOM     23  C   UNL     1      29.072 -15.568  -4.481 -0.25 -0.00    +0.000 A 
DOCKED: ATOM     24  C   UNL     1      28.706 -14.743  -5.541 -0.31 -0.00    +0.000 A 
DOCKED: ATOM     25  N   UNL     1      29.181 -15.233  -6.708 -0.37 -0.00    +0.000 N 
DOCKED: ATOM     26  C   UNL     1      29.856 -16.352  -6.394 -0.28 -0.00    +0.000 A 
DOCKED: ATOM     27  C   UNL     1      29.816 -16.588  -5.044 -0.27 -0.00    +0.000 A 
DOCKED: ATOM     28  C   UNL     1      30.477 -17.676  -4.469 -0.24 -0.00    +0.000 A 
DOCKED: ATOM     29  C   UNL     1      31.190 -18.536  -5.323 -0.23 -0.00    +0.000 A 
DOCKED: ATOM     30  C   UNL     1      31.229 -18.293  -6.713 -0.27 -0.00    +0.000 A 
DOCKED: ATOM     31  C   UNL     1      30.557 -17.186  -7.263 -0.24 -0.00    +0.000 A 
DOCKED: ATOM     32  H   UNL     1      29.056 -14.848  -7.606 -0.18 -0.00    +0.000 HD
DOCKED: ENDBRANCH  22  23
DOCKED: ENDBRANCH  21  22
DOCKED: ENDBRANCH   1  21
DOCKED: TORSDOF 10
DOCKED: TER
DOCKED: ENDMDL
________________________________________________________________________________


	BEGINNING GENETIC ALGORITHM DOCKING 42 of 100
Run: 42 Seed: 1092067619 1694305619 [ Run 42 of 100 GA/GALS ]
Beginning LAMARCKIAN GENETIC ALGORITHM (LGA), with a maximum of 2500000 energy evaluations.

Final-Value: -17.012


	FINAL GENETIC ALGORITHM DOCKED STATE
	_______________________________________________


Detailed state:  trans 29.232 -15.415 -1.455 quatxyzw 0.422478 0.584826 0.527485 -0.448610 center 0.285 0.077 -0.044 ntor 10 23.5558 -90.4856 87.2971 -163.4186 57.8897 -175.4294 -175.6702 35.3309 -67.7017 -169.8756
State:	 29.232 -15.415  -1.455   0.473  0.654  0.590 -126.691     23.56  -90.49   87.30 -163.42   57.89 -175.43 -175.67   35.33  -67.70 -169.88

DOCKED: MODEL       42
DOCKED: USER    Run = 42
DOCKED: USER    DPF = ligand_dock.biased.dpf
DOCKED: USER  
DOCKED: USER    Estimated Free Energy of Binding    =  -11.54 kcal/mol  [=(1)+(2)+(3)-(4)]
DOCKED: USER    Estimated Inhibition Constant, Ki   =    3.48 nM (nanomolar)  [Temperature = 298.15 K]
DOCKED: USER    
DOCKED: USER    (1) Final Intermolecular Energy     =  -14.52 kcal/mol
DOCKED: USER        vdW + Hbond + desolv Energy     =  -14.52 kcal/mol
DOCKED: USER        Electrostatic Energy            =   +0.00 kcal/mol
DOCKED: USER    (2) Final Total Internal Energy     =   -2.49 kcal/mol
DOCKED: USER    (3) Torsional Free Energy           =   +2.98 kcal/mol
DOCKED: USER    (4) Unbound System's Energy  [=(2)] =   -2.49 kcal/mol
DOCKED: USER    
DOCKED: USER    
DOCKED: USER    NEWDPF move ligand.pdbqt
DOCKED: USER    NEWDPF about 0.285000 0.077000 -0.044000
DOCKED: USER    NEWDPF tran0 29.231784 -15.414609 -1.454941
DOCKED: USER    NEWDPF quaternion0 0.422478 0.584826 0.527485 -0.448610
DOCKED: USER    NEWDPF axisangle0 0.472715 0.654367 0.590207 -126.690885
DOCKED: USER    NEWDPF quat0 0.472715 0.654367 0.590207 -126.690885
DOCKED: USER    NEWDPF dihe0 23.56 -90.49 87.30 -163.42 57.89 -175.43 -175.67 35.33 -67.70 -169.88 
DOCKED: USER  keepresnum = 1 
DOCKED: USER  
DOCKED: REMARK  Name = 
DOCKED: REMARK  10 active torsions:
DOCKED: REMARK  status: ('A' for Active; 'I' for Inactive)
DOCKED: REMARK    1  A    between atoms: C_2  and  C_5
DOCKED: REMARK    2  A    between atoms: C_6  and  C_7
DOCKED: REMARK    3  A    between atoms: C_10  and  C_11
DOCKED: REMARK    4  A    between atoms: C_11  and  N_12
DOCKED: REMARK    5  A    between atoms: N_12  and  C_13
DOCKED: REMARK    6  A    between atoms: N_12  and  C_16
DOCKED: REMARK    7  A    between atoms: C_13  and  C_14
DOCKED: REMARK    8  A    between atoms: C_14  and  O_15
DOCKED: REMARK    9  A    between atoms: C_16  and  C_17
DOCKED: REMARK   10  A    between atoms: C_17  and  C_18
DOCKED: REMARK                            x       y       z     vdW  Elec       q    Type
DOCKED: REMARK                         _______ _______ _______ _____ _____    ______ ____
DOCKED: USER                              x       y       z     vdW  Elec       q    Type
DOCKED: USER                           _______ _______ _______ _____ _____    ______ ____
DOCKED: ROOT
DOCKED: ATOM      1  N   UNL     1      29.483 -16.713  -1.643 -0.22 -0.00    +0.000 N 
DOCKED: ATOM      2  H   UNL     1      29.096 -17.650  -1.525 -0.03 -0.00    +0.000 HD
DOCKED: ENDROOT
DOCKED: BRANCH   1   3
DOCKED: ATOM      3  C   UNL     1      28.282 -15.837  -1.649 -0.27 -0.00    +0.000 C 
DOCKED: BRANCH   3   7
DOCKED: ATOM      4  C   UNL     1      24.535 -17.860  -0.792 -0.67 -0.00    +0.000 A 
DOCKED: ATOM      5  C   UNL     1      25.754 -18.386  -0.338 -0.58 -0.00    +0.000 A 
DOCKED: ATOM      6  C   UNL     1      26.959 -17.735  -0.611 -0.47 -0.00    +0.000 A 
DOCKED: ATOM      7  C   UNL     1      26.975 -16.554  -1.371 -0.39 -0.00    +0.000 A 
DOCKED: ATOM      8  C   UNL     1      25.756 -16.017  -1.815 -0.47 -0.00    +0.000 A 
DOCKED: ATOM      9  C   UNL     1      24.549 -16.667  -1.542 -0.54 -0.00    +0.000 A 
DOCKED: BRANCH   4  11
DOCKED: ATOM     10  C   UNL     1      22.248 -18.692  -1.332 -0.69 -0.00    +0.000 C 
DOCKED: ATOM     11  C   UNL     1      23.284 -18.596  -0.486 -0.82 -0.00    +0.000 C 
DOCKED: BRANCH  10  13
DOCKED: ATOM     12  O   UNL     1      20.186 -19.746  -1.881 -2.37 -0.00    +0.000 OA
DOCKED: ATOM     13  C   UNL     1      21.015 -19.425  -0.986 -0.85 -0.00    +0.000 C 
DOCKED: ATOM     14  N   UNL     1      20.755 -19.775   0.375 -0.67 -0.00    +0.000 N 
DOCKED: ATOM     15  O   UNL     1      19.628 -20.446   0.708 -0.84 -0.00    +0.000 OA
DOCKED: ATOM     16  H   UNL     1      21.401 -19.525   1.075 -0.44 -0.00    +0.000 HD
DOCKED: ENDBRANCH  10  13
DOCKED: ENDBRANCH   4  11
DOCKED: ENDBRANCH   3   7
DOCKED: ENDBRANCH   1   3
DOCKED: BRANCH   1  17
DOCKED: ATOM     17  C   UNL     1      30.378 -16.537  -0.477 -0.17 -0.00    +0.000 C 
DOCKED: BRANCH  17  18
DOCKED: ATOM     18  C   UNL     1      31.238 -17.784  -0.229 -0.17 -0.00    +0.000 C 
DOCKED: BRANCH  18  19
DOCKED: ATOM     19  O   UNL     1      30.497 -18.954  -0.448 -0.21 -0.00    +0.000 OA
DOCKED: ATOM     20  H   UNL     1      29.587 -18.822  -0.138 -0.60 -0.00    +0.000 HD
DOCKED: ENDBRANCH  18  19
DOCKED: ENDBRANCH  17  18
DOCKED: ENDBRANCH   1  17
DOCKED: BRANCH   1  21
DOCKED: ATOM     21  C   UNL     1      30.212 -16.728  -2.933 -0.19 -0.00    +0.000 C 
DOCKED: BRANCH  21  22
DOCKED: ATOM     22  C   UNL     1      29.256 -17.059  -4.084 -0.07 -0.00    +0.000 C 
DOCKED: BRANCH  22  23
DOCKED: ATOM     23  C   UNL     1      29.280 -15.981  -5.127 -0.30 -0.00    +0.000 A 
DOCKED: ATOM     24  C   UNL     1      29.922 -16.043  -6.361 -0.31 -0.00    +0.000 A 
DOCKED: ATOM     25  N   UNL     1      29.625 -14.953  -7.104 -0.34 -0.00    +0.000 N 
DOCKED: ATOM     26  C   UNL     1      28.790 -14.211  -6.358 -0.31 -0.00    +0.000 A 
DOCKED: ATOM     27  C   UNL     1      28.553 -14.806  -5.145 -0.30 -0.00    +0.000 A 
DOCKED: ATOM     28  C   UNL     1      27.687 -14.241  -4.207 -0.26 -0.00    +0.000 A 
DOCKED: ATOM     29  C   UNL     1      27.060 -13.027  -4.540 -0.25 -0.00    +0.000 A 
DOCKED: ATOM     30  C   UNL     1      27.306 -12.413  -5.788 -0.17 -0.00    +0.000 A 
DOCKED: ATOM     31  C   UNL     1      28.181 -13.009  -6.716 -0.20 -0.00    +0.000 A 
DOCKED: ATOM     32  H   UNL     1      29.954 -14.746  -8.009 -0.35 -0.00    +0.000 HD
DOCKED: ENDBRANCH  22  23
DOCKED: ENDBRANCH  21  22
DOCKED: ENDBRANCH   1  21
DOCKED: TORSDOF 10
DOCKED: TER
DOCKED: ENDMDL
________________________________________________________________________________


	BEGINNING GENETIC ALGORITHM DOCKING 43 of 100
Run: 43 Seed: 1308856508 1675878457 [ Run 43 of 100 GA/GALS ]
Beginning LAMARCKIAN GENETIC ALGORITHM (LGA), with a maximum of 2500000 energy evaluations.

Final-Value: -16.616


	FINAL GENETIC ALGORITHM DOCKED STATE
	_______________________________________________


Detailed state:  trans 27.221 -15.436 -1.239 quatxyzw -0.284136 0.428789 0.856475 -0.043100 center 0.285 0.077 -0.044 ntor 10 28.1980 -156.8109 123.0851 -179.1602 -103.9956 82.1540 -151.6739 109.9847 -4.5723 -50.2463
State:	 27.221 -15.436  -1.239  -0.284  0.429  0.857 -175.060     28.20 -156.81  123.09 -179.16 -104.00   82.15 -151.67  109.98   -4.57  -50.25

DOCKED: MODEL       43
DOCKED: USER    Run = 43
DOCKED: USER    DPF = ligand_dock.biased.dpf
DOCKED: USER  
DOCKED: USER    Estimated Free Energy of Binding    =  -12.00 kcal/mol  [=(1)+(2)+(3)-(4)]
DOCKED: USER    Estimated Inhibition Constant, Ki   =    1.59 nM (nanomolar)  [Temperature = 298.15 K]
DOCKED: USER    
DOCKED: USER    (1) Final Intermolecular Energy     =  -14.99 kcal/mol
DOCKED: USER        vdW + Hbond + desolv Energy     =  -14.99 kcal/mol
DOCKED: USER        Electrostatic Energy            =   +0.00 kcal/mol
DOCKED: USER    (2) Final Total Internal Energy     =   -1.63 kcal/mol
DOCKED: USER    (3) Torsional Free Energy           =   +2.98 kcal/mol
DOCKED: USER    (4) Unbound System's Energy  [=(2)] =   -1.63 kcal/mol
DOCKED: USER    
DOCKED: USER    
DOCKED: USER    NEWDPF move ligand.pdbqt
DOCKED: USER    NEWDPF about 0.285000 0.077000 -0.044000
DOCKED: USER    NEWDPF tran0 27.220530 -15.435783 -1.238787
DOCKED: USER    NEWDPF quaternion0 -0.284136 0.428789 0.856475 -0.043100
DOCKED: USER    NEWDPF axisangle0 -0.284400 0.429188 0.857272 -175.059535
DOCKED: USER    NEWDPF quat0 -0.284400 0.429188 0.857272 -175.059535
DOCKED: USER    NEWDPF dihe0 28.20 -156.81 123.09 -179.16 -104.00 82.15 -151.67 109.98 -4.57 -50.25 
DOCKED: USER  keepresnum = 1 
DOCKED: USER  
DOCKED: REMARK  Name = 
DOCKED: REMARK  10 active torsions:
DOCKED: REMARK  status: ('A' for Active; 'I' for Inactive)
DOCKED: REMARK    1  A    between atoms: C_2  and  C_5
DOCKED: REMARK    2  A    between atoms: C_6  and  C_7
DOCKED: REMARK    3  A    between atoms: C_10  and  C_11
DOCKED: REMARK    4  A    between atoms: C_11  and  N_12
DOCKED: REMARK    5  A    between atoms: N_12  and  C_13
DOCKED: REMARK    6  A    between atoms: N_12  and  C_16
DOCKED: REMARK    7  A    between atoms: C_13  and  C_14
DOCKED: REMARK    8  A    between atoms: C_14  and  O_15
DOCKED: REMARK    9  A    between atoms: C_16  and  C_17
DOCKED: REMARK   10  A    between atoms: C_17  and  C_18
DOCKED: REMARK                            x       y       z     vdW  Elec       q    Type
DOCKED: REMARK                         _______ _______ _______ _____ _____    ______ ____
DOCKED: USER                              x       y       z     vdW  Elec       q    Type
DOCKED: USER                           _______ _______ _______ _____ _____    ______ ____
DOCKED: ROOT
DOCKED: ATOM      1  N   UNL     1      28.427 -15.074  -0.793 -0.17 -0.00    +0.000 N 
DOCKED: ATOM      2  H   UNL     1      29.375 -15.410  -0.627 -0.00 -0.00    +0.000 HD
DOCKED: ENDROOT
DOCKED: BRANCH   1   3
DOCKED: ATOM      3  C   UNL     1      27.894 -16.020  -1.807 -0.31 -0.00    +0.000 C 
DOCKED: BRANCH   3   7
DOCKED: ATOM      4  C   UNL     1      24.189 -18.019  -0.736 -0.69 -0.00    +0.000 A 
DOCKED: ATOM      5  C   UNL     1      24.170 -16.774  -1.382 -0.54 -0.00    +0.000 A 
DOCKED: ATOM      6  C   UNL     1      25.361 -16.132  -1.729 -0.49 -0.00    +0.000 A 
DOCKED: ATOM      7  C   UNL     1      26.601 -16.709  -1.411 -0.43 -0.00    +0.000 A 
DOCKED: ATOM      8  C   UNL     1      26.624 -17.961  -0.778 -0.46 -0.00    +0.000 A 
DOCKED: ATOM      9  C   UNL     1      25.433 -18.606  -0.430 -0.53 -0.00    +0.000 A 
DOCKED: BRANCH   4  11
DOCKED: ATOM     10  C   UNL     1      21.916 -18.900  -1.259 -0.74 -0.00    +0.000 C 
DOCKED: ATOM     11  C   UNL     1      22.897 -18.654  -0.378 -0.82 -0.00    +0.000 C 
DOCKED: BRANCH  10  13
DOCKED: ATOM     12  O   UNL     1      19.734 -19.736  -1.713 -2.27 -0.00    +0.000 OA
DOCKED: ATOM     13  C   UNL     1      20.640 -19.524  -0.861 -0.88 -0.00    +0.000 C 
DOCKED: ATOM     14  N   UNL     1      20.424 -19.892   0.503 -0.70 -0.00    +0.000 N 
DOCKED: ATOM     15  O   UNL     1      19.258 -20.464   0.884 -0.80 -0.00    +0.000 OA
DOCKED: ATOM     16  H   UNL     1      21.129 -19.727   1.171 -0.48 -0.00    +0.000 HD
DOCKED: ENDBRANCH  10  13
DOCKED: ENDBRANCH   4  11
DOCKED: ENDBRANCH   3   7
DOCKED: ENDBRANCH   1   3
DOCKED: BRANCH   1  17
DOCKED: ATOM     17  C   UNL     1      27.774 -15.147   0.533 -0.29 -0.00    +0.000 C 
DOCKED: BRANCH  17  18
DOCKED: ATOM     18  C   UNL     1      28.146 -13.947   1.415 -0.25 -0.00    +0.000 C 
DOCKED: BRANCH  18  19
DOCKED: ATOM     19  O   UNL     1      29.058 -14.323   2.411 -0.27 -0.00    +0.000 OA
DOCKED: ATOM     20  H   UNL     1      28.886 -15.240   2.677 -1.98 -0.00    +0.000 HD
DOCKED: ENDBRANCH  18  19
DOCKED: ENDBRANCH  17  18
DOCKED: ENDBRANCH   1  17
DOCKED: BRANCH   1  21
DOCKED: ATOM     21  C   UNL     1      28.563 -13.685  -1.293 -0.11 -0.00    +0.000 C 
DOCKED: BRANCH  21  22
DOCKED: ATOM     22  C   UNL     1      27.647 -13.458  -2.500 -0.17 -0.00    +0.000 C 
DOCKED: BRANCH  22  23
DOCKED: ATOM     23  C   UNL     1      27.150 -12.043  -2.537 -0.09 -0.00    +0.000 A 
DOCKED: ATOM     24  C   UNL     1      27.472 -11.033  -1.633 -0.10 -0.00    +0.000 A 
DOCKED: ATOM     25  N   UNL     1      26.959  -9.851  -2.042 -0.12 -0.00    +0.000 N 
DOCKED: ATOM     26  C   UNL     1      26.328 -10.101  -3.202 -0.12 -0.00    +0.000 A 
DOCKED: ATOM     27  C   UNL     1      26.425 -11.427  -3.540 -0.05 -0.00    +0.000 A 
DOCKED: ATOM     28  C   UNL     1      25.878 -11.926  -4.723 -0.30 -0.00    +0.000 A 
DOCKED: ATOM     29  C   UNL     1      25.211 -11.021  -5.569 -0.32 -0.00    +0.000 A 
DOCKED: ATOM     30  C   UNL     1      25.111  -9.656  -5.221 -0.28 -0.00    +0.000 A 
DOCKED: ATOM     31  C   UNL     1      25.676  -9.182  -4.023 -0.20 -0.00    +0.000 A 
DOCKED: ATOM     32  H   UNL     1      27.032  -8.984  -1.582 +0.00 -0.00    +0.000 HD
DOCKED: ENDBRANCH  22  23
DOCKED: ENDBRANCH  21  22
DOCKED: ENDBRANCH   1  21
DOCKED: TORSDOF 10
DOCKED: TER
DOCKED: ENDMDL
________________________________________________________________________________


	BEGINNING GENETIC ALGORITHM DOCKING 44 of 100
Run: 44 Seed: 164672290 676125649 [ Run 44 of 100 GA/GALS ]
Beginning LAMARCKIAN GENETIC ALGORITHM (LGA), with a maximum of 2500000 energy evaluations.

Final-Value: -17.994


	FINAL GENETIC ALGORITHM DOCKED STATE
	_______________________________________________


Detailed state:  trans 27.139 -15.821 -1.989 quatxyzw -0.429766 0.670761 0.604067 0.022003 center 0.285 0.077 -0.044 ntor 10 -135.7128 -83.0256 26.9602 149.5589 57.1346 -28.2432 -71.2912 135.5837 -179.6460 -50.0944
State:	 27.139 -15.821  -1.989  -0.430  0.671  0.604 177.478   -135.71  -83.03   26.96  149.56   57.13  -28.24  -71.29  135.58 -179.65  -50.09

DOCKED: MODEL       44
DOCKED: USER    Run = 44
DOCKED: USER    DPF = ligand_dock.biased.dpf
DOCKED: USER  
DOCKED: USER    Estimated Free Energy of Binding    =  -12.57 kcal/mol  [=(1)+(2)+(3)-(4)]
DOCKED: USER    Estimated Inhibition Constant, Ki   =  608.38 pM (picomolar)  [Temperature = 298.15 K]
DOCKED: USER    
DOCKED: USER    (1) Final Intermolecular Energy     =  -15.56 kcal/mol
DOCKED: USER        vdW + Hbond + desolv Energy     =  -15.56 kcal/mol
DOCKED: USER        Electrostatic Energy            =   +0.00 kcal/mol
DOCKED: USER    (2) Final Total Internal Energy     =   -2.44 kcal/mol
DOCKED: USER    (3) Torsional Free Energy           =   +2.98 kcal/mol
DOCKED: USER    (4) Unbound System's Energy  [=(2)] =   -2.44 kcal/mol
DOCKED: USER    
DOCKED: USER    
DOCKED: USER    NEWDPF move ligand.pdbqt
DOCKED: USER    NEWDPF about 0.285000 0.077000 -0.044000
DOCKED: USER    NEWDPF tran0 27.139459 -15.821476 -1.988721
DOCKED: USER    NEWDPF quaternion0 -0.429766 0.670761 0.604067 0.022003
DOCKED: USER    NEWDPF axisangle0 -0.429870 0.670923 0.604214 177.478463
DOCKED: USER    NEWDPF quat0 -0.429870 0.670923 0.604214 177.478463
DOCKED: USER    NEWDPF dihe0 -135.71 -83.03 26.96 149.56 57.13 -28.24 -71.29 135.58 -179.65 -50.09 
DOCKED: USER  keepresnum = 1 
DOCKED: USER  
DOCKED: REMARK  Name = 
DOCKED: REMARK  10 active torsions:
DOCKED: REMARK  status: ('A' for Active; 'I' for Inactive)
DOCKED: REMARK    1  A    between atoms: C_2  and  C_5
DOCKED: REMARK    2  A    between atoms: C_6  and  C_7
DOCKED: REMARK    3  A    between atoms: C_10  and  C_11
DOCKED: REMARK    4  A    between atoms: C_11  and  N_12
DOCKED: REMARK    5  A    between atoms: N_12  and  C_13
DOCKED: REMARK    6  A    between atoms: N_12  and  C_16
DOCKED: REMARK    7  A    between atoms: C_13  and  C_14
DOCKED: REMARK    8  A    between atoms: C_14  and  O_15
DOCKED: REMARK    9  A    between atoms: C_16  and  C_17
DOCKED: REMARK   10  A    between atoms: C_17  and  C_18
DOCKED: REMARK                            x       y       z     vdW  Elec       q    Type
DOCKED: REMARK                         _______ _______ _______ _____ _____    ______ ____
DOCKED: USER                              x       y       z     vdW  Elec       q    Type
DOCKED: USER                           _______ _______ _______ _____ _____    ______ ____
DOCKED: ROOT
DOCKED: ATOM      1  N   UNL     1      28.153 -15.053  -1.579 -0.17 -0.00    +0.000 N 
DOCKED: ATOM      2  H   UNL     1      28.986 -15.037  -0.991 +0.00 -0.00    +0.000 HD
DOCKED: ENDROOT
DOCKED: BRANCH   1   3
DOCKED: ATOM      3  C   UNL     1      27.937 -16.500  -1.842 -0.34 -0.00    +0.000 C 
DOCKED: BRANCH   3   7
DOCKED: ATOM      4  C   UNL     1      23.980 -17.906  -0.732 -0.70 -0.00    +0.000 A 
DOCKED: ATOM      5  C   UNL     1      25.020 -17.876   0.209 -0.33 -0.00    +0.000 A 
DOCKED: ATOM      6  C   UNL     1      26.292 -17.421  -0.147 -0.49 -0.00    +0.000 A 
DOCKED: ATOM      7  C   UNL     1      26.561 -17.013  -1.463 -0.44 -0.00    +0.000 A 
DOCKED: ATOM      8  C   UNL     1      25.520 -17.028  -2.404 -0.37 -0.00    +0.000 A 
DOCKED: ATOM      9  C   UNL     1      24.246 -17.483  -2.050 -0.34 -0.00    +0.000 A 
DOCKED: BRANCH   4  11
DOCKED: ATOM     10  C   UNL     1      21.839 -19.130  -1.095 -0.80 -0.00    +0.000 C 
DOCKED: ATOM     11  C   UNL     1      22.651 -18.409  -0.308 -0.83 -0.00    +0.000 C 
DOCKED: BRANCH  10  13
DOCKED: ATOM     12  O   UNL     1      19.564 -19.730  -1.455 -2.12 -0.00    +0.000 OA
DOCKED: ATOM     13  C   UNL     1      20.518 -19.604  -0.640 -0.87 -0.00    +0.000 C 
DOCKED: ATOM     14  N   UNL     1      20.314 -19.921   0.739 -0.69 -0.00    +0.000 N 
DOCKED: ATOM     15  O   UNL     1      19.108 -20.356   1.172 -0.77 -0.00    +0.000 OA
DOCKED: ATOM     16  H   UNL     1      21.057 -19.823   1.378 -0.51 -0.00    +0.000 HD
DOCKED: ENDBRANCH  10  13
DOCKED: ENDBRANCH   4  11
DOCKED: ENDBRANCH   3   7
DOCKED: ENDBRANCH   1   3
DOCKED: BRANCH   1  17
DOCKED: ATOM     17  C   UNL     1      27.108 -14.406  -0.754 -0.28 -0.00    +0.000 C 
DOCKED: BRANCH  17  18
DOCKED: ATOM     18  C   UNL     1      27.519 -14.332   0.724 -0.29 -0.00    +0.000 C 
DOCKED: BRANCH  18  19
DOCKED: ATOM     19  O   UNL     1      28.326 -15.423   1.073 -0.11 -0.00    +0.000 OA
DOCKED: ATOM     20  H   UNL     1      28.780 -15.235   1.909 -1.53 -0.00    +0.000 HD
DOCKED: ENDBRANCH  18  19
DOCKED: ENDBRANCH  17  18
DOCKED: ENDBRANCH   1  17
DOCKED: BRANCH   1  21
DOCKED: ATOM     21  C   UNL     1      28.492 -14.275  -2.794 -0.15 -0.00    +0.000 C 
DOCKED: BRANCH  21  22
DOCKED: ATOM     22  C   UNL     1      27.530 -14.619  -3.936 -0.33 -0.00    +0.000 C 
DOCKED: BRANCH  22  23
DOCKED: ATOM     23  C   UNL     1      28.282 -14.889  -5.207 -0.34 -0.00    +0.000 A 
DOCKED: ATOM     24  C   UNL     1      28.311 -14.074  -6.335 -0.29 -0.00    +0.000 A 
DOCKED: ATOM     25  N   UNL     1      29.194 -14.554  -7.241 -0.33 -0.00    +0.000 N 
DOCKED: ATOM     26  C   UNL     1      29.732 -15.654  -6.690 -0.28 -0.00    +0.000 A 
DOCKED: ATOM     27  C   UNL     1      29.203 -15.891  -5.447 -0.31 -0.00    +0.000 A 
DOCKED: ATOM     28  C   UNL     1      29.631 -16.961  -4.658 -0.24 -0.00    +0.000 A 
DOCKED: ATOM     29  C   UNL     1      30.628 -17.804  -5.182 -0.26 -0.00    +0.000 A 
DOCKED: ATOM     30  C   UNL     1      31.170 -17.561  -6.463 -0.25 -0.00    +0.000 A 
DOCKED: ATOM     31  C   UNL     1      30.722 -16.471  -7.232 -0.28 -0.00    +0.000 A 
DOCKED: ATOM     32  H   UNL     1      29.399 -14.172  -8.126 -0.50 -0.00    +0.000 HD
DOCKED: ENDBRANCH  22  23
DOCKED: ENDBRANCH  21  22
DOCKED: ENDBRANCH   1  21
DOCKED: TORSDOF 10
DOCKED: TER
DOCKED: ENDMDL
________________________________________________________________________________


	BEGINNING GENETIC ALGORITHM DOCKING 45 of 100
Run: 45 Seed: 2042610127 125792295 [ Run 45 of 100 GA/GALS ]
Beginning LAMARCKIAN GENETIC ALGORITHM (LGA), with a maximum of 2500000 energy evaluations.

Final-Value: -17.296


	FINAL GENETIC ALGORITHM DOCKED STATE
	_______________________________________________


Detailed state:  trans 28.390 -14.671 -1.349 quatxyzw -0.660276 -0.024397 -0.393968 -0.638928 center 0.285 0.077 -0.044 ntor 10 -46.0580 -32.9002 5.5785 -130.4436 177.3721 113.6407 -145.0930 82.1822 -59.2880 154.2018
State:	 28.390 -14.671  -1.349  -0.858 -0.032 -0.512 -100.576    -46.06  -32.90    5.58 -130.44  177.37  113.64 -145.09   82.18  -59.29  154.20

DOCKED: MODEL       45
DOCKED: USER    Run = 45
DOCKED: USER    DPF = ligand_dock.biased.dpf
DOCKED: USER  
DOCKED: USER    Estimated Free Energy of Binding    =  -12.13 kcal/mol  [=(1)+(2)+(3)-(4)]
DOCKED: USER    Estimated Inhibition Constant, Ki   =    1.29 nM (nanomolar)  [Temperature = 298.15 K]
DOCKED: USER    
DOCKED: USER    (1) Final Intermolecular Energy     =  -15.11 kcal/mol
DOCKED: USER        vdW + Hbond + desolv Energy     =  -15.11 kcal/mol
DOCKED: USER        Electrostatic Energy            =   +0.00 kcal/mol
DOCKED: USER    (2) Final Total Internal Energy     =   -2.19 kcal/mol
DOCKED: USER    (3) Torsional Free Energy           =   +2.98 kcal/mol
DOCKED: USER    (4) Unbound System's Energy  [=(2)] =   -2.19 kcal/mol
DOCKED: USER    
DOCKED: USER    
DOCKED: USER    NEWDPF move ligand.pdbqt
DOCKED: USER    NEWDPF about 0.285000 0.077000 -0.044000
DOCKED: USER    NEWDPF tran0 28.389814 -14.671088 -1.348567
DOCKED: USER    NEWDPF quaternion0 -0.660276 -0.024397 -0.393968 -0.638928
DOCKED: USER    NEWDPF axisangle0 -0.858320 -0.031714 -0.512134 -100.576073
DOCKED: USER    NEWDPF quat0 -0.858320 -0.031714 -0.512134 -100.576073
DOCKED: USER    NEWDPF dihe0 -46.06 -32.90 5.58 -130.44 177.37 113.64 -145.09 82.18 -59.29 154.20 
DOCKED: USER  keepresnum = 1 
DOCKED: USER  
DOCKED: REMARK  Name = 
DOCKED: REMARK  10 active torsions:
DOCKED: REMARK  status: ('A' for Active; 'I' for Inactive)
DOCKED: REMARK    1  A    between atoms: C_2  and  C_5
DOCKED: REMARK    2  A    between atoms: C_6  and  C_7
DOCKED: REMARK    3  A    between atoms: C_10  and  C_11
DOCKED: REMARK    4  A    between atoms: C_11  and  N_12
DOCKED: REMARK    5  A    between atoms: N_12  and  C_13
DOCKED: REMARK    6  A    between atoms: N_12  and  C_16
DOCKED: REMARK    7  A    between atoms: C_13  and  C_14
DOCKED: REMARK    8  A    between atoms: C_14  and  O_15
DOCKED: REMARK    9  A    between atoms: C_16  and  C_17
DOCKED: REMARK   10  A    between atoms: C_17  and  C_18
DOCKED: REMARK                            x       y       z     vdW  Elec       q    Type
DOCKED: REMARK                         _______ _______ _______ _____ _____    ______ ____
DOCKED: USER                              x       y       z     vdW  Elec       q    Type
DOCKED: USER                           _______ _______ _______ _____ _____    ______ ____
DOCKED: ROOT
DOCKED: ATOM      1  N   UNL     1      27.308 -14.054  -1.831 -0.19 -0.00    +0.000 N 
DOCKED: ATOM      2  H   UNL     1      26.462 -14.192  -2.384 -0.00 -0.00    +0.000 HD
DOCKED: ENDROOT
DOCKED: BRANCH   1   3
DOCKED: ATOM      3  C   UNL     1      27.646 -15.423  -1.362 -0.28 -0.00    +0.000 C 
DOCKED: BRANCH   3   7
DOCKED: ATOM      4  C   UNL     1      24.248 -18.070  -0.811 -0.69 -0.00    +0.000 A 
DOCKED: ATOM      5  C   UNL     1      24.239 -17.094  -1.818 -0.49 -0.00    +0.000 A 
DOCKED: ATOM      6  C   UNL     1      25.333 -16.244  -1.997 -0.51 -0.00    +0.000 A 
DOCKED: ATOM      7  C   UNL     1      26.451 -16.333  -1.152 -0.42 -0.00    +0.000 A 
DOCKED: ATOM      8  C   UNL     1      26.469 -17.318  -0.153 -0.48 -0.00    +0.000 A 
DOCKED: ATOM      9  C   UNL     1      25.375 -18.170   0.028 -0.58 -0.00    +0.000 A 
DOCKED: BRANCH   4  11
DOCKED: ATOM     10  C   UNL     1      21.826 -18.603  -1.067 -0.81 -0.00    +0.000 C 
DOCKED: ATOM     11  C   UNL     1      23.056 -18.941  -0.653 -0.81 -0.00    +0.000 C 
DOCKED: BRANCH  10  13
DOCKED: ATOM     12  O   UNL     1      19.880 -19.735  -1.841 -2.40 -0.00    +0.000 OA
DOCKED: ATOM     13  C   UNL     1      20.663 -19.493  -0.882 -0.88 -0.00    +0.000 C 
DOCKED: ATOM     14  N   UNL     1      20.418 -20.085   0.396 -0.70 -0.00    +0.000 N 
DOCKED: ATOM     15  O   UNL     1      19.355 -20.902   0.581 -0.87 -0.00    +0.000 OA
DOCKED: ATOM     16  H   UNL     1      21.027 -19.897   1.146 -0.51 -0.00    +0.000 HD
DOCKED: ENDBRANCH  10  13
DOCKED: ENDBRANCH   4  11
DOCKED: ENDBRANCH   3   7
DOCKED: ENDBRANCH   1   3
DOCKED: BRANCH   1  17
DOCKED: ATOM     17  C   UNL     1      28.276 -13.463  -2.783 -0.13 -0.00    +0.000 C 
DOCKED: BRANCH  17  18
DOCKED: ATOM     18  C   UNL     1      28.136 -14.071  -4.185 -0.23 -0.00    +0.000 C 
DOCKED: BRANCH  18  19
DOCKED: ATOM     19  O   UNL     1      26.895 -14.706  -4.332 -0.44 -0.00    +0.000 OA
DOCKED: ATOM     20  H   UNL     1      27.021 -15.668  -4.323 -0.02 -0.00    +0.000 HD
DOCKED: ENDBRANCH  18  19
DOCKED: ENDBRANCH  17  18
DOCKED: ENDBRANCH   1  17
DOCKED: BRANCH   1  21
DOCKED: ATOM     21  C   UNL     1      26.937 -13.128  -0.736 -0.20 -0.00    +0.000 C 
DOCKED: BRANCH  21  22
DOCKED: ATOM     22  C   UNL     1      26.859 -13.879   0.597 -0.30 -0.00    +0.000 C 
DOCKED: BRANCH  22  23
DOCKED: ATOM     23  C   UNL     1      27.115 -12.952   1.750 -0.28 -0.00    +0.000 A 
DOCKED: ATOM     24  C   UNL     1      26.776 -11.603   1.813 -0.29 +0.00    +0.000 A 
DOCKED: ATOM     25  N   UNL     1      27.031 -11.109   3.047 -0.31 +0.00    +0.000 N 
DOCKED: ATOM     26  C   UNL     1      27.512 -12.137   3.766 -0.23 +0.00    +0.000 A 
DOCKED: ATOM     27  C   UNL     1      27.576 -13.280   3.012 -0.32 -0.00    +0.000 A 
DOCKED: ATOM     28  C   UNL     1      28.012 -14.492   3.550 -0.41 -0.00    +0.000 A 
DOCKED: ATOM     29  C   UNL     1      28.394 -14.509   4.903 -0.50 -0.00    +0.000 A 
DOCKED: ATOM     30  C   UNL     1      28.329 -13.331   5.680 -0.41 -0.00    +0.000 A 
DOCKED: ATOM     31  C   UNL     1      27.881 -12.125   5.110 -0.35 +0.00    +0.000 A 
DOCKED: ATOM     32  H   UNL     1      26.891 -10.184   3.353 -0.03 +0.00    +0.000 HD
DOCKED: ENDBRANCH  22  23
DOCKED: ENDBRANCH  21  22
DOCKED: ENDBRANCH   1  21
DOCKED: TORSDOF 10
DOCKED: TER
DOCKED: ENDMDL
________________________________________________________________________________


	BEGINNING GENETIC ALGORITHM DOCKING 46 of 100
Run: 46 Seed: 985169812 733829839 [ Run 46 of 100 GA/GALS ]
Beginning LAMARCKIAN GENETIC ALGORITHM (LGA), with a maximum of 2500000 energy evaluations.

Final-Value: -17.351


	FINAL GENETIC ALGORITHM DOCKED STATE
	_______________________________________________


Detailed state:  trans 29.589 -14.579 -0.862 quatxyzw -0.073456 0.628801 0.254149 -0.731178 center 0.285 0.077 -0.044 ntor 10 25.3196 8.4302 31.1001 -161.8912 178.8342 179.5494 -179.4491 37.7607 38.2687 -179.7479
State:	 29.589 -14.579  -0.862  -0.108  0.922  0.373 -86.029     25.32    8.43   31.10 -161.89  178.83  179.55 -179.45   37.76   38.27 -179.75

DOCKED: MODEL       46
DOCKED: USER    Run = 46
DOCKED: USER    DPF = ligand_dock.biased.dpf
DOCKED: USER  
DOCKED: USER    Estimated Free Energy of Binding    =  -12.13 kcal/mol  [=(1)+(2)+(3)-(4)]
DOCKED: USER    Estimated Inhibition Constant, Ki   =    1.28 nM (nanomolar)  [Temperature = 298.15 K]
DOCKED: USER    
DOCKED: USER    (1) Final Intermolecular Energy     =  -15.12 kcal/mol
DOCKED: USER        vdW + Hbond + desolv Energy     =  -15.12 kcal/mol
DOCKED: USER        Electrostatic Energy            =   +0.00 kcal/mol
DOCKED: USER    (2) Final Total Internal Energy     =   -2.23 kcal/mol
DOCKED: USER    (3) Torsional Free Energy           =   +2.98 kcal/mol
DOCKED: USER    (4) Unbound System's Energy  [=(2)] =   -2.23 kcal/mol
DOCKED: USER    
DOCKED: USER    
DOCKED: USER    NEWDPF move ligand.pdbqt
DOCKED: USER    NEWDPF about 0.285000 0.077000 -0.044000
DOCKED: USER    NEWDPF tran0 29.589415 -14.578738 -0.862397
DOCKED: USER    NEWDPF quaternion0 -0.073456 0.628801 0.254149 -0.731178
DOCKED: USER    NEWDPF axisangle0 -0.107678 0.921744 0.372550 -86.029445
DOCKED: USER    NEWDPF quat0 -0.107678 0.921744 0.372550 -86.029445
DOCKED: USER    NEWDPF dihe0 25.32 8.43 31.10 -161.89 178.83 179.55 -179.45 37.76 38.27 -179.75 
DOCKED: USER  keepresnum = 1 
DOCKED: USER  
DOCKED: REMARK  Name = 
DOCKED: REMARK  10 active torsions:
DOCKED: REMARK  status: ('A' for Active; 'I' for Inactive)
DOCKED: REMARK    1  A    between atoms: C_2  and  C_5
DOCKED: REMARK    2  A    between atoms: C_6  and  C_7
DOCKED: REMARK    3  A    between atoms: C_10  and  C_11
DOCKED: REMARK    4  A    between atoms: C_11  and  N_12
DOCKED: REMARK    5  A    between atoms: N_12  and  C_13
DOCKED: REMARK    6  A    between atoms: N_12  and  C_16
DOCKED: REMARK    7  A    between atoms: C_13  and  C_14
DOCKED: REMARK    8  A    between atoms: C_14  and  O_15
DOCKED: REMARK    9  A    between atoms: C_16  and  C_17
DOCKED: REMARK   10  A    between atoms: C_17  and  C_18
DOCKED: REMARK                            x       y       z     vdW  Elec       q    Type
DOCKED: REMARK                         _______ _______ _______ _____ _____    ______ ____
DOCKED: USER                              x       y       z     vdW  Elec       q    Type
DOCKED: USER                           _______ _______ _______ _____ _____    ______ ____
DOCKED: ROOT
DOCKED: ATOM      1  N   UNL     1      29.570 -15.220   0.310 -0.16 -0.00    +0.000 N 
DOCKED: ATOM      2  H   UNL     1      28.960 -15.683   0.982 -0.72 -0.00    +0.000 HD
DOCKED: ENDROOT
DOCKED: BRANCH   1   3
DOCKED: ATOM      3  C   UNL     1      28.798 -15.273  -0.959 -0.19 -0.00    +0.000 C 
DOCKED: BRANCH   3   7
DOCKED: ATOM      4  C   UNL     1      25.088 -17.525  -0.784 -0.61 -0.00    +0.000 A 
DOCKED: ATOM      5  C   UNL     1      25.118 -16.237  -1.338 -0.50 -0.00    +0.000 A 
DOCKED: ATOM      6  C   UNL     1      26.311 -15.513  -1.397 -0.37 -0.00    +0.000 A 
DOCKED: ATOM      7  C   UNL     1      27.499 -16.052  -0.875 -0.32 -0.00    +0.000 A 
DOCKED: ATOM      8  C   UNL     1      27.475 -17.346  -0.333 -0.37 -0.00    +0.000 A 
DOCKED: ATOM      9  C   UNL     1      26.282 -18.072  -0.274 -0.57 -0.00    +0.000 A 
DOCKED: BRANCH   4  11
DOCKED: ATOM     10  C   UNL     1      22.598 -17.642  -0.779 -0.77 -0.00    +0.000 C 
DOCKED: ATOM     11  C   UNL     1      23.793 -18.248  -0.734 -0.81 -0.00    +0.000 C 
DOCKED: BRANCH  10  13
DOCKED: ATOM     12  O   UNL     1      20.246 -17.860  -1.071 -2.16 -0.00    +0.000 OA
DOCKED: ATOM     13  C   UNL     1      21.331 -18.395  -0.715 -0.83 -0.00    +0.000 C 
DOCKED: ATOM     14  N   UNL     1      21.330 -19.745  -0.245 -0.69 -0.00    +0.000 N 
DOCKED: ATOM     15  O   UNL     1      20.176 -20.449  -0.180 -1.25 -0.00    +0.000 OA
DOCKED: ATOM     16  H   UNL     1      22.176 -20.166   0.034 -0.54 -0.00    +0.000 HD
DOCKED: ENDBRANCH  10  13
DOCKED: ENDBRANCH   4  11
DOCKED: ENDBRANCH   3   7
DOCKED: ENDBRANCH   1   3
DOCKED: BRANCH   1  17
DOCKED: ATOM     17  C   UNL     1      29.766 -13.862   0.865 -0.12 -0.00    +0.000 C 
DOCKED: BRANCH  17  18
DOCKED: ATOM     18  C   UNL     1      28.792 -13.574   2.016 -0.21 -0.00    +0.000 C 
DOCKED: BRANCH  18  19
DOCKED: ATOM     19  O   UNL     1      28.967 -14.494   3.060 -0.34 -0.00    +0.000 OA
DOCKED: ATOM     20  H   UNL     1      29.192 -15.362   2.691 -1.96 -0.00    +0.000 HD
DOCKED: ENDBRANCH  18  19
DOCKED: ENDBRANCH  17  18
DOCKED: ENDBRANCH   1  17
DOCKED: BRANCH   1  21
DOCKED: ATOM     21  C   UNL     1      30.821 -16.014   0.274 -0.14 -0.00    +0.000 C 
DOCKED: BRANCH  21  22
DOCKED: ATOM     22  C   UNL     1      30.539 -17.434  -0.228 -0.13 -0.00    +0.000 C 
DOCKED: BRANCH  22  23
DOCKED: ATOM     23  C   UNL     1      31.311 -17.722  -1.483 -0.13 -0.00    +0.000 A 
DOCKED: ATOM     24  C   UNL     1      32.515 -18.417  -1.568 -0.07 -0.00    +0.000 A 
DOCKED: ATOM     25  N   UNL     1      32.858 -18.610  -2.862 -0.05 -0.00    +0.000 N 
DOCKED: ATOM     26  C   UNL     1      31.876 -18.057  -3.593 -0.10 -0.00    +0.000 A 
DOCKED: ATOM     27  C   UNL     1      30.911 -17.508  -2.789 -0.15 -0.00    +0.000 A 
DOCKED: ATOM     28  C   UNL     1      29.769 -16.904  -3.318 -0.20 -0.00    +0.000 A 
DOCKED: ATOM     29  C   UNL     1      29.635 -16.870  -4.718 -0.25 -0.00    +0.000 A 
DOCKED: ATOM     30  C   UNL     1      30.629 -17.434  -5.546 -0.27 -0.00    +0.000 A 
DOCKED: ATOM     31  C   UNL     1      31.768 -18.040  -4.983 -0.13 -0.00    +0.000 A 
DOCKED: ATOM     32  H   UNL     1      33.665 -19.063  -3.198 +0.00 -0.00    +0.000 HD
DOCKED: ENDBRANCH  22  23
DOCKED: ENDBRANCH  21  22
DOCKED: ENDBRANCH   1  21
DOCKED: TORSDOF 10
DOCKED: TER
DOCKED: ENDMDL
________________________________________________________________________________


	BEGINNING GENETIC ALGORITHM DOCKING 47 of 100
Run: 47 Seed: 1133013635 2015550995 [ Run 47 of 100 GA/GALS ]
Beginning LAMARCKIAN GENETIC ALGORITHM (LGA), with a maximum of 2500000 energy evaluations.

Final-Value: -17.238


	FINAL GENETIC ALGORITHM DOCKED STATE
	_______________________________________________


Detailed state:  trans 28.776 -15.391 -1.752 quatxyzw -0.533179 -0.694073 -0.397603 0.275490 center 0.285 0.077 -0.044 ntor 10 18.2671 -89.0205 75.1618 -174.3055 -132.9958 -138.5323 -134.3733 -171.1681 155.1084 161.5490
State:	 28.776 -15.391  -1.752  -0.555 -0.722 -0.414 148.018     18.27  -89.02   75.16 -174.31 -133.00 -138.53 -134.37 -171.17  155.11  161.55

DOCKED: MODEL       47
DOCKED: USER    Run = 47
DOCKED: USER    DPF = ligand_dock.biased.dpf
DOCKED: USER  
DOCKED: USER    Estimated Free Energy of Binding    =  -12.07 kcal/mol  [=(1)+(2)+(3)-(4)]
DOCKED: USER    Estimated Inhibition Constant, Ki   =    1.42 nM (nanomolar)  [Temperature = 298.15 K]
DOCKED: USER    
DOCKED: USER    (1) Final Intermolecular Energy     =  -15.05 kcal/mol
DOCKED: USER        vdW + Hbond + desolv Energy     =  -15.05 kcal/mol
DOCKED: USER        Electrostatic Energy            =   +0.00 kcal/mol
DOCKED: USER    (2) Final Total Internal Energy     =   -2.19 kcal/mol
DOCKED: USER    (3) Torsional Free Energy           =   +2.98 kcal/mol
DOCKED: USER    (4) Unbound System's Energy  [=(2)] =   -2.19 kcal/mol
DOCKED: USER    
DOCKED: USER    
DOCKED: USER    NEWDPF move ligand.pdbqt
DOCKED: USER    NEWDPF about 0.285000 0.077000 -0.044000
DOCKED: USER    NEWDPF tran0 28.776462 -15.391353 -1.751953
DOCKED: USER    NEWDPF quaternion0 -0.533179 -0.694073 -0.397603 0.275490
DOCKED: USER    NEWDPF axisangle0 -0.554642 -0.722011 -0.413608 148.017617
DOCKED: USER    NEWDPF quat0 -0.554642 -0.722011 -0.413608 148.017617
DOCKED: USER    NEWDPF dihe0 18.27 -89.02 75.16 -174.31 -133.00 -138.53 -134.37 -171.17 155.11 161.55 
DOCKED: USER  keepresnum = 1 
DOCKED: USER  
DOCKED: REMARK  Name = 
DOCKED: REMARK  10 active torsions:
DOCKED: REMARK  status: ('A' for Active; 'I' for Inactive)
DOCKED: REMARK    1  A    between atoms: C_2  and  C_5
DOCKED: REMARK    2  A    between atoms: C_6  and  C_7
DOCKED: REMARK    3  A    between atoms: C_10  and  C_11
DOCKED: REMARK    4  A    between atoms: C_11  and  N_12
DOCKED: REMARK    5  A    between atoms: N_12  and  C_13
DOCKED: REMARK    6  A    between atoms: N_12  and  C_16
DOCKED: REMARK    7  A    between atoms: C_13  and  C_14
DOCKED: REMARK    8  A    between atoms: C_14  and  O_15
DOCKED: REMARK    9  A    between atoms: C_16  and  C_17
DOCKED: REMARK   10  A    between atoms: C_17  and  C_18
DOCKED: REMARK                            x       y       z     vdW  Elec       q    Type
DOCKED: REMARK                         _______ _______ _______ _____ _____    ______ ____
DOCKED: USER                              x       y       z     vdW  Elec       q    Type
DOCKED: USER                           _______ _______ _______ _____ _____    ______ ____
DOCKED: ROOT
DOCKED: ATOM      1  N   UNL     1      28.941 -16.689  -2.024 -0.25 -0.00    +0.000 N 
DOCKED: ATOM      2  H   UNL     1      28.699 -17.630  -1.714 -0.03 -0.00    +0.000 HD
DOCKED: ENDROOT
DOCKED: BRANCH   1   3
DOCKED: ATOM      3  C   UNL     1      27.875 -15.840  -1.431 -0.30 -0.00    +0.000 C 
DOCKED: BRANCH   3   7
DOCKED: ATOM      4  C   UNL     1      24.198 -17.987  -0.571 -0.68 -0.00    +0.000 A 
DOCKED: ATOM      5  C   UNL     1      24.239 -17.013  -1.580 -0.55 -0.00    +0.000 A 
DOCKED: ATOM      6  C   UNL     1      25.422 -16.324  -1.858 -0.51 -0.00    +0.000 A 
DOCKED: ATOM      7  C   UNL     1      26.586 -16.574  -1.113 -0.43 -0.00    +0.000 A 
DOCKED: ATOM      8  C   UNL     1      26.552 -17.559  -0.113 -0.50 -0.00    +0.000 A 
DOCKED: ATOM      9  C   UNL     1      25.369 -18.250   0.167 -0.52 -0.00    +0.000 A 
DOCKED: BRANCH   4  11
DOCKED: ATOM     10  C   UNL     1      21.949 -18.842  -1.222 -0.75 -0.00    +0.000 C 
DOCKED: ATOM     11  C   UNL     1      22.914 -18.682  -0.306 -0.81 -0.00    +0.000 C 
DOCKED: BRANCH  10  13
DOCKED: ATOM     12  O   UNL     1      19.826 -19.738  -1.822 -2.36 -0.00    +0.000 OA
DOCKED: ATOM     13  C   UNL     1      20.680 -19.530  -0.916 -0.87 -0.00    +0.000 C 
DOCKED: ATOM     14  N   UNL     1      20.412 -19.965   0.419 -0.70 -0.00    +0.000 N 
DOCKED: ATOM     15  O   UNL     1      19.252 -20.597   0.715 -0.84 -0.00    +0.000 OA
DOCKED: ATOM     16  H   UNL     1      21.076 -19.804   1.127 -0.49 -0.00    +0.000 HD
DOCKED: ENDBRANCH  10  13
DOCKED: ENDBRANCH   4  11
DOCKED: ENDBRANCH   3   7
DOCKED: ENDBRANCH   1   3
DOCKED: BRANCH   1  17
DOCKED: ATOM     17  C   UNL     1      30.298 -16.460  -1.478 -0.16 -0.00    +0.000 C 
DOCKED: BRANCH  17  18
DOCKED: ATOM     18  C   UNL     1      31.109 -17.761  -1.412 -0.17 -0.00    +0.000 C 
DOCKED: BRANCH  18  19
DOCKED: ATOM     19  O   UNL     1      30.293 -18.840  -1.045 -0.28 -0.00    +0.000 OA
DOCKED: ATOM     20  H   UNL     1      29.698 -18.566  -0.329 -0.59 -0.00    +0.000 HD
DOCKED: ENDBRANCH  18  19
DOCKED: ENDBRANCH  17  18
DOCKED: ENDBRANCH   1  17
DOCKED: BRANCH   1  21
DOCKED: ATOM     21  C   UNL     1      28.913 -16.725  -3.505 -0.17 -0.00    +0.000 C 
DOCKED: BRANCH  21  22
DOCKED: ATOM     22  C   UNL     1      29.978 -15.786  -4.083 -0.19 -0.00    +0.000 C 
DOCKED: BRANCH  22  23
DOCKED: ATOM     23  C   UNL     1      30.220 -16.079  -5.535 -0.25 -0.00    +0.000 A 
DOCKED: ATOM     24  C   UNL     1      30.434 -15.140  -6.540 -0.24 -0.00    +0.000 A 
DOCKED: ATOM     25  N   UNL     1      30.753 -15.755  -7.702 -0.29 -0.00    +0.000 N 
DOCKED: ATOM     26  C   UNL     1      30.756 -17.072  -7.436 -0.30 -0.00    +0.000 A 
DOCKED: ATOM     27  C   UNL     1      30.439 -17.311  -6.124 -0.31 -0.00    +0.000 A 
DOCKED: ATOM     28  C   UNL     1      30.413 -18.604  -5.598 -0.33 -0.00    +0.000 A 
DOCKED: ATOM     29  C   UNL     1      30.719 -19.670  -6.463 -0.38 -0.00    +0.000 A 
DOCKED: ATOM     30  C   UNL     1      31.044 -19.423  -7.815 -0.34 -0.00    +0.000 A 
DOCKED: ATOM     31  C   UNL     1      31.067 -18.108  -8.315 -0.30 -0.00    +0.000 A 
DOCKED: ATOM     32  H   UNL     1      30.943 -15.323  -8.566 -0.18 -0.00    +0.000 HD
DOCKED: ENDBRANCH  22  23
DOCKED: ENDBRANCH  21  22
DOCKED: ENDBRANCH   1  21
DOCKED: TORSDOF 10
DOCKED: TER
DOCKED: ENDMDL
________________________________________________________________________________


	BEGINNING GENETIC ALGORITHM DOCKING 48 of 100
Run: 48 Seed: 380414247 1181360197 [ Run 48 of 100 GA/GALS ]
Beginning LAMARCKIAN GENETIC ALGORITHM (LGA), with a maximum of 2500000 energy evaluations.

Final-Value: -15.454


	FINAL GENETIC ALGORITHM DOCKED STATE
	_______________________________________________


Detailed state:  trans 28.405 -15.664 -2.784 quatxyzw 0.147202 -0.924166 -0.021858 -0.351811 center 0.285 0.077 -0.044 ntor 10 48.2641 -152.0604 -179.6665 25.3143 -72.8102 155.1157 -81.1527 10.1766 -145.1772 3.9357
State:	 28.405 -15.664  -2.784   0.157 -0.987 -0.023 -138.804     48.26 -152.06 -179.67   25.31  -72.81  155.12  -81.15   10.18 -145.18    3.94

DOCKED: MODEL       48
DOCKED: USER    Run = 48
DOCKED: USER    DPF = ligand_dock.biased.dpf
DOCKED: USER  
DOCKED: USER    Estimated Free Energy of Binding    =  -11.16 kcal/mol  [=(1)+(2)+(3)-(4)]
DOCKED: USER    Estimated Inhibition Constant, Ki   =    6.55 nM (nanomolar)  [Temperature = 298.15 K]
DOCKED: USER    
DOCKED: USER    (1) Final Intermolecular Energy     =  -14.15 kcal/mol
DOCKED: USER        vdW + Hbond + desolv Energy     =  -14.15 kcal/mol
DOCKED: USER        Electrostatic Energy            =   +0.00 kcal/mol
DOCKED: USER    (2) Final Total Internal Energy     =   -1.31 kcal/mol
DOCKED: USER    (3) Torsional Free Energy           =   +2.98 kcal/mol
DOCKED: USER    (4) Unbound System's Energy  [=(2)] =   -1.31 kcal/mol
DOCKED: USER    
DOCKED: USER    
DOCKED: USER    NEWDPF move ligand.pdbqt
DOCKED: USER    NEWDPF about 0.285000 0.077000 -0.044000
DOCKED: USER    NEWDPF tran0 28.405134 -15.663698 -2.784472
DOCKED: USER    NEWDPF quaternion0 0.147202 -0.924166 -0.021858 -0.351811
DOCKED: USER    NEWDPF axisangle0 0.157255 -0.987282 -0.023350 -138.803710
DOCKED: USER    NEWDPF quat0 0.157255 -0.987282 -0.023350 -138.803710
DOCKED: USER    NEWDPF dihe0 48.26 -152.06 -179.67 25.31 -72.81 155.12 -81.15 10.18 -145.18 3.94 
DOCKED: USER  keepresnum = 1 
DOCKED: USER  
DOCKED: REMARK  Name = 
DOCKED: REMARK  10 active torsions:
DOCKED: REMARK  status: ('A' for Active; 'I' for Inactive)
DOCKED: REMARK    1  A    between atoms: C_2  and  C_5
DOCKED: REMARK    2  A    between atoms: C_6  and  C_7
DOCKED: REMARK    3  A    between atoms: C_10  and  C_11
DOCKED: REMARK    4  A    between atoms: C_11  and  N_12
DOCKED: REMARK    5  A    between atoms: N_12  and  C_13
DOCKED: REMARK    6  A    between atoms: N_12  and  C_16
DOCKED: REMARK    7  A    between atoms: C_13  and  C_14
DOCKED: REMARK    8  A    between atoms: C_14  and  O_15
DOCKED: REMARK    9  A    between atoms: C_16  and  C_17
DOCKED: REMARK   10  A    between atoms: C_17  and  C_18
DOCKED: REMARK                            x       y       z     vdW  Elec       q    Type
DOCKED: REMARK                         _______ _______ _______ _____ _____    ______ ____
DOCKED: USER                              x       y       z     vdW  Elec       q    Type
DOCKED: USER                           _______ _______ _______ _____ _____    ______ ____
DOCKED: ROOT
DOCKED: ATOM      1  N   UNL     1      29.442 -15.567  -3.621 -0.17 -0.00    +0.000 N 
DOCKED: ATOM      2  H   UNL     1      30.414 -15.266  -3.694 +0.00 -0.00    +0.000 HD
DOCKED: ENDROOT
DOCKED: BRANCH   1   3
DOCKED: ATOM      3  C   UNL     1      29.252 -15.791  -2.165 -0.19 -0.00    +0.000 C 
DOCKED: BRANCH   3   7
DOCKED: ATOM      4  C   UNL     1      25.243 -17.074  -1.093 -0.57 -0.00    +0.000 A 
DOCKED: ATOM      5  C   UNL     1      25.443 -15.921  -1.867 -0.48 -0.00    +0.000 A 
DOCKED: ATOM      6  C   UNL     1      26.732 -15.509  -2.214 -0.34 -0.00    +0.000 A 
DOCKED: ATOM      7  C   UNL     1      27.854 -16.228  -1.769 -0.29 -0.00    +0.000 A 
DOCKED: ATOM      8  C   UNL     1      27.657 -17.390  -1.007 -0.37 -0.00    +0.000 A 
DOCKED: ATOM      9  C   UNL     1      26.368 -17.804  -0.659 -0.53 -0.00    +0.000 A 
DOCKED: BRANCH   4  11
DOCKED: ATOM     10  C   UNL     1      23.068 -18.213  -1.526 -0.62 -0.00    +0.000 C 
DOCKED: ATOM     11  C   UNL     1      23.855 -17.462  -0.741 -0.74 -0.00    +0.000 C 
DOCKED: BRANCH  10  13
DOCKED: ATOM     12  O   UNL     1      21.040 -17.853  -0.333 -1.90 +0.00    +0.000 OA
DOCKED: ATOM     13  C   UNL     1      21.687 -18.569  -1.145 -0.72 -0.00    +0.000 C 
DOCKED: ATOM     14  N   UNL     1      21.077 -19.736  -1.700 -0.66 -0.00    +0.000 N 
DOCKED: ATOM     15  O   UNL     1      19.812 -20.076  -1.359 -1.88 -0.00    +0.000 OA
DOCKED: ATOM     16  H   UNL     1      21.580 -20.296  -2.334 -0.57 -0.00    +0.000 HD
DOCKED: ENDBRANCH  10  13
DOCKED: ENDBRANCH   4  11
DOCKED: ENDBRANCH   3   7
DOCKED: ENDBRANCH   1   3
DOCKED: BRANCH   1  17
DOCKED: ATOM     17  C   UNL     1      28.666 -14.440  -4.186 -0.21 -0.00    +0.000 C 
DOCKED: BRANCH  17  18
DOCKED: ATOM     18  C   UNL     1      27.535 -14.932  -5.100 -0.45 -0.00    +0.000 C 
DOCKED: BRANCH  18  19
DOCKED: ATOM     19  O   UNL     1      27.898 -14.819  -6.449 -0.66 +0.00    +0.000 OA
DOCKED: ATOM     20  H   UNL     1      28.700 -14.277  -6.523 -0.02 -0.00    +0.000 HD
DOCKED: ENDBRANCH  18  19
DOCKED: ENDBRANCH  17  18
DOCKED: ENDBRANCH   1  17
DOCKED: BRANCH   1  21
DOCKED: ATOM     21  C   UNL     1      29.334 -16.804  -4.430 -0.20 -0.00    +0.000 C 
DOCKED: BRANCH  21  22
DOCKED: ATOM     22  C   UNL     1      30.623 -17.626  -4.327 -0.25 -0.00    +0.000 C 
DOCKED: BRANCH  22  23
DOCKED: ATOM     23  C   UNL     1      30.960 -18.261  -5.644 -0.26 -0.00    +0.000 A 
DOCKED: ATOM     24  C   UNL     1      31.472 -17.612  -6.764 -0.22 -0.00    +0.000 A 
DOCKED: ATOM     25  N   UNL     1      31.786 -18.508  -7.728 -0.22 -0.00    +0.000 N 
DOCKED: ATOM     26  C   UNL     1      31.491 -19.717  -7.221 -0.26 -0.00    +0.000 A 
DOCKED: ATOM     27  C   UNL     1      30.987 -19.609  -5.950 -0.31 -0.00    +0.000 A 
DOCKED: ATOM     28  C   UNL     1      30.638 -20.734  -5.200 -0.33 -0.00    +0.000 A 
DOCKED: ATOM     29  C   UNL     1      30.815 -21.997  -5.793 -0.29 -0.00    +0.000 A 
DOCKED: ATOM     30  C   UNL     1      31.332 -22.108  -7.102 -0.22 -0.00    +0.000 A 
DOCKED: ATOM     31  C   UNL     1      31.679 -20.956  -7.832 -0.22 -0.00    +0.000 A 
DOCKED: ATOM     32  H   UNL     1      32.155 -18.312  -8.619 -0.00 -0.00    +0.000 HD
DOCKED: ENDBRANCH  22  23
DOCKED: ENDBRANCH  21  22
DOCKED: ENDBRANCH   1  21
DOCKED: TORSDOF 10
DOCKED: TER
DOCKED: ENDMDL
________________________________________________________________________________


	BEGINNING GENETIC ALGORITHM DOCKING 49 of 100
Run: 49 Seed: 711879809 377689750 [ Run 49 of 100 GA/GALS ]
Beginning LAMARCKIAN GENETIC ALGORITHM (LGA), with a maximum of 2500000 energy evaluations.

Final-Value: -15.733


	FINAL GENETIC ALGORITHM DOCKED STATE
	_______________________________________________


Detailed state:  trans 28.064 -15.228 -1.680 quatxyzw 0.540015 0.662145 0.413533 0.314543 center 0.285 0.077 -0.044 ntor 10 117.0711 -24.8621 39.5958 152.8036 113.9036 -130.1711 180.0000 168.8967 17.4702 106.7731
State:	 28.064 -15.228  -1.680   0.569  0.698  0.436 143.334    117.07  -24.86   39.60  152.80  113.90 -130.17  180.00  168.90   17.47  106.77

DOCKED: MODEL       49
DOCKED: USER    Run = 49
DOCKED: USER    DPF = ligand_dock.biased.dpf
DOCKED: USER  
DOCKED: USER    Estimated Free Energy of Binding    =  -10.79 kcal/mol  [=(1)+(2)+(3)-(4)]
DOCKED: USER    Estimated Inhibition Constant, Ki   =   12.37 nM (nanomolar)  [Temperature = 298.15 K]
DOCKED: USER    
DOCKED: USER    (1) Final Intermolecular Energy     =  -13.77 kcal/mol
DOCKED: USER        vdW + Hbond + desolv Energy     =  -13.77 kcal/mol
DOCKED: USER        Electrostatic Energy            =   +0.00 kcal/mol
DOCKED: USER    (2) Final Total Internal Energy     =   -1.96 kcal/mol
DOCKED: USER    (3) Torsional Free Energy           =   +2.98 kcal/mol
DOCKED: USER    (4) Unbound System's Energy  [=(2)] =   -1.96 kcal/mol
DOCKED: USER    
DOCKED: USER    
DOCKED: USER    NEWDPF move ligand.pdbqt
DOCKED: USER    NEWDPF about 0.285000 0.077000 -0.044000
DOCKED: USER    NEWDPF tran0 28.063964 -15.227974 -1.680129
DOCKED: USER    NEWDPF quaternion0 0.540015 0.662145 0.413533 0.314543
DOCKED: USER    NEWDPF axisangle0 0.568890 0.697551 0.435645 143.333559
DOCKED: USER    NEWDPF quat0 0.568890 0.697551 0.435645 143.333559
DOCKED: USER    NEWDPF dihe0 117.07 -24.86 39.60 152.80 113.90 -130.17 180.00 168.90 17.47 106.77 
DOCKED: USER  keepresnum = 1 
DOCKED: USER  
DOCKED: REMARK  Name = 
DOCKED: REMARK  10 active torsions:
DOCKED: REMARK  status: ('A' for Active; 'I' for Inactive)
DOCKED: REMARK    1  A    between atoms: C_2  and  C_5
DOCKED: REMARK    2  A    between atoms: C_6  and  C_7
DOCKED: REMARK    3  A    between atoms: C_10  and  C_11
DOCKED: REMARK    4  A    between atoms: C_11  and  N_12
DOCKED: REMARK    5  A    between atoms: N_12  and  C_13
DOCKED: REMARK    6  A    between atoms: N_12  and  C_16
DOCKED: REMARK    7  A    between atoms: C_13  and  C_14
DOCKED: REMARK    8  A    between atoms: C_14  and  O_15
DOCKED: REMARK    9  A    between atoms: C_16  and  C_17
DOCKED: REMARK   10  A    between atoms: C_17  and  C_18
DOCKED: REMARK                            x       y       z     vdW  Elec       q    Type
DOCKED: REMARK                         _______ _______ _______ _____ _____    ______ ____
DOCKED: USER                              x       y       z     vdW  Elec       q    Type
DOCKED: USER                           _______ _______ _______ _____ _____    ______ ____
DOCKED: ROOT
DOCKED: ATOM      1  N   UNL     1      28.060 -15.894  -2.838 -0.26 -0.00    +0.000 N 
DOCKED: ATOM      2  H   UNL     1      28.250 -16.801  -3.265 -0.02 -0.00    +0.000 HD
DOCKED: ENDROOT
DOCKED: BRANCH   1   3
DOCKED: ATOM      3  C   UNL     1      27.826 -16.222  -1.408 -0.34 -0.00    +0.000 C 
DOCKED: BRANCH   3   7
DOCKED: ATOM      4  C   UNL     1      23.899 -17.829  -0.478 -0.67 -0.00    +0.000 A 
DOCKED: ATOM      5  C   UNL     1      25.041 -18.641  -0.405 -0.50 -0.00    +0.000 A 
DOCKED: ATOM      6  C   UNL     1      26.304 -18.124  -0.702 -0.52 -0.00    +0.000 A 
DOCKED: ATOM      7  C   UNL     1      26.451 -16.787  -1.107 -0.46 -0.00    +0.000 A 
DOCKED: ATOM      8  C   UNL     1      25.312 -15.968  -1.167 -0.44 -0.00    +0.000 A 
DOCKED: ATOM      9  C   UNL     1      24.047 -16.484  -0.870 -0.29 -0.00    +0.000 A 
DOCKED: BRANCH   4  11
DOCKED: ATOM     10  C   UNL     1      21.813 -19.060  -1.068 -0.82 -0.00    +0.000 C 
DOCKED: ATOM     11  C   UNL     1      22.579 -18.429  -0.165 -0.81 -0.00    +0.000 C 
DOCKED: BRANCH  10  13
DOCKED: ATOM     12  O   UNL     1      19.591 -19.734  -1.589 -2.16 -0.00    +0.000 OA
DOCKED: ATOM     13  C   UNL     1      20.499 -19.635  -0.720 -0.87 -0.00    +0.000 C 
DOCKED: ATOM     14  N   UNL     1      20.251 -20.083   0.615 -0.70 -0.00    +0.000 N 
DOCKED: ATOM     15  O   UNL     1      19.051 -20.612   0.949 -0.79 -0.00    +0.000 OA
DOCKED: ATOM     16  H   UNL     1      20.959 -20.007   1.295 -0.51 -0.00    +0.000 HD
DOCKED: ENDBRANCH  10  13
DOCKED: ENDBRANCH   4  11
DOCKED: ENDBRANCH   3   7
DOCKED: ENDBRANCH   1   3
DOCKED: BRANCH   1  17
DOCKED: ATOM     17  C   UNL     1      29.282 -15.101  -3.105 -0.16 -0.00    +0.000 C 
DOCKED: BRANCH  17  18
DOCKED: ATOM     18  C   UNL     1      30.356 -15.936  -3.817 -0.16 -0.00    +0.000 C 
DOCKED: BRANCH  18  19
DOCKED: ATOM     19  O   UNL     1      29.772 -16.975  -4.555 -0.32 -0.00    +0.000 OA
DOCKED: ATOM     20  H   UNL     1      29.131 -16.606  -5.182 -0.03 -0.00    +0.000 HD
DOCKED: ENDBRANCH  18  19
DOCKED: ENDBRANCH  17  18
DOCKED: ENDBRANCH   1  17
DOCKED: BRANCH   1  21
DOCKED: ATOM     21  C   UNL     1      26.863 -15.357  -3.527 -0.43 -0.00    +0.000 C 
DOCKED: BRANCH  21  22
DOCKED: ATOM     22  C   UNL     1      26.690 -13.867  -3.216 -0.32 -0.00    +0.000 C 
DOCKED: BRANCH  22  23
DOCKED: ATOM     23  C   UNL     1      26.759 -13.046  -4.471 -0.27 -0.00    +0.000 A 
DOCKED: ATOM     24  C   UNL     1      26.089 -11.849  -4.710 -0.28 -0.00    +0.000 A 
DOCKED: ATOM     25  N   UNL     1      26.485 -11.312  -5.887 -0.21 -0.00    +0.000 N 
DOCKED: ATOM     26  C   UNL     1      27.409 -12.151  -6.385 -0.15 -0.00    +0.000 A 
DOCKED: ATOM     27  C   UNL     1      27.607 -13.220  -5.549 -0.23 -0.00    +0.000 A 
DOCKED: ATOM     28  C   UNL     1      28.546 -14.212  -5.835 -0.30 -0.00    +0.000 A 
DOCKED: ATOM     29  C   UNL     1      29.291 -14.087  -7.022 -0.30 -0.00    +0.000 A 
DOCKED: ATOM     30  C   UNL     1      29.086 -12.987  -7.883 -0.23 -0.00    +0.000 A 
DOCKED: ATOM     31  C   UNL     1      28.135 -12.001  -7.566 -0.19 -0.00    +0.000 A 
DOCKED: ATOM     32  H   UNL     1      26.161 -10.477  -6.294 -0.00 -0.00    +0.000 HD
DOCKED: ENDBRANCH  22  23
DOCKED: ENDBRANCH  21  22
DOCKED: ENDBRANCH   1  21
DOCKED: TORSDOF 10
DOCKED: TER
DOCKED: ENDMDL
________________________________________________________________________________


	BEGINNING GENETIC ALGORITHM DOCKING 50 of 100
Run: 50 Seed: 648063659 1934557797 [ Run 50 of 100 GA/GALS ]
Beginning LAMARCKIAN GENETIC ALGORITHM (LGA), with a maximum of 2500000 energy evaluations.

Final-Value: -15.601


	FINAL GENETIC ALGORITHM DOCKED STATE
	_______________________________________________


Detailed state:  trans 28.556 -15.451 -1.643 quatxyzw 0.686450 0.510088 0.512726 -0.075551 center 0.285 0.077 -0.044 ntor 10 -9.3636 55.8061 -66.9535 -152.6506 -152.4640 -164.2787 -178.9917 54.9257 -180.0000 173.3606
State:	 28.556 -15.451  -1.643   0.688  0.512  0.514 -171.334     -9.36   55.81  -66.95 -152.65 -152.46 -164.28 -178.99   54.93 -180.00  173.36

DOCKED: MODEL       50
DOCKED: USER    Run = 50
DOCKED: USER    DPF = ligand_dock.biased.dpf
DOCKED: USER  
DOCKED: USER    Estimated Free Energy of Binding    =  -10.87 kcal/mol  [=(1)+(2)+(3)-(4)]
DOCKED: USER    Estimated Inhibition Constant, Ki   =   10.77 nM (nanomolar)  [Temperature = 298.15 K]
DOCKED: USER    
DOCKED: USER    (1) Final Intermolecular Energy     =  -13.85 kcal/mol
DOCKED: USER        vdW + Hbond + desolv Energy     =  -13.85 kcal/mol
DOCKED: USER        Electrostatic Energy            =   +0.00 kcal/mol
DOCKED: USER    (2) Final Total Internal Energy     =   -1.75 kcal/mol
DOCKED: USER    (3) Torsional Free Energy           =   +2.98 kcal/mol
DOCKED: USER    (4) Unbound System's Energy  [=(2)] =   -1.75 kcal/mol
DOCKED: USER    
DOCKED: USER    
DOCKED: USER    NEWDPF move ligand.pdbqt
DOCKED: USER    NEWDPF about 0.285000 0.077000 -0.044000
DOCKED: USER    NEWDPF tran0 28.555551 -15.450933 -1.643067
DOCKED: USER    NEWDPF quaternion0 0.686450 0.510088 0.512726 -0.075551
DOCKED: USER    NEWDPF axisangle0 0.688418 0.511550 0.514196 -171.334188
DOCKED: USER    NEWDPF quat0 0.688418 0.511550 0.514196 -171.334188
DOCKED: USER    NEWDPF dihe0 -9.36 55.81 -66.95 -152.65 -152.46 -164.28 -178.99 54.93 -180.00 173.36 
DOCKED: USER  keepresnum = 1 
DOCKED: USER  
DOCKED: REMARK  Name = 
DOCKED: REMARK  10 active torsions:
DOCKED: REMARK  status: ('A' for Active; 'I' for Inactive)
DOCKED: REMARK    1  A    between atoms: C_2  and  C_5
DOCKED: REMARK    2  A    between atoms: C_6  and  C_7
DOCKED: REMARK    3  A    between atoms: C_10  and  C_11
DOCKED: REMARK    4  A    between atoms: C_11  and  N_12
DOCKED: REMARK    5  A    between atoms: N_12  and  C_13
DOCKED: REMARK    6  A    between atoms: N_12  and  C_16
DOCKED: REMARK    7  A    between atoms: C_13  and  C_14
DOCKED: REMARK    8  A    between atoms: C_14  and  O_15
DOCKED: REMARK    9  A    between atoms: C_16  and  C_17
DOCKED: REMARK   10  A    between atoms: C_17  and  C_18
DOCKED: REMARK                            x       y       z     vdW  Elec       q    Type
DOCKED: REMARK                         _______ _______ _______ _____ _____    ______ ____
DOCKED: USER                              x       y       z     vdW  Elec       q    Type
DOCKED: USER                           _______ _______ _______ _____ _____    ______ ____
DOCKED: ROOT
DOCKED: ATOM      1  N   UNL     1      28.387 -16.350  -2.617 -0.27 -0.00    +0.000 N 
DOCKED: ATOM      2  H   UNL     1      27.972 -17.256  -2.835 -0.02 -0.00    +0.000 HD
DOCKED: ENDROOT
DOCKED: BRANCH   1   3
DOCKED: ATOM      3  C   UNL     1      27.616 -15.887  -1.434 -0.33 -0.00    +0.000 C 
DOCKED: BRANCH   3   7
DOCKED: ATOM      4  C   UNL     1      24.051 -18.240  -0.644 -0.71 -0.00    +0.000 A 
DOCKED: ATOM      5  C   UNL     1      24.008 -17.150  -1.526 -0.56 -0.00    +0.000 A 
DOCKED: ATOM      6  C   UNL     1      25.155 -16.394  -1.782 -0.53 -0.00    +0.000 A 
DOCKED: ATOM      7  C   UNL     1      26.366 -16.696  -1.139 -0.46 -0.00    +0.000 A 
DOCKED: ATOM      8  C   UNL     1      26.416 -17.795  -0.267 -0.54 -0.00    +0.000 A 
DOCKED: ATOM      9  C   UNL     1      25.269 -18.552  -0.009 -0.43 -0.00    +0.000 A 
DOCKED: BRANCH   4  11
DOCKED: ATOM     10  C   UNL     1      21.657 -18.798  -1.063 -0.83 -0.00    +0.000 C 
DOCKED: ATOM     11  C   UNL     1      22.803 -19.004  -0.396 -0.77 -0.00    +0.000 C 
DOCKED: BRANCH  10  13
DOCKED: ATOM     12  O   UNL     1      19.555 -19.735  -1.670 -2.15 -0.00    +0.000 OA
DOCKED: ATOM     13  C   UNL     1      20.433 -19.571  -0.779 -0.87 -0.00    +0.000 C 
DOCKED: ATOM     14  N   UNL     1      20.236 -20.139   0.518 -0.71 -0.00    +0.000 N 
DOCKED: ATOM     15  O   UNL     1      19.118 -20.850   0.793 -0.81 -0.00    +0.000 OA
DOCKED: ATOM     16  H   UNL     1      20.919 -20.012   1.216 -0.48 -0.00    +0.000 HD
DOCKED: ENDBRANCH  10  13
DOCKED: ENDBRANCH   4  11
DOCKED: ENDBRANCH   3   7
DOCKED: ENDBRANCH   1   3
DOCKED: BRANCH   1  17
DOCKED: ATOM     17  C   UNL     1      29.812 -16.654  -2.353 -0.21 -0.00    +0.000 C 
DOCKED: BRANCH  17  18
DOCKED: ATOM     18  C   UNL     1      30.162 -16.487  -0.868 -0.18 -0.00    +0.000 C 
DOCKED: BRANCH  18  19
DOCKED: ATOM     19  O   UNL     1      30.347 -17.734  -0.255 -0.23 -0.00    +0.000 OA
DOCKED: ATOM     20  H   UNL     1      29.494 -18.189  -0.185 -0.57 -0.00    +0.000 HD
DOCKED: ENDBRANCH  18  19
DOCKED: ENDBRANCH  17  18
DOCKED: ENDBRANCH   1  17
DOCKED: BRANCH   1  21
DOCKED: ATOM     21  C   UNL     1      28.191 -15.506  -3.819 -0.31 -0.00    +0.000 C 
DOCKED: BRANCH  21  22
DOCKED: ATOM     22  C   UNL     1      26.765 -14.947  -3.853 -0.46 -0.00    +0.000 C 
DOCKED: BRANCH  22  23
DOCKED: ATOM     23  C   UNL     1      26.777 -13.446  -3.842 -0.28 -0.00    +0.000 A 
DOCKED: ATOM     24  C   UNL     1      26.341 -12.612  -4.868 -0.24 -0.00    +0.000 A 
DOCKED: ATOM     25  N   UNL     1      26.368 -11.319  -4.470 -0.22 -0.00    +0.000 N 
DOCKED: ATOM     26  C   UNL     1      26.802 -11.331  -3.199 -0.09 -0.00    +0.000 A 
DOCKED: ATOM     27  C   UNL     1      27.059 -12.611  -2.778 -0.14 -0.00    +0.000 A 
DOCKED: ATOM     28  C   UNL     1      27.489 -12.884  -1.478 -0.13 -0.00    +0.000 A 
DOCKED: ATOM     29  C   UNL     1      27.658 -11.797  -0.601 -0.11 -0.00    +0.000 A 
DOCKED: ATOM     30  C   UNL     1      27.394 -10.480  -1.035 -0.10 -0.00    +0.000 A 
DOCKED: ATOM     31  C   UNL     1      26.958 -10.236  -2.351 -0.10 -0.00    +0.000 A 
DOCKED: ATOM     32  H   UNL     1      26.120 -10.531  -5.005 -0.00 -0.00    +0.000 HD
DOCKED: ENDBRANCH  22  23
DOCKED: ENDBRANCH  21  22
DOCKED: ENDBRANCH   1  21
DOCKED: TORSDOF 10
DOCKED: TER
DOCKED: ENDMDL
________________________________________________________________________________


	BEGINNING GENETIC ALGORITHM DOCKING 51 of 100
Run: 51 Seed: 1116397855 2117214705 [ Run 51 of 100 GA/GALS ]
Beginning LAMARCKIAN GENETIC ALGORITHM (LGA), with a maximum of 2500000 energy evaluations.

Final-Value: -17.072


	FINAL GENETIC ALGORITHM DOCKED STATE
	_______________________________________________


Detailed state:  trans 28.354 -15.339 -0.949 quatxyzw 0.360078 -0.572481 -0.625438 0.389149 center 0.285 0.077 -0.044 ntor 10 122.1598 -148.6514 108.7198 125.8046 70.6844 151.3673 126.8060 119.1072 -179.2815 -90.8957
State:	 28.354 -15.339  -0.949   0.391 -0.621 -0.679 134.197    122.16 -148.65  108.72  125.80   70.68  151.37  126.81  119.11 -179.28  -90.90

DOCKED: MODEL       51
DOCKED: USER    Run = 51
DOCKED: USER    DPF = ligand_dock.biased.dpf
DOCKED: USER  
DOCKED: USER    Estimated Free Energy of Binding    =  -11.83 kcal/mol  [=(1)+(2)+(3)-(4)]
DOCKED: USER    Estimated Inhibition Constant, Ki   =    2.13 nM (nanomolar)  [Temperature = 298.15 K]
DOCKED: USER    
DOCKED: USER    (1) Final Intermolecular Energy     =  -14.81 kcal/mol
DOCKED: USER        vdW + Hbond + desolv Energy     =  -14.81 kcal/mol
DOCKED: USER        Electrostatic Energy            =   +0.00 kcal/mol
DOCKED: USER    (2) Final Total Internal Energy     =   -2.26 kcal/mol
DOCKED: USER    (3) Torsional Free Energy           =   +2.98 kcal/mol
DOCKED: USER    (4) Unbound System's Energy  [=(2)] =   -2.26 kcal/mol
DOCKED: USER    
DOCKED: USER    
DOCKED: USER    NEWDPF move ligand.pdbqt
DOCKED: USER    NEWDPF about 0.285000 0.077000 -0.044000
DOCKED: USER    NEWDPF tran0 28.353833 -15.338994 -0.949256
DOCKED: USER    NEWDPF quaternion0 0.360078 -0.572481 -0.625438 0.389149
DOCKED: USER    NEWDPF axisangle0 0.390890 -0.621469 -0.678956 134.196895
DOCKED: USER    NEWDPF quat0 0.390890 -0.621469 -0.678956 134.196895
DOCKED: USER    NEWDPF dihe0 122.16 -148.65 108.72 125.80 70.68 151.37 126.81 119.11 -179.28 -90.90 
DOCKED: USER  keepresnum = 1 
DOCKED: USER  
DOCKED: REMARK  Name = 
DOCKED: REMARK  10 active torsions:
DOCKED: REMARK  status: ('A' for Active; 'I' for Inactive)
DOCKED: REMARK    1  A    between atoms: C_2  and  C_5
DOCKED: REMARK    2  A    between atoms: C_6  and  C_7
DOCKED: REMARK    3  A    between atoms: C_10  and  C_11
DOCKED: REMARK    4  A    between atoms: C_11  and  N_12
DOCKED: REMARK    5  A    between atoms: N_12  and  C_13
DOCKED: REMARK    6  A    between atoms: N_12  and  C_16
DOCKED: REMARK    7  A    between atoms: C_13  and  C_14
DOCKED: REMARK    8  A    between atoms: C_14  and  O_15
DOCKED: REMARK    9  A    between atoms: C_16  and  C_17
DOCKED: REMARK   10  A    between atoms: C_17  and  C_18
DOCKED: REMARK                            x       y       z     vdW  Elec       q    Type
DOCKED: REMARK                         _______ _______ _______ _____ _____    ______ ____
DOCKED: USER                              x       y       z     vdW  Elec       q    Type
DOCKED: USER                           _______ _______ _______ _____ _____    ______ ____
DOCKED: ROOT
DOCKED: ATOM      1  N   UNL     1      29.188 -15.482   0.084 -0.19 -0.00    +0.000 N 
DOCKED: ATOM      2  H   UNL     1      29.526 -16.145   0.782 -0.63 -0.00    +0.000 HD
DOCKED: ENDROOT
DOCKED: BRANCH   1   3
DOCKED: ATOM      3  C   UNL     1      28.656 -16.351  -0.997 -0.29 -0.00    +0.000 C 
DOCKED: BRANCH   3   7
DOCKED: ATOM      4  C   UNL     1      24.583 -17.696  -0.309 -0.59 -0.00    +0.000 A 
DOCKED: ATOM      5  C   UNL     1      25.671 -18.410   0.215 -0.44 -0.00    +0.000 A 
DOCKED: ATOM      6  C   UNL     1      26.981 -17.976  -0.004 -0.33 -0.00    +0.000 A 
DOCKED: ATOM      7  C   UNL     1      27.234 -16.832  -0.778 -0.41 -0.00    +0.000 A 
DOCKED: ATOM      8  C   UNL     1      26.147 -16.108  -1.292 -0.43 -0.00    +0.000 A 
DOCKED: ATOM      9  C   UNL     1      24.836 -16.540  -1.074 -0.52 -0.00    +0.000 A 
DOCKED: BRANCH   4  11
DOCKED: ATOM     10  C   UNL     1      22.292 -18.372  -1.020 -0.80 -0.00    +0.000 C 
DOCKED: ATOM     11  C   UNL     1      23.212 -18.205  -0.059 -0.77 -0.00    +0.000 C 
DOCKED: BRANCH  10  13
DOCKED: ATOM     12  O   UNL     1      19.917 -18.209  -1.077 -1.84 -0.00    +0.000 OA
DOCKED: ATOM     13  C   UNL     1      20.933 -18.871  -0.729 -0.88 -0.00    +0.000 C 
DOCKED: ATOM     14  N   UNL     1      20.765 -20.115  -0.046 -0.69 -0.00    +0.000 N 
DOCKED: ATOM     15  O   UNL     1      19.526 -20.585   0.229 -1.03 -0.00    +0.000 OA
DOCKED: ATOM     16  H   UNL     1      21.556 -20.634   0.227 -0.55 -0.00    +0.000 HD
DOCKED: ENDBRANCH  10  13
DOCKED: ENDBRANCH   4  11
DOCKED: ENDBRANCH   3   7
DOCKED: ENDBRANCH   1   3
DOCKED: BRANCH   1  17
DOCKED: ATOM     17  C   UNL     1      28.170 -14.682   0.801 -0.25 -0.00    +0.000 C 
DOCKED: BRANCH  17  18
DOCKED: ATOM     18  C   UNL     1      28.796 -13.840   1.922 -0.22 -0.00    +0.000 C 
DOCKED: BRANCH  18  19
DOCKED: ATOM     19  O   UNL     1      28.670 -14.484   3.160 -0.39 -0.00    +0.000 OA
DOCKED: ATOM     20  H   UNL     1      29.140 -15.332   3.133 -1.78 -0.00    +0.000 HD
DOCKED: ENDBRANCH  18  19
DOCKED: ENDBRANCH  17  18
DOCKED: ENDBRANCH   1  17
DOCKED: BRANCH   1  21
DOCKED: ATOM     21  C   UNL     1      30.366 -14.681  -0.326 -0.09 -0.00    +0.000 C 
DOCKED: BRANCH  21  22
DOCKED: ATOM     22  C   UNL     1      30.289 -14.342  -1.819 -0.05 -0.00    +0.000 C 
DOCKED: BRANCH  22  23
DOCKED: ATOM     23  C   UNL     1      29.130 -13.432  -2.103 -0.06 -0.00    +0.000 A 
DOCKED: ATOM     24  C   UNL     1      29.024 -12.093  -1.734 -0.04 -0.00    +0.000 A 
DOCKED: ATOM     25  N   UNL     1      27.910 -11.542  -2.268 -0.09 -0.00    +0.000 N 
DOCKED: ATOM     26  C   UNL     1      27.320 -12.516  -2.982 -0.14 -0.00    +0.000 A 
DOCKED: ATOM     27  C   UNL     1      28.036 -13.683  -2.909 -0.13 -0.00    +0.000 A 
DOCKED: ATOM     28  C   UNL     1      27.641 -14.831  -3.599 -0.26 -0.00    +0.000 A 
DOCKED: ATOM     29  C   UNL     1      26.471 -14.758  -4.377 -0.47 -0.00    +0.000 A 
DOCKED: ATOM     30  C   UNL     1      25.734 -13.556  -4.451 -0.33 -0.00    +0.000 A 
DOCKED: ATOM     31  C   UNL     1      26.160 -12.414  -3.748 -0.14 -0.00    +0.000 A 
DOCKED: ATOM     32  H   UNL     1      27.597 -10.616  -2.155 -0.00 -0.00    +0.000 HD
DOCKED: ENDBRANCH  22  23
DOCKED: ENDBRANCH  21  22
DOCKED: ENDBRANCH   1  21
DOCKED: TORSDOF 10
DOCKED: TER
DOCKED: ENDMDL
________________________________________________________________________________


	BEGINNING GENETIC ALGORITHM DOCKING 52 of 100
Run: 52 Seed: 656869068 2145772006 [ Run 52 of 100 GA/GALS ]
Beginning LAMARCKIAN GENETIC ALGORITHM (LGA), with a maximum of 2500000 energy evaluations.

Final-Value: -17.754


	FINAL GENETIC ALGORITHM DOCKED STATE
	_______________________________________________


Detailed state:  trans 28.264 -15.691 -0.690 quatxyzw -0.147191 -0.139995 -0.737841 -0.643683 center 0.285 0.077 -0.044 ntor 10 -180.0000 -179.1651 -107.3431 169.1103 -104.4527 117.9892 -179.5714 178.2152 -25.7447 66.9324
State:	 28.264 -15.691  -0.690  -0.192 -0.183 -0.964 -99.866   -180.00 -179.17 -107.34  169.11 -104.45  117.99 -179.57  178.22  -25.74   66.93

DOCKED: MODEL       52
DOCKED: USER    Run = 52
DOCKED: USER    DPF = ligand_dock.biased.dpf
DOCKED: USER  
DOCKED: USER    Estimated Free Energy of Binding    =  -13.06 kcal/mol  [=(1)+(2)+(3)-(4)]
DOCKED: USER    Estimated Inhibition Constant, Ki   =  265.82 pM (picomolar)  [Temperature = 298.15 K]
DOCKED: USER    
DOCKED: USER    (1) Final Intermolecular Energy     =  -16.05 kcal/mol
DOCKED: USER        vdW + Hbond + desolv Energy     =  -16.05 kcal/mol
DOCKED: USER        Electrostatic Energy            =   +0.00 kcal/mol
DOCKED: USER    (2) Final Total Internal Energy     =   -1.71 kcal/mol
DOCKED: USER    (3) Torsional Free Energy           =   +2.98 kcal/mol
DOCKED: USER    (4) Unbound System's Energy  [=(2)] =   -1.71 kcal/mol
DOCKED: USER    
DOCKED: USER    
DOCKED: USER    NEWDPF move ligand.pdbqt
DOCKED: USER    NEWDPF about 0.285000 0.077000 -0.044000
DOCKED: USER    NEWDPF tran0 28.264225 -15.690910 -0.689884
DOCKED: USER    NEWDPF quaternion0 -0.147191 -0.139995 -0.737841 -0.643683
DOCKED: USER    NEWDPF axisangle0 -0.192332 -0.182930 -0.964129 -99.866069
DOCKED: USER    NEWDPF quat0 -0.192332 -0.182930 -0.964129 -99.866069
DOCKED: USER    NEWDPF dihe0 -180.00 -179.17 -107.34 169.11 -104.45 117.99 -179.57 178.22 -25.74 66.93 
DOCKED: USER  keepresnum = 1 
DOCKED: USER  
DOCKED: REMARK  Name = 
DOCKED: REMARK  10 active torsions:
DOCKED: REMARK  status: ('A' for Active; 'I' for Inactive)
DOCKED: REMARK    1  A    between atoms: C_2  and  C_5
DOCKED: REMARK    2  A    between atoms: C_6  and  C_7
DOCKED: REMARK    3  A    between atoms: C_10  and  C_11
DOCKED: REMARK    4  A    between atoms: C_11  and  N_12
DOCKED: REMARK    5  A    between atoms: N_12  and  C_13
DOCKED: REMARK    6  A    between atoms: N_12  and  C_16
DOCKED: REMARK    7  A    between atoms: C_13  and  C_14
DOCKED: REMARK    8  A    between atoms: C_14  and  O_15
DOCKED: REMARK    9  A    between atoms: C_16  and  C_17
DOCKED: REMARK   10  A    between atoms: C_17  and  C_18
DOCKED: REMARK                            x       y       z     vdW  Elec       q    Type
DOCKED: REMARK                         _______ _______ _______ _____ _____    ______ ____
DOCKED: USER                              x       y       z     vdW  Elec       q    Type
DOCKED: USER                           _______ _______ _______ _____ _____    ______ ____
DOCKED: ROOT
DOCKED: ATOM      1  N   UNL     1      28.137 -14.492  -1.266 -0.15 -0.00    +0.000 N 
DOCKED: ATOM      2  H   UNL     1      28.248 -13.988  -2.145 +0.01 -0.00    +0.000 HD
DOCKED: ENDROOT
DOCKED: BRANCH   1   3
DOCKED: ATOM      3  C   UNL     1      28.000 -15.910  -1.690 -0.30 -0.00    +0.000 C 
DOCKED: BRANCH   3   7
DOCKED: ATOM      4  C   UNL     1      24.220 -17.799  -0.684 -0.68 -0.00    +0.000 A 
DOCKED: ATOM      5  C   UNL     1      24.272 -16.751  -1.616 -0.50 -0.00    +0.000 A 
DOCKED: ATOM      6  C   UNL     1      25.488 -16.145  -1.942 -0.50 -0.00    +0.000 A 
DOCKED: ATOM      7  C   UNL     1      26.678 -16.555  -1.320 -0.42 -0.00    +0.000 A 
DOCKED: ATOM      8  C   UNL     1      26.632 -17.612  -0.397 -0.52 -0.00    +0.000 A 
DOCKED: ATOM      9  C   UNL     1      25.417 -18.220  -0.071 -0.60 -0.00    +0.000 A 
DOCKED: BRANCH   4  11
DOCKED: ATOM     10  C   UNL     1      22.067 -18.902  -1.285 -0.74 -0.00    +0.000 C 
DOCKED: ATOM     11  C   UNL     1      22.903 -18.401  -0.364 -0.83 -0.00    +0.000 C 
DOCKED: BRANCH  10  13
DOCKED: ATOM     12  O   UNL     1      19.903 -19.739  -1.817 -2.39 -0.00    +0.000 OA
DOCKED: ATOM     13  C   UNL     1      20.759 -19.484  -0.927 -0.87 -0.00    +0.000 C 
DOCKED: ATOM     14  N   UNL     1      20.456 -19.761   0.443 -0.71 -0.00    +0.000 N 
DOCKED: ATOM     15  O   UNL     1      19.261 -20.294   0.787 -0.81 -0.00    +0.000 OA
DOCKED: ATOM     16  H   UNL     1      21.122 -19.563   1.140 -0.41 -0.00    +0.000 HD
DOCKED: ENDBRANCH  10  13
DOCKED: ENDBRANCH   4  11
DOCKED: ENDBRANCH   3   7
DOCKED: ENDBRANCH   1   3
DOCKED: BRANCH   1  17
DOCKED: ATOM     17  C   UNL     1      29.371 -14.184  -0.508 -0.10 -0.00    +0.000 C 
DOCKED: BRANCH  17  18
DOCKED: ATOM     18  C   UNL     1      29.757 -15.329   0.438 -0.14 -0.00    +0.000 C 
DOCKED: BRANCH  18  19
DOCKED: ATOM     19  O   UNL     1      29.954 -14.855   1.742 -0.19 -0.00    +0.000 OA
DOCKED: ATOM     20  H   UNL     1      29.325 -15.287   2.341 -1.90 -0.00    +0.000 HD
DOCKED: ENDBRANCH  18  19
DOCKED: ENDBRANCH  17  18
DOCKED: ENDBRANCH   1  17
DOCKED: BRANCH   1  21
DOCKED: ATOM     21  C   UNL     1      26.917 -13.944  -0.628 -0.27 -0.00    +0.000 C 
DOCKED: BRANCH  21  22
DOCKED: ATOM     22  C   UNL     1      26.954 -14.175   0.887 -0.24 -0.00    +0.000 C 
DOCKED: BRANCH  22  23
DOCKED: ATOM     23  C   UNL     1      26.916 -12.871   1.629 -0.29 -0.00    +0.000 A 
DOCKED: ATOM     24  C   UNL     1      26.188 -11.740   1.269 -0.33 +0.00    +0.000 A 
DOCKED: ATOM     25  N   UNL     1      26.277 -10.795   2.233 -0.37 +0.00    +0.000 N 
DOCKED: ATOM     26  C   UNL     1      27.042 -11.324   3.203 -0.20 +0.00    +0.000 A 
DOCKED: ATOM     27  C   UNL     1      27.449 -12.591   2.873 -0.28 -0.00    +0.000 A 
DOCKED: ATOM     28  C   UNL     1      28.227 -13.361   3.740 -0.34 -0.00    +0.000 A 
DOCKED: ATOM     29  C   UNL     1      28.590 -12.794   4.974 -0.33 -0.00    +0.000 A 
DOCKED: ATOM     30  C   UNL     1      28.172 -11.488   5.313 -0.35 +0.00    +0.000 A 
DOCKED: ATOM     31  C   UNL     1      27.385 -10.737   4.420 -0.27 +0.00    +0.000 A 
DOCKED: ATOM     32  H   UNL     1      25.865  -9.901   2.223 -0.04 +0.00    +0.000 HD
DOCKED: ENDBRANCH  22  23
DOCKED: ENDBRANCH  21  22
DOCKED: ENDBRANCH   1  21
DOCKED: TORSDOF 10
DOCKED: TER
DOCKED: ENDMDL
________________________________________________________________________________


	BEGINNING GENETIC ALGORITHM DOCKING 53 of 100
Run: 53 Seed: 1076898003 1297264513 [ Run 53 of 100 GA/GALS ]
Beginning LAMARCKIAN GENETIC ALGORITHM (LGA), with a maximum of 2500000 energy evaluations.

Final-Value: -16.226


	FINAL GENETIC ALGORITHM DOCKED STATE
	_______________________________________________


Detailed state:  trans 28.953 -15.427 -1.183 quatxyzw -0.412081 -0.847427 -0.325819 -0.076800 center 0.285 0.077 -0.044 ntor 10 102.9260 -40.4144 50.5819 -74.3170 104.0513 -112.0679 -173.2213 -173.6076 -179.8001 92.4280
State:	 28.953 -15.427  -1.183  -0.413 -0.850 -0.327 -171.191    102.93  -40.41   50.58  -74.32  104.05 -112.07 -173.22 -173.61 -179.80   92.43

DOCKED: MODEL       53
DOCKED: USER    Run = 53
DOCKED: USER    DPF = ligand_dock.biased.dpf
DOCKED: USER  
DOCKED: USER    Estimated Free Energy of Binding    =  -10.98 kcal/mol  [=(1)+(2)+(3)-(4)]
DOCKED: USER    Estimated Inhibition Constant, Ki   =    9.01 nM (nanomolar)  [Temperature = 298.15 K]
DOCKED: USER    
DOCKED: USER    (1) Final Intermolecular Energy     =  -13.96 kcal/mol
DOCKED: USER        vdW + Hbond + desolv Energy     =  -13.96 kcal/mol
DOCKED: USER        Electrostatic Energy            =   +0.00 kcal/mol
DOCKED: USER    (2) Final Total Internal Energy     =   -2.27 kcal/mol
DOCKED: USER    (3) Torsional Free Energy           =   +2.98 kcal/mol
DOCKED: USER    (4) Unbound System's Energy  [=(2)] =   -2.27 kcal/mol
DOCKED: USER    
DOCKED: USER    
DOCKED: USER    NEWDPF move ligand.pdbqt
DOCKED: USER    NEWDPF about 0.285000 0.077000 -0.044000
DOCKED: USER    NEWDPF tran0 28.952862 -15.426940 -1.183457
DOCKED: USER    NEWDPF quaternion0 -0.412081 -0.847427 -0.325819 -0.076800
DOCKED: USER    NEWDPF axisangle0 -0.413301 -0.849938 -0.326784 -171.190652
DOCKED: USER    NEWDPF quat0 -0.413301 -0.849938 -0.326784 -171.190652
DOCKED: USER    NEWDPF dihe0 102.93 -40.41 50.58 -74.32 104.05 -112.07 -173.22 -173.61 -179.80 92.43 
DOCKED: USER  keepresnum = 1 
DOCKED: USER  
DOCKED: REMARK  Name = 
DOCKED: REMARK  10 active torsions:
DOCKED: REMARK  status: ('A' for Active; 'I' for Inactive)
DOCKED: REMARK    1  A    between atoms: C_2  and  C_5
DOCKED: REMARK    2  A    between atoms: C_6  and  C_7
DOCKED: REMARK    3  A    between atoms: C_10  and  C_11
DOCKED: REMARK    4  A    between atoms: C_11  and  N_12
DOCKED: REMARK    5  A    between atoms: N_12  and  C_13
DOCKED: REMARK    6  A    between atoms: N_12  and  C_16
DOCKED: REMARK    7  A    between atoms: C_13  and  C_14
DOCKED: REMARK    8  A    between atoms: C_14  and  O_15
DOCKED: REMARK    9  A    between atoms: C_16  and  C_17
DOCKED: REMARK   10  A    between atoms: C_17  and  C_18
DOCKED: REMARK                            x       y       z     vdW  Elec       q    Type
DOCKED: REMARK                         _______ _______ _______ _____ _____    ______ ____
DOCKED: USER                              x       y       z     vdW  Elec       q    Type
DOCKED: USER                           _______ _______ _______ _____ _____    ______ ____
DOCKED: ROOT
DOCKED: ATOM      1  N   UNL     1      29.569 -16.439  -1.801 -0.19 -0.00    +0.000 N 
DOCKED: ATOM      2  H   UNL     1      30.040 -17.330  -1.647 -0.01 -0.00    +0.000 HD
DOCKED: ENDROOT
DOCKED: BRANCH   1   3
DOCKED: ATOM      3  C   UNL     1      28.732 -16.270  -0.585 -0.27 -0.00    +0.000 C 
DOCKED: BRANCH   3   7
DOCKED: ATOM      4  C   UNL     1      24.690 -17.798  -1.020 -0.65 -0.00    +0.000 A 
DOCKED: ATOM      5  C   UNL     1      25.005 -16.486  -1.405 -0.53 -0.00    +0.000 A 
DOCKED: ATOM      6  C   UNL     1      26.306 -15.995  -1.268 -0.41 -0.00    +0.000 A 
DOCKED: ATOM      7  C   UNL     1      27.316 -16.798  -0.714 -0.40 -0.00    +0.000 A 
DOCKED: ATOM      8  C   UNL     1      27.007 -18.115  -0.341 -0.43 -0.00    +0.000 A 
DOCKED: ATOM      9  C   UNL     1      25.707 -18.608  -0.478 -0.51 -0.00    +0.000 A 
DOCKED: BRANCH   4  11
DOCKED: ATOM     10  C   UNL     1      22.389 -18.265  -0.183 -0.82 -0.00    +0.000 C 
DOCKED: ATOM     11  C   UNL     1      23.291 -18.267  -1.175 -0.80 -0.00    +0.000 C 
DOCKED: BRANCH  10  13
DOCKED: ATOM     12  O   UNL     1      20.161 -18.052  -0.993 -2.06 -0.00    +0.000 OA
DOCKED: ATOM     13  C   UNL     1      21.008 -18.751  -0.374 -0.77 -0.00    +0.000 C 
DOCKED: ATOM     14  N   UNL     1      20.626 -20.025   0.149 -0.71 -0.00    +0.000 N 
DOCKED: ATOM     15  O   UNL     1      19.364 -20.484  -0.017 -1.13 -0.00    +0.000 OA
DOCKED: ATOM     16  H   UNL     1      21.286 -20.573   0.633 -0.58 -0.00    +0.000 HD
DOCKED: ENDBRANCH  10  13
DOCKED: ENDBRANCH   4  11
DOCKED: ENDBRANCH   3   7
DOCKED: ENDBRANCH   1   3
DOCKED: BRANCH   1  17
DOCKED: ATOM     17  C   UNL     1      30.672 -15.461  -1.941 -0.07 -0.00    +0.000 C 
DOCKED: BRANCH  17  18
DOCKED: ATOM     18  C   UNL     1      32.041 -16.154  -1.997 -0.04 -0.00    +0.000 C 
DOCKED: BRANCH  18  19
DOCKED: ATOM     19  O   UNL     1      31.892 -17.539  -2.150 -0.09 -0.00    +0.000 OA
DOCKED: ATOM     20  H   UNL     1      31.194 -17.720  -2.799 -0.00 -0.00    +0.000 HD
DOCKED: ENDBRANCH  18  19
DOCKED: ENDBRANCH  17  18
DOCKED: ENDBRANCH   1  17
DOCKED: BRANCH   1  21
DOCKED: ATOM     21  C   UNL     1      28.780 -16.599  -3.045 -0.23 -0.00    +0.000 C 
DOCKED: BRANCH  21  22
DOCKED: ATOM     22  C   UNL     1      28.679 -15.265  -3.791 -0.25 -0.00    +0.000 C 
DOCKED: BRANCH  22  23
DOCKED: ATOM     23  C   UNL     1      29.149 -15.407  -5.210 -0.29 -0.00    +0.000 A 
DOCKED: ATOM     24  C   UNL     1      28.963 -14.483  -6.235 -0.32 -0.00    +0.000 A 
DOCKED: ATOM     25  N   UNL     1      29.632 -14.869  -7.346 -0.32 -0.00    +0.000 N 
DOCKED: ATOM     26  C   UNL     1      30.250 -16.018  -7.026 -0.26 -0.00    +0.000 A 
DOCKED: ATOM     27  C   UNL     1      29.983 -16.378  -5.731 -0.29 -0.00    +0.000 A 
DOCKED: ATOM     28  C   UNL     1      30.542 -17.521  -5.155 -0.26 -0.00    +0.000 A 
DOCKED: ATOM     29  C   UNL     1      31.394 -18.306  -5.953 -0.22 -0.00    +0.000 A 
DOCKED: ATOM     30  C   UNL     1      31.668 -17.936  -7.288 -0.22 -0.00    +0.000 A 
DOCKED: ATOM     31  C   UNL     1      31.093 -16.776  -7.838 -0.27 -0.00    +0.000 A 
DOCKED: ATOM     32  H   UNL     1      29.659 -14.401  -8.211 -0.55 -0.00    +0.000 HD
DOCKED: ENDBRANCH  22  23
DOCKED: ENDBRANCH  21  22
DOCKED: ENDBRANCH   1  21
DOCKED: TORSDOF 10
DOCKED: TER
DOCKED: ENDMDL
________________________________________________________________________________


	BEGINNING GENETIC ALGORITHM DOCKING 54 of 100
Run: 54 Seed: 737288135 499801645 [ Run 54 of 100 GA/GALS ]
Beginning LAMARCKIAN GENETIC ALGORITHM (LGA), with a maximum of 2500000 energy evaluations.

Final-Value: -15.024


	FINAL GENETIC ALGORITHM DOCKED STATE
	_______________________________________________


Detailed state:  trans 27.649 -16.373 -2.213 quatxyzw -0.519283 0.809626 0.205596 0.180503 center 0.285 0.077 -0.044 ntor 10 91.0199 -9.4922 15.3509 144.3334 0.6489 173.8716 179.1856 -160.5431 123.6517 -41.8428
State:	 27.649 -16.373  -2.213  -0.528  0.823  0.209 159.202     91.02   -9.49   15.35  144.33    0.65  173.87  179.19 -160.54  123.65  -41.84

DOCKED: MODEL       54
DOCKED: USER    Run = 54
DOCKED: USER    DPF = ligand_dock.biased.dpf
DOCKED: USER  
DOCKED: USER    Estimated Free Energy of Binding    =  -10.19 kcal/mol  [=(1)+(2)+(3)-(4)]
DOCKED: USER    Estimated Inhibition Constant, Ki   =   34.18 nM (nanomolar)  [Temperature = 298.15 K]
DOCKED: USER    
DOCKED: USER    (1) Final Intermolecular Energy     =  -13.17 kcal/mol
DOCKED: USER        vdW + Hbond + desolv Energy     =  -13.17 kcal/mol
DOCKED: USER        Electrostatic Energy            =   +0.00 kcal/mol
DOCKED: USER    (2) Final Total Internal Energy     =   -1.86 kcal/mol
DOCKED: USER    (3) Torsional Free Energy           =   +2.98 kcal/mol
DOCKED: USER    (4) Unbound System's Energy  [=(2)] =   -1.86 kcal/mol
DOCKED: USER    
DOCKED: USER    
DOCKED: USER    NEWDPF move ligand.pdbqt
DOCKED: USER    NEWDPF about 0.285000 0.077000 -0.044000
DOCKED: USER    NEWDPF tran0 27.648612 -16.373332 -2.213084
DOCKED: USER    NEWDPF quaternion0 -0.519283 0.809626 0.205596 0.180503
DOCKED: USER    NEWDPF axisangle0 -0.527955 0.823146 0.209029 159.201891
DOCKED: USER    NEWDPF quat0 -0.527955 0.823146 0.209029 159.201891
DOCKED: USER    NEWDPF dihe0 91.02 -9.49 15.35 144.33 0.65 173.87 179.19 -160.54 123.65 -41.84 
DOCKED: USER  keepresnum = 1 
DOCKED: USER  
DOCKED: REMARK  Name = 
DOCKED: REMARK  10 active torsions:
DOCKED: REMARK  status: ('A' for Active; 'I' for Inactive)
DOCKED: REMARK    1  A    between atoms: C_2  and  C_5
DOCKED: REMARK    2  A    between atoms: C_6  and  C_7
DOCKED: REMARK    3  A    between atoms: C_10  and  C_11
DOCKED: REMARK    4  A    between atoms: C_11  and  N_12
DOCKED: REMARK    5  A    between atoms: N_12  and  C_13
DOCKED: REMARK    6  A    between atoms: N_12  and  C_16
DOCKED: REMARK    7  A    between atoms: C_13  and  C_14
DOCKED: REMARK    8  A    between atoms: C_14  and  O_15
DOCKED: REMARK    9  A    between atoms: C_16  and  C_17
DOCKED: REMARK   10  A    between atoms: C_17  and  C_18
DOCKED: REMARK                            x       y       z     vdW  Elec       q    Type
DOCKED: REMARK                         _______ _______ _______ _____ _____    ______ ____
DOCKED: USER                              x       y       z     vdW  Elec       q    Type
DOCKED: USER                           _______ _______ _______ _____ _____    ______ ____
DOCKED: ROOT
DOCKED: ATOM      1  N   UNL     1      28.418 -15.301  -2.419 -0.18 -0.00    +0.000 N 
DOCKED: ATOM      2  H   UNL     1      29.027 -14.626  -1.957 +0.01 -0.00    +0.000 HD
DOCKED: ENDROOT
DOCKED: BRANCH   1   3
DOCKED: ATOM      3  C   UNL     1      28.418 -16.464  -1.494 -0.32 -0.00    +0.000 C 
DOCKED: BRANCH   3   7
DOCKED: ATOM      4  C   UNL     1      24.466 -18.039  -0.620 -0.67 -0.00    +0.000 A 
DOCKED: ATOM      5  C   UNL     1      25.459 -18.005   0.371 -0.28 -0.00    +0.000 A 
DOCKED: ATOM      6  C   UNL     1      26.729 -17.496   0.091 -0.43 -0.00    +0.000 A 
DOCKED: ATOM      7  C   UNL     1      27.045 -17.035  -1.197 -0.42 -0.00    +0.000 A 
DOCKED: ATOM      8  C   UNL     1      26.050 -17.056  -2.187 -0.31 -0.00    +0.000 A 
DOCKED: ATOM      9  C   UNL     1      24.778 -17.564  -1.909 -0.54 -0.00    +0.000 A 
DOCKED: BRANCH   4  11
DOCKED: ATOM     10  C   UNL     1      22.018 -18.349  -0.969 -0.79 -0.00    +0.000 C 
DOCKED: ATOM     11  C   UNL     1      23.137 -18.601  -0.275 -0.80 -0.00    +0.000 C 
DOCKED: BRANCH  10  13
DOCKED: ATOM     12  O   UNL     1      19.653 -18.244  -0.718 -1.67 -0.00    +0.000 OA
DOCKED: ATOM     13  C   UNL     1      20.710 -18.918  -0.588 -0.85 -0.00    +0.000 C 
DOCKED: ATOM     14  N   UNL     1      20.640 -20.247  -0.066 -0.67 -0.00    +0.000 N 
DOCKED: ATOM     15  O   UNL     1      19.449 -20.783   0.289 -0.97 -0.00    +0.000 OA
DOCKED: ATOM     16  H   UNL     1      21.465 -20.776   0.037 -0.45 -0.00    +0.000 HD
DOCKED: ENDBRANCH  10  13
DOCKED: ENDBRANCH   4  11
DOCKED: ENDBRANCH   3   7
DOCKED: ENDBRANCH   1   3
DOCKED: BRANCH   1  17
DOCKED: ATOM     17  C   UNL     1      27.120 -14.601  -2.542 -0.29 -0.00    +0.000 C 
DOCKED: BRANCH  17  18
DOCKED: ATOM     18  C   UNL     1      26.934 -13.552  -1.436 -0.22 -0.00    +0.000 C 
DOCKED: BRANCH  18  19
DOCKED: ATOM     19  O   UNL     1      28.122 -12.840  -1.220 -0.11 -0.00    +0.000 OA
DOCKED: ATOM     20  H   UNL     1      28.623 -12.788  -2.049 +0.00 -0.00    +0.000 HD
DOCKED: ENDBRANCH  18  19
DOCKED: ENDBRANCH  17  18
DOCKED: ENDBRANCH   1  17
DOCKED: BRANCH   1  21
DOCKED: ATOM     21  C   UNL     1      29.045 -15.588  -3.731 -0.24 -0.00    +0.000 C 
DOCKED: BRANCH  21  22
DOCKED: ATOM     22  C   UNL     1      27.988 -15.587  -4.841 -0.39 -0.00    +0.000 C 
DOCKED: BRANCH  22  23
DOCKED: ATOM     23  C   UNL     1      28.274 -14.515  -5.852 -0.34 -0.00    +0.000 A 
DOCKED: ATOM     24  C   UNL     1      29.005 -14.665  -7.027 -0.22 -0.00    +0.000 A 
DOCKED: ATOM     25  N   UNL     1      28.950 -13.534  -7.766 -0.31 -0.00    +0.000 N 
DOCKED: ATOM     26  C   UNL     1      28.179 -12.676  -7.076 -0.19 -0.00    +0.000 A 
DOCKED: ATOM     27  C   UNL     1      27.745 -13.239  -5.904 -0.21 -0.00    +0.000 A 
DOCKED: ATOM     28  C   UNL     1      26.899 -12.553  -5.029 -0.22 -0.00    +0.000 A 
DOCKED: ATOM     29  C   UNL     1      26.503 -11.251  -5.386 -0.21 -0.00    +0.000 A 
DOCKED: ATOM     30  C   UNL     1      26.952 -10.672  -6.593 -0.14 -0.00    +0.000 A 
DOCKED: ATOM     31  C   UNL     1      27.801 -11.389  -7.456 -0.16 -0.00    +0.000 A 
DOCKED: ATOM     32  H   UNL     1      29.387 -13.373  -8.634 -0.57 -0.00    +0.000 HD
DOCKED: ENDBRANCH  22  23
DOCKED: ENDBRANCH  21  22
DOCKED: ENDBRANCH   1  21
DOCKED: TORSDOF 10
DOCKED: TER
DOCKED: ENDMDL
________________________________________________________________________________


	BEGINNING GENETIC ALGORITHM DOCKING 55 of 100
Run: 55 Seed: 1322923745 926846595 [ Run 55 of 100 GA/GALS ]
Beginning LAMARCKIAN GENETIC ALGORITHM (LGA), with a maximum of 2500000 energy evaluations.

Final-Value: -15.727


	FINAL GENETIC ALGORITHM DOCKED STATE
	_______________________________________________


Detailed state:  trans 29.315 -14.295 0.329 quatxyzw -0.332646 -0.641859 -0.602175 -0.338746 center 0.285 0.077 -0.044 ntor 10 156.4593 -51.2777 67.3998 -141.7513 145.1138 -30.2924 -141.7018 -17.0503 -162.9732 99.9176
State:	 29.315 -14.295   0.329  -0.354 -0.682 -0.640 -140.399    156.46  -51.28   67.40 -141.75  145.11  -30.29 -141.70  -17.05 -162.97   99.92

DOCKED: MODEL       55
DOCKED: USER    Run = 55
DOCKED: USER    DPF = ligand_dock.biased.dpf
DOCKED: USER  
DOCKED: USER    Estimated Free Energy of Binding    =  -10.14 kcal/mol  [=(1)+(2)+(3)-(4)]
DOCKED: USER    Estimated Inhibition Constant, Ki   =   37.15 nM (nanomolar)  [Temperature = 298.15 K]
DOCKED: USER    
DOCKED: USER    (1) Final Intermolecular Energy     =  -13.12 kcal/mol
DOCKED: USER        vdW + Hbond + desolv Energy     =  -13.12 kcal/mol
DOCKED: USER        Electrostatic Energy            =   +0.00 kcal/mol
DOCKED: USER    (2) Final Total Internal Energy     =   -2.61 kcal/mol
DOCKED: USER    (3) Torsional Free Energy           =   +2.98 kcal/mol
DOCKED: USER    (4) Unbound System's Energy  [=(2)] =   -2.61 kcal/mol
DOCKED: USER    
DOCKED: USER    
DOCKED: USER    NEWDPF move ligand.pdbqt
DOCKED: USER    NEWDPF about 0.285000 0.077000 -0.044000
DOCKED: USER    NEWDPF tran0 29.314947 -14.294942 0.328604
DOCKED: USER    NEWDPF quaternion0 -0.332646 -0.641859 -0.602175 -0.338746
DOCKED: USER    NEWDPF axisangle0 -0.353549 -0.682192 -0.640014 -140.398969
DOCKED: USER    NEWDPF quat0 -0.353549 -0.682192 -0.640014 -140.398969
DOCKED: USER    NEWDPF dihe0 156.46 -51.28 67.40 -141.75 145.11 -30.29 -141.70 -17.05 -162.97 99.92 
DOCKED: USER  keepresnum = 1 
DOCKED: USER  
DOCKED: REMARK  Name = 
DOCKED: REMARK  10 active torsions:
DOCKED: REMARK  status: ('A' for Active; 'I' for Inactive)
DOCKED: REMARK    1  A    between atoms: C_2  and  C_5
DOCKED: REMARK    2  A    between atoms: C_6  and  C_7
DOCKED: REMARK    3  A    between atoms: C_10  and  C_11
DOCKED: REMARK    4  A    between atoms: C_11  and  N_12
DOCKED: REMARK    5  A    between atoms: N_12  and  C_13
DOCKED: REMARK    6  A    between atoms: N_12  and  C_16
DOCKED: REMARK    7  A    between atoms: C_13  and  C_14
DOCKED: REMARK    8  A    between atoms: C_14  and  O_15
DOCKED: REMARK    9  A    between atoms: C_16  and  C_17
DOCKED: REMARK   10  A    between atoms: C_17  and  C_18
DOCKED: REMARK                            x       y       z     vdW  Elec       q    Type
DOCKED: REMARK                         _______ _______ _______ _____ _____    ______ ____
DOCKED: USER                              x       y       z     vdW  Elec       q    Type
DOCKED: USER                           _______ _______ _______ _____ _____    ______ ____
DOCKED: ROOT
DOCKED: ATOM      1  N   UNL     1      29.786 -14.393  -0.918 -0.07 -0.00    +0.000 N 
DOCKED: ATOM      2  H   UNL     1      30.282 -15.010  -1.562 +0.00 -0.00    +0.000 HD
DOCKED: ENDROOT
DOCKED: BRANCH   1   3
DOCKED: ATOM      3  C   UNL     1      29.232 -15.324   0.100 -0.18 -0.00    +0.000 C 
DOCKED: BRANCH   3   7
DOCKED: ATOM      4  C   UNL     1      25.425 -17.083  -1.032 -0.56 -0.00    +0.000 A 
DOCKED: ATOM      5  C   UNL     1      25.515 -15.722  -0.701 -0.34 -0.00    +0.000 A 
DOCKED: ATOM      6  C   UNL     1      26.739 -15.156  -0.339 -0.30 -0.00    +0.000 A 
DOCKED: ATOM      7  C   UNL     1      27.899 -15.945  -0.273 -0.28 -0.00    +0.000 A 
DOCKED: ATOM      8  C   UNL     1      27.815 -17.304  -0.617 -0.35 -0.00    +0.000 A 
DOCKED: ATOM      9  C   UNL     1      26.590 -17.872  -0.979 -0.43 -0.00    +0.000 A 
DOCKED: BRANCH   4  11
DOCKED: ATOM     10  C   UNL     1      23.014 -17.558  -0.613 -0.77 -0.00    +0.000 C 
DOCKED: ATOM     11  C   UNL     1      24.098 -17.639  -1.397 -0.73 -0.00    +0.000 C 
DOCKED: BRANCH  10  13
DOCKED: ATOM     12  O   UNL     1      20.636 -17.546  -0.719 -2.13 +0.00    +0.000 OA
DOCKED: ATOM     13  C   UNL     1      21.713 -18.135  -1.007 -0.71 -0.00    +0.000 C 
DOCKED: ATOM     14  N   UNL     1      21.673 -19.372  -1.721 -0.62 -0.00    +0.000 N 
DOCKED: ATOM     15  O   UNL     1      20.488 -19.914  -2.088 -2.11 -0.00    +0.000 OA
DOCKED: ATOM     16  H   UNL     1      22.513 -19.834  -1.946 -0.42 -0.00    +0.000 HD
DOCKED: ENDBRANCH  10  13
DOCKED: ENDBRANCH   4  11
DOCKED: ENDBRANCH   3   7
DOCKED: ENDBRANCH   1   3
DOCKED: BRANCH   1  17
DOCKED: ATOM     17  C   UNL     1      30.830 -13.470  -0.417 -0.03 -0.00    +0.000 C 
DOCKED: BRANCH  17  18
DOCKED: ATOM     18  C   UNL     1      31.999 -13.347  -1.404 -0.00 -0.00    +0.000 C 
DOCKED: BRANCH  18  19
DOCKED: ATOM     19  O   UNL     1      31.781 -14.143  -2.537 -0.02 -0.00    +0.000 OA
DOCKED: ATOM     20  H   UNL     1      31.393 -13.602  -3.242 +0.00 -0.00    +0.000 HD
DOCKED: ENDBRANCH  18  19
DOCKED: ENDBRANCH  17  18
DOCKED: ENDBRANCH   1  17
DOCKED: BRANCH   1  21
DOCKED: ATOM     21  C   UNL     1      28.748 -13.707  -1.721 -0.10 -0.00    +0.000 C 
DOCKED: BRANCH  21  22
DOCKED: ATOM     22  C   UNL     1      28.675 -14.310  -3.128 -0.15 -0.00    +0.000 C 
DOCKED: BRANCH  22  23
DOCKED: ATOM     23  C   UNL     1      27.336 -14.048  -3.755 -0.25 -0.00    +0.000 A 
DOCKED: ATOM     24  C   UNL     1      26.357 -14.999  -4.031 -0.48 -0.00    +0.000 A 
DOCKED: ATOM     25  N   UNL     1      25.226 -14.400  -4.468 -0.47 -0.00    +0.000 N 
DOCKED: ATOM     26  C   UNL     1      25.476 -13.080  -4.455 -0.30 -0.00    +0.000 A 
DOCKED: ATOM     27  C   UNL     1      26.752 -12.824  -4.023 -0.25 -0.00    +0.000 A 
DOCKED: ATOM     28  C   UNL     1      27.236 -11.521  -3.890 -0.14 -0.00    +0.000 A 
DOCKED: ATOM     29  C   UNL     1      26.370 -10.464  -4.221 -0.18 -0.00    +0.000 A 
DOCKED: ATOM     30  C   UNL     1      25.056 -10.727  -4.668 -0.32 -0.00    +0.000 A 
DOCKED: ATOM     31  C   UNL     1      24.596 -12.051  -4.787 -0.16 -0.00    +0.000 A 
DOCKED: ATOM     32  H   UNL     1      24.390 -14.842  -4.740 -0.28 +0.00    +0.000 HD
DOCKED: ENDBRANCH  22  23
DOCKED: ENDBRANCH  21  22
DOCKED: ENDBRANCH   1  21
DOCKED: TORSDOF 10
DOCKED: TER
DOCKED: ENDMDL
________________________________________________________________________________


	BEGINNING GENETIC ALGORITHM DOCKING 56 of 100
Run: 56 Seed: 554396062 2089355481 [ Run 56 of 100 GA/GALS ]
Beginning LAMARCKIAN GENETIC ALGORITHM (LGA), with a maximum of 2500000 energy evaluations.

Final-Value: -16.298


	FINAL GENETIC ALGORITHM DOCKED STATE
	_______________________________________________


Detailed state:  trans 29.704 -15.129 -1.003 quatxyzw 0.442943 -0.446273 0.082898 0.773155 center 0.285 0.077 -0.044 ntor 10 172.1376 -48.0142 44.4141 -107.0358 -86.1293 134.8145 175.7954 -107.9512 -176.8980 -173.0137
State:	 29.704 -15.129  -1.003   0.698 -0.704  0.131 78.724    172.14  -48.01   44.41 -107.04  -86.13  134.81  175.80 -107.95 -176.90 -173.01

DOCKED: MODEL       56
DOCKED: USER    Run = 56
DOCKED: USER    DPF = ligand_dock.biased.dpf
DOCKED: USER  
DOCKED: USER    Estimated Free Energy of Binding    =  -10.86 kcal/mol  [=(1)+(2)+(3)-(4)]
DOCKED: USER    Estimated Inhibition Constant, Ki   =   10.95 nM (nanomolar)  [Temperature = 298.15 K]
DOCKED: USER    
DOCKED: USER    (1) Final Intermolecular Energy     =  -13.84 kcal/mol
DOCKED: USER        vdW + Hbond + desolv Energy     =  -13.84 kcal/mol
DOCKED: USER        Electrostatic Energy            =   +0.00 kcal/mol
DOCKED: USER    (2) Final Total Internal Energy     =   -2.46 kcal/mol
DOCKED: USER    (3) Torsional Free Energy           =   +2.98 kcal/mol
DOCKED: USER    (4) Unbound System's Energy  [=(2)] =   -2.46 kcal/mol
DOCKED: USER    
DOCKED: USER    
DOCKED: USER    NEWDPF move ligand.pdbqt
DOCKED: USER    NEWDPF about 0.285000 0.077000 -0.044000
DOCKED: USER    NEWDPF tran0 29.703599 -15.128593 -1.003139
DOCKED: USER    NEWDPF quaternion0 0.442943 -0.446273 0.082898 0.773155
DOCKED: USER    NEWDPF axisangle0 0.698410 -0.703661 0.130710 78.723796
DOCKED: USER    NEWDPF quat0 0.698410 -0.703661 0.130710 78.723796
DOCKED: USER    NEWDPF dihe0 172.14 -48.01 44.41 -107.04 -86.13 134.81 175.80 -107.95 -176.90 -173.01 
DOCKED: USER  keepresnum = 1 
DOCKED: USER  
DOCKED: REMARK  Name = 
DOCKED: REMARK  10 active torsions:
DOCKED: REMARK  status: ('A' for Active; 'I' for Inactive)
DOCKED: REMARK    1  A    between atoms: C_2  and  C_5
DOCKED: REMARK    2  A    between atoms: C_6  and  C_7
DOCKED: REMARK    3  A    between atoms: C_10  and  C_11
DOCKED: REMARK    4  A    between atoms: C_11  and  N_12
DOCKED: REMARK    5  A    between atoms: N_12  and  C_13
DOCKED: REMARK    6  A    between atoms: N_12  and  C_16
DOCKED: REMARK    7  A    between atoms: C_13  and  C_14
DOCKED: REMARK    8  A    between atoms: C_14  and  O_15
DOCKED: REMARK    9  A    between atoms: C_16  and  C_17
DOCKED: REMARK   10  A    between atoms: C_17  and  C_18
DOCKED: REMARK                            x       y       z     vdW  Elec       q    Type
DOCKED: REMARK                         _______ _______ _______ _____ _____    ______ ____
DOCKED: USER                              x       y       z     vdW  Elec       q    Type
DOCKED: USER                           _______ _______ _______ _____ _____    ______ ____
DOCKED: ROOT
DOCKED: ATOM      1  N   UNL     1      28.972 -14.657   0.011 -0.15 -0.00    +0.000 N 
DOCKED: ATOM      2  H   UNL     1      28.021 -14.578   0.370 -0.02 -0.00    +0.000 HD
DOCKED: ENDROOT
DOCKED: BRANCH   1   3
DOCKED: ATOM      3  C   UNL     1      28.899 -15.810  -0.924 -0.23 -0.00    +0.000 C 
DOCKED: BRANCH   3   7
DOCKED: ATOM      4  C   UNL     1      24.921 -17.517  -1.283 -0.61 -0.00    +0.000 A 
DOCKED: ATOM      5  C   UNL     1      25.774 -17.903  -0.239 -0.59 -0.00    +0.000 A 
DOCKED: ATOM      6  C   UNL     1      27.053 -17.353  -0.121 -0.42 -0.00    +0.000 A 
DOCKED: ATOM      7  C   UNL     1      27.518 -16.422  -1.065 -0.35 -0.00    +0.000 A 
DOCKED: ATOM      8  C   UNL     1      26.662 -16.023  -2.103 -0.38 -0.00    +0.000 A 
DOCKED: ATOM      9  C   UNL     1      25.382 -16.573  -2.222 -0.51 -0.00    +0.000 A 
DOCKED: BRANCH   4  11
DOCKED: ATOM     10  C   UNL     1      22.567 -17.855  -0.538 -0.81 -0.00    +0.000 C 
DOCKED: ATOM     11  C   UNL     1      23.578 -18.140  -1.372 -0.77 -0.00    +0.000 C 
DOCKED: BRANCH  10  13
DOCKED: ATOM     12  O   UNL     1      20.247 -17.861  -1.071 -2.16 -0.00    +0.000 OA
DOCKED: ATOM     13  C   UNL     1      21.246 -18.505  -0.652 -0.81 -0.00    +0.000 C 
DOCKED: ATOM     14  N   UNL     1      21.097 -19.878  -0.282 -0.68 -0.00    +0.000 N 
DOCKED: ATOM     15  O   UNL     1      19.893 -20.487  -0.379 -1.32 -0.00    +0.000 OA
DOCKED: ATOM     16  H   UNL     1      21.876 -20.383   0.046 -0.56 -0.00    +0.000 HD
DOCKED: ENDBRANCH  10  13
DOCKED: ENDBRANCH   4  11
DOCKED: ENDBRANCH   3   7
DOCKED: ENDBRANCH   1   3
DOCKED: BRANCH   1  17
DOCKED: ATOM     17  C   UNL     1      29.231 -13.348  -0.631 -0.07 -0.00    +0.000 C 
DOCKED: BRANCH  17  18
DOCKED: ATOM     18  C   UNL     1      28.035 -12.398  -0.484 -0.12 -0.00    +0.000 C 
DOCKED: BRANCH  18  19
DOCKED: ATOM     19  O   UNL     1      27.024 -12.985   0.290 -0.26 -0.00    +0.000 OA
DOCKED: ATOM     20  H   UNL     1      26.951 -12.516   1.136 -0.00 -0.00    +0.000 HD
DOCKED: ENDBRANCH  18  19
DOCKED: ENDBRANCH  17  18
DOCKED: ENDBRANCH   1  17
DOCKED: BRANCH   1  21
DOCKED: ATOM     21  C   UNL     1      29.838 -14.903   1.188 -0.08 -0.00    +0.000 C 
DOCKED: BRANCH  21  22
DOCKED: ATOM     22  C   UNL     1      30.187 -13.582   1.882 -0.12 -0.00    +0.000 C 
DOCKED: BRANCH  22  23
DOCKED: ATOM     23  C   UNL     1      29.593 -13.527   3.259 -0.19 -0.00    +0.000 A 
DOCKED: ATOM     24  C   UNL     1      29.758 -14.476   4.265 -0.34 -0.00    +0.000 A 
DOCKED: ATOM     25  N   UNL     1      29.198 -14.044   5.418 -0.41 -0.00    +0.000 N 
DOCKED: ATOM     26  C   UNL     1      28.696 -12.826   5.154 -0.34 -0.00    +0.000 A 
DOCKED: ATOM     27  C   UNL     1      28.919 -12.474   3.848 -0.19 -0.00    +0.000 A 
DOCKED: ATOM     28  C   UNL     1      28.520 -11.235   3.342 -0.17 +0.00    +0.000 A 
DOCKED: ATOM     29  C   UNL     1      27.869 -10.348   4.219 -0.26 +0.00    +0.000 A 
DOCKED: ATOM     30  C   UNL     1      27.637 -10.712   5.564 -0.29 +0.00    +0.000 A 
DOCKED: ATOM     31  C   UNL     1      28.055 -11.967   6.045 -0.33 +0.00    +0.000 A 
DOCKED: ATOM     32  H   UNL     1      29.166 -14.526   6.276 -0.30 -0.00    +0.000 HD
DOCKED: ENDBRANCH  22  23
DOCKED: ENDBRANCH  21  22
DOCKED: ENDBRANCH   1  21
DOCKED: TORSDOF 10
DOCKED: TER
DOCKED: ENDMDL
________________________________________________________________________________


	BEGINNING GENETIC ALGORITHM DOCKING 57 of 100
Run: 57 Seed: 1592235324 2061486853 [ Run 57 of 100 GA/GALS ]
Beginning LAMARCKIAN GENETIC ALGORITHM (LGA), with a maximum of 2500000 energy evaluations.

Final-Value: -17.326


	FINAL GENETIC ALGORITHM DOCKED STATE
	_______________________________________________


Detailed state:  trans 27.635 -15.809 -0.906 quatxyzw 0.177504 -0.318092 -0.891915 -0.267950 center 0.285 0.077 -0.044 ntor 10 57.5382 129.3213 67.0337 121.0155 137.9585 162.6562 167.7644 -177.1491 171.3078 3.7466
State:	 27.635 -15.809  -0.906   0.184 -0.330 -0.926 -148.915     57.54  129.32   67.03  121.02  137.96  162.66  167.76 -177.15  171.31    3.75

DOCKED: MODEL       57
DOCKED: USER    Run = 57
DOCKED: USER    DPF = ligand_dock.biased.dpf
DOCKED: USER  
DOCKED: USER    Estimated Free Energy of Binding    =  -12.52 kcal/mol  [=(1)+(2)+(3)-(4)]
DOCKED: USER    Estimated Inhibition Constant, Ki   =  668.50 pM (picomolar)  [Temperature = 298.15 K]
DOCKED: USER    
DOCKED: USER    (1) Final Intermolecular Energy     =  -15.50 kcal/mol
DOCKED: USER        vdW + Hbond + desolv Energy     =  -15.50 kcal/mol
DOCKED: USER        Electrostatic Energy            =   +0.00 kcal/mol
DOCKED: USER    (2) Final Total Internal Energy     =   -1.83 kcal/mol
DOCKED: USER    (3) Torsional Free Energy           =   +2.98 kcal/mol
DOCKED: USER    (4) Unbound System's Energy  [=(2)] =   -1.83 kcal/mol
DOCKED: USER    
DOCKED: USER    
DOCKED: USER    NEWDPF move ligand.pdbqt
DOCKED: USER    NEWDPF about 0.285000 0.077000 -0.044000
DOCKED: USER    NEWDPF tran0 27.635213 -15.808648 -0.906386
DOCKED: USER    NEWDPF quaternion0 0.177504 -0.318092 -0.891915 -0.267950
DOCKED: USER    NEWDPF axisangle0 0.184241 -0.330165 -0.925768 -148.915373
DOCKED: USER    NEWDPF quat0 0.184241 -0.330165 -0.925768 -148.915373
DOCKED: USER    NEWDPF dihe0 57.54 129.32 67.03 121.02 137.96 162.66 167.76 -177.15 171.31 3.75 
DOCKED: USER  keepresnum = 1 
DOCKED: USER  
DOCKED: REMARK  Name = 
DOCKED: REMARK  10 active torsions:
DOCKED: REMARK  status: ('A' for Active; 'I' for Inactive)
DOCKED: REMARK    1  A    between atoms: C_2  and  C_5
DOCKED: REMARK    2  A    between atoms: C_6  and  C_7
DOCKED: REMARK    3  A    between atoms: C_10  and  C_11
DOCKED: REMARK    4  A    between atoms: C_11  and  N_12
DOCKED: REMARK    5  A    between atoms: N_12  and  C_13
DOCKED: REMARK    6  A    between atoms: N_12  and  C_16
DOCKED: REMARK    7  A    between atoms: C_13  and  C_14
DOCKED: REMARK    8  A    between atoms: C_14  and  O_15
DOCKED: REMARK    9  A    between atoms: C_16  and  C_17
DOCKED: REMARK   10  A    between atoms: C_17  and  C_18
DOCKED: REMARK                            x       y       z     vdW  Elec       q    Type
DOCKED: REMARK                         _______ _______ _______ _____ _____    ______ ____
DOCKED: USER                              x       y       z     vdW  Elec       q    Type
DOCKED: USER                           _______ _______ _______ _____ _____    ______ ____
DOCKED: ROOT
DOCKED: ATOM      1  N   UNL     1      28.589 -14.874  -0.953 -0.14 -0.00    +0.000 N 
DOCKED: ATOM      2  H   UNL     1      29.545 -14.692  -1.258 +0.00 -0.00    +0.000 HD
DOCKED: ENDROOT
DOCKED: BRANCH   1   3
DOCKED: ATOM      3  C   UNL     1      28.169 -16.027  -1.793 -0.29 -0.00    +0.000 C 
DOCKED: BRANCH   3   7
DOCKED: ATOM      4  C   UNL     1      24.150 -17.436  -0.940 -0.65 -0.00    +0.000 A 
DOCKED: ATOM      5  C   UNL     1      25.264 -18.049  -0.348 -0.62 -0.00    +0.000 A 
DOCKED: ATOM      6  C   UNL     1      26.557 -17.595  -0.620 -0.52 -0.00    +0.000 A 
DOCKED: ATOM      7  C   UNL     1      26.766 -16.532  -1.515 -0.40 -0.00    +0.000 A 
DOCKED: ATOM      8  C   UNL     1      25.652 -15.908  -2.097 -0.47 -0.00    +0.000 A 
DOCKED: ATOM      9  C   UNL     1      24.358 -16.361  -1.826 -0.37 -0.00    +0.000 A 
DOCKED: BRANCH   4  11
DOCKED: ATOM     10  C   UNL     1      22.393 -19.204  -0.937 -0.77 -0.00    +0.000 C 
DOCKED: ATOM     11  C   UNL     1      22.799 -17.964  -0.628 -0.82 -0.00    +0.000 C 
DOCKED: BRANCH  10  13
DOCKED: ATOM     12  O   UNL     1      20.258 -20.070  -1.537 -2.22 -0.00    +0.000 OA
DOCKED: ATOM     13  C   UNL     1      21.035 -19.690  -0.620 -0.79 -0.00    +0.000 C 
DOCKED: ATOM     14  N   UNL     1      20.596 -19.728   0.740 -0.66 -0.00    +0.000 N 
DOCKED: ATOM     15  O   UNL     1      19.354 -20.170   1.046 -0.78 -0.00    +0.000 OA
DOCKED: ATOM     16  H   UNL     1      21.200 -19.432   1.458 -0.42 -0.00    +0.000 HD
DOCKED: ENDBRANCH  10  13
DOCKED: ENDBRANCH   4  11
DOCKED: ENDBRANCH   3   7
DOCKED: ENDBRANCH   1   3
DOCKED: BRANCH   1  17
DOCKED: ATOM     17  C   UNL     1      28.714 -15.167   0.492 -0.19 -0.00    +0.000 C 
DOCKED: BRANCH  17  18
DOCKED: ATOM     18  C   UNL     1      29.980 -14.539   1.091 -0.14 -0.00    +0.000 C 
DOCKED: BRANCH  18  19
DOCKED: ATOM     19  O   UNL     1      30.088 -14.840   2.456 -0.21 -0.00    +0.000 OA
DOCKED: ATOM     20  H   UNL     1      29.309 -15.343   2.739 -1.94 -0.00    +0.000 HD
DOCKED: ENDBRANCH  18  19
DOCKED: ENDBRANCH  17  18
DOCKED: ENDBRANCH   1  17
DOCKED: BRANCH   1  21
DOCKED: ATOM     21  C   UNL     1      27.826 -13.634  -1.227 -0.16 -0.00    +0.000 C 
DOCKED: BRANCH  21  22
DOCKED: ATOM     22  C   UNL     1      26.652 -13.501  -0.251 -0.28 -0.00    +0.000 C 
DOCKED: BRANCH  22  23
DOCKED: ATOM     23  C   UNL     1      26.922 -12.434   0.770 -0.24 -0.00    +0.000 A 
DOCKED: ATOM     24  C   UNL     1      26.746 -11.064   0.596 -0.22 +0.00    +0.000 A 
DOCKED: ATOM     25  N   UNL     1      26.953 -10.409   1.760 -0.26 +0.00    +0.000 N 
DOCKED: ATOM     26  C   UNL     1      27.244 -11.353   2.671 -0.26 +0.00    +0.000 A 
DOCKED: ATOM     27  C   UNL     1      27.231 -12.602   2.107 -0.27 -0.00    +0.000 A 
DOCKED: ATOM     28  C   UNL     1      27.470 -13.752   2.862 -0.34 -0.00    +0.000 A 
DOCKED: ATOM     29  C   UNL     1      27.731 -13.592   4.235 -0.46 -0.00    +0.000 A 
DOCKED: ATOM     30  C   UNL     1      27.745 -12.304   4.816 -0.33 +0.00    +0.000 A 
DOCKED: ATOM     31  C   UNL     1      27.497 -11.165   4.029 -0.26 +0.00    +0.000 A 
DOCKED: ATOM     32  H   UNL     1      26.902  -9.437   1.909 -0.02 +0.00    +0.000 HD
DOCKED: ENDBRANCH  22  23
DOCKED: ENDBRANCH  21  22
DOCKED: ENDBRANCH   1  21
DOCKED: TORSDOF 10
DOCKED: TER
DOCKED: ENDMDL
________________________________________________________________________________


	BEGINNING GENETIC ALGORITHM DOCKING 58 of 100
Run: 58 Seed: 1428031236 699218101 [ Run 58 of 100 GA/GALS ]
Beginning LAMARCKIAN GENETIC ALGORITHM (LGA), with a maximum of 2500000 energy evaluations.

Final-Value: -16.867


	FINAL GENETIC ALGORITHM DOCKED STATE
	_______________________________________________


Detailed state:  trans 27.522 -15.719 -1.948 quatxyzw -0.162103 0.949974 -0.159508 0.214078 center 0.285 0.077 -0.044 ntor 10 -103.3246 176.3098 -152.8103 -179.5892 79.4094 -180.0000 -43.2628 -43.9082 -3.0125 13.6101
State:	 27.522 -15.719  -1.948  -0.166  0.973 -0.163 155.277   -103.32  176.31 -152.81 -179.59   79.41 -180.00  -43.26  -43.91   -3.01   13.61

DOCKED: MODEL       58
DOCKED: USER    Run = 58
DOCKED: USER    DPF = ligand_dock.biased.dpf
DOCKED: USER  
DOCKED: USER    Estimated Free Energy of Binding    =  -12.12 kcal/mol  [=(1)+(2)+(3)-(4)]
DOCKED: USER    Estimated Inhibition Constant, Ki   =    1.31 nM (nanomolar)  [Temperature = 298.15 K]
DOCKED: USER    
DOCKED: USER    (1) Final Intermolecular Energy     =  -15.10 kcal/mol
DOCKED: USER        vdW + Hbond + desolv Energy     =  -15.10 kcal/mol
DOCKED: USER        Electrostatic Energy            =   +0.00 kcal/mol
DOCKED: USER    (2) Final Total Internal Energy     =   -1.77 kcal/mol
DOCKED: USER    (3) Torsional Free Energy           =   +2.98 kcal/mol
DOCKED: USER    (4) Unbound System's Energy  [=(2)] =   -1.77 kcal/mol
DOCKED: USER    
DOCKED: USER    
DOCKED: USER    NEWDPF move ligand.pdbqt
DOCKED: USER    NEWDPF about 0.285000 0.077000 -0.044000
DOCKED: USER    NEWDPF tran0 27.522423 -15.719498 -1.948125
DOCKED: USER    NEWDPF quaternion0 -0.162103 0.949974 -0.159508 0.214078
DOCKED: USER    NEWDPF axisangle0 -0.165950 0.972520 -0.163293 155.277136
DOCKED: USER    NEWDPF quat0 -0.165950 0.972520 -0.163293 155.277136
DOCKED: USER    NEWDPF dihe0 -103.32 176.31 -152.81 -179.59 79.41 -180.00 -43.26 -43.91 -3.01 13.61 
DOCKED: USER  keepresnum = 1 
DOCKED: USER  
DOCKED: REMARK  Name = 
DOCKED: REMARK  10 active torsions:
DOCKED: REMARK  status: ('A' for Active; 'I' for Inactive)
DOCKED: REMARK    1  A    between atoms: C_2  and  C_5
DOCKED: REMARK    2  A    between atoms: C_6  and  C_7
DOCKED: REMARK    3  A    between atoms: C_10  and  C_11
DOCKED: REMARK    4  A    between atoms: C_11  and  N_12
DOCKED: REMARK    5  A    between atoms: N_12  and  C_13
DOCKED: REMARK    6  A    between atoms: N_12  and  C_16
DOCKED: REMARK    7  A    between atoms: C_13  and  C_14
DOCKED: REMARK    8  A    between atoms: C_14  and  O_15
DOCKED: REMARK    9  A    between atoms: C_16  and  C_17
DOCKED: REMARK   10  A    between atoms: C_17  and  C_18
DOCKED: REMARK                            x       y       z     vdW  Elec       q    Type
DOCKED: REMARK                         _______ _______ _______ _____ _____    ______ ____
DOCKED: USER                              x       y       z     vdW  Elec       q    Type
DOCKED: USER                           _______ _______ _______ _____ _____    ______ ____
DOCKED: ROOT
DOCKED: ATOM      1  N   UNL     1      28.768 -15.649  -2.427 -0.19 -0.00    +0.000 N 
DOCKED: ATOM      2  H   UNL     1      29.675 -15.203  -2.293 +0.00 -0.00    +0.000 HD
DOCKED: ENDROOT
DOCKED: BRANCH   1   3
DOCKED: ATOM      3  C   UNL     1      28.118 -15.526  -1.096 -0.26 -0.00    +0.000 C 
DOCKED: BRANCH   3   7
DOCKED: ATOM      4  C   UNL     1      24.393 -17.711  -0.624 -0.65 -0.00    +0.000 A 
DOCKED: ATOM      5  C   UNL     1      25.622 -18.316  -0.320 -0.60 -0.00    +0.000 A 
DOCKED: ATOM      6  C   UNL     1      26.820 -17.613  -0.470 -0.49 -0.00    +0.000 A 
DOCKED: ATOM      7  C   UNL     1      26.818 -16.295  -0.954 -0.40 -0.00    +0.000 A 
DOCKED: ATOM      8  C   UNL     1      25.589 -15.682  -1.246 -0.42 -0.00    +0.000 A 
DOCKED: ATOM      9  C   UNL     1      24.389 -16.383  -1.097 -0.41 -0.00    +0.000 A 
DOCKED: BRANCH   4  11
DOCKED: ATOM     10  C   UNL     1      22.285 -18.749  -1.456 -0.65 -0.00    +0.000 C 
DOCKED: ATOM     11  C   UNL     1      23.150 -18.504  -0.461 -0.82 -0.00    +0.000 C 
DOCKED: BRANCH  10  13
DOCKED: ATOM     12  O   UNL     1      20.251 -19.735  -2.204 -2.32 -0.00    +0.000 OA
DOCKED: ATOM     13  C   UNL     1      21.052 -19.534  -1.250 -0.75 -0.00    +0.000 C 
DOCKED: ATOM     14  N   UNL     1      20.760 -20.073   0.041 -0.69 -0.00    +0.000 N 
DOCKED: ATOM     15  O   UNL     1      19.633 -20.794   0.245 -0.99 -0.00    +0.000 OA
DOCKED: ATOM     16  H   UNL     1      21.384 -19.918   0.787 -0.52 -0.00    +0.000 HD
DOCKED: ENDBRANCH  10  13
DOCKED: ENDBRANCH   4  11
DOCKED: ENDBRANCH   3   7
DOCKED: ENDBRANCH   1   3
DOCKED: BRANCH   1  17
DOCKED: ATOM     17  C   UNL     1      28.129 -14.867  -3.509 -0.25 -0.00    +0.000 C 
DOCKED: BRANCH  17  18
DOCKED: ATOM     18  C   UNL     1      26.931 -15.610  -4.115 -0.42 -0.00    +0.000 C 
DOCKED: BRANCH  18  19
DOCKED: ATOM     19  O   UNL     1      26.992 -15.597  -5.515 -1.14 +0.00    +0.000 OA
DOCKED: ATOM     20  H   UNL     1      26.126 -15.838  -5.879 -0.09 +0.00    +0.000 HD
DOCKED: ENDBRANCH  18  19
DOCKED: ENDBRANCH  17  18
DOCKED: ENDBRANCH   1  17
DOCKED: BRANCH   1  21
DOCKED: ATOM     21  C   UNL     1      29.053 -17.050  -2.819 -0.16 -0.00    +0.000 C 
DOCKED: BRANCH  21  22
DOCKED: ATOM     22  C   UNL     1      30.492 -17.181  -3.327 -0.20 -0.00    +0.000 C 
DOCKED: BRANCH  22  23
DOCKED: ATOM     23  C   UNL     1      30.525 -17.296  -4.823 -0.24 -0.00    +0.000 A 
DOCKED: ATOM     24  C   UNL     1      30.790 -16.267  -5.722 -0.21 -0.00    +0.000 A 
DOCKED: ATOM     25  N   UNL     1      30.872 -16.750  -6.983 -0.29 -0.00    +0.000 N 
DOCKED: ATOM     26  C   UNL     1      30.677 -18.075  -6.886 -0.32 -0.00    +0.000 A 
DOCKED: ATOM     27  C   UNL     1      30.465 -18.449  -5.584 -0.32 -0.00    +0.000 A 
DOCKED: ATOM     28  C   UNL     1      30.271 -19.784  -5.225 -0.24 -0.00    +0.000 A 
DOCKED: ATOM     29  C   UNL     1      30.296 -20.748  -6.248 -0.38 -0.00    +0.000 A 
DOCKED: ATOM     30  C   UNL     1      30.513 -20.363  -7.589 -0.34 -0.00    +0.000 A 
DOCKED: ATOM     31  C   UNL     1      30.709 -19.010  -7.920 -0.33 -0.00    +0.000 A 
DOCKED: ATOM     32  H   UNL     1      31.041 -16.233  -7.804 -0.03 -0.00    +0.000 HD
DOCKED: ENDBRANCH  22  23
DOCKED: ENDBRANCH  21  22
DOCKED: ENDBRANCH   1  21
DOCKED: TORSDOF 10
DOCKED: TER
DOCKED: ENDMDL
________________________________________________________________________________


	BEGINNING GENETIC ALGORITHM DOCKING 59 of 100
Run: 59 Seed: 14452341 801244294 [ Run 59 of 100 GA/GALS ]
Beginning LAMARCKIAN GENETIC ALGORITHM (LGA), with a maximum of 2500000 energy evaluations.

Final-Value: -16.652


	FINAL GENETIC ALGORITHM DOCKED STATE
	_______________________________________________


Detailed state:  trans 28.450 -15.159 -1.785 quatxyzw 0.618190 0.652765 0.418822 0.127779 center 0.285 0.077 -0.044 ntor 10 157.8451 -42.7147 71.0112 -148.6811 -151.5758 43.4085 179.8567 -180.0000 -159.7278 137.4351
State:	 28.450 -15.159  -1.785   0.623  0.658  0.422 165.318    157.85  -42.71   71.01 -148.68 -151.58   43.41  179.86 -180.00 -159.73  137.44

DOCKED: MODEL       59
DOCKED: USER    Run = 59
DOCKED: USER    DPF = ligand_dock.biased.dpf
DOCKED: USER  
DOCKED: USER    Estimated Free Energy of Binding    =  -11.53 kcal/mol  [=(1)+(2)+(3)-(4)]
DOCKED: USER    Estimated Inhibition Constant, Ki   =    3.55 nM (nanomolar)  [Temperature = 298.15 K]
DOCKED: USER    
DOCKED: USER    (1) Final Intermolecular Energy     =  -14.51 kcal/mol
DOCKED: USER        vdW + Hbond + desolv Energy     =  -14.51 kcal/mol
DOCKED: USER        Electrostatic Energy            =   +0.00 kcal/mol
DOCKED: USER    (2) Final Total Internal Energy     =   -2.14 kcal/mol
DOCKED: USER    (3) Torsional Free Energy           =   +2.98 kcal/mol
DOCKED: USER    (4) Unbound System's Energy  [=(2)] =   -2.14 kcal/mol
DOCKED: USER    
DOCKED: USER    
DOCKED: USER    NEWDPF move ligand.pdbqt
DOCKED: USER    NEWDPF about 0.285000 0.077000 -0.044000
DOCKED: USER    NEWDPF tran0 28.450361 -15.158766 -1.785069
DOCKED: USER    NEWDPF quaternion0 0.618190 0.652765 0.418822 0.127779
DOCKED: USER    NEWDPF axisangle0 0.623299 0.658160 0.422284 165.317499
DOCKED: USER    NEWDPF quat0 0.623299 0.658160 0.422284 165.317499
DOCKED: USER    NEWDPF dihe0 157.85 -42.71 71.01 -148.68 -151.58 43.41 179.86 -180.00 -159.73 137.44 
DOCKED: USER  keepresnum = 1 
DOCKED: USER  
DOCKED: REMARK  Name = 
DOCKED: REMARK  10 active torsions:
DOCKED: REMARK  status: ('A' for Active; 'I' for Inactive)
DOCKED: REMARK    1  A    between atoms: C_2  and  C_5
DOCKED: REMARK    2  A    between atoms: C_6  and  C_7
DOCKED: REMARK    3  A    between atoms: C_10  and  C_11
DOCKED: REMARK    4  A    between atoms: C_11  and  N_12
DOCKED: REMARK    5  A    between atoms: N_12  and  C_13
DOCKED: REMARK    6  A    between atoms: N_12  and  C_16
DOCKED: REMARK    7  A    between atoms: C_13  and  C_14
DOCKED: REMARK    8  A    between atoms: C_14  and  O_15
DOCKED: REMARK    9  A    between atoms: C_16  and  C_17
DOCKED: REMARK   10  A    between atoms: C_17  and  C_18
DOCKED: REMARK                            x       y       z     vdW  Elec       q    Type
DOCKED: REMARK                         _______ _______ _______ _____ _____    ______ ____
DOCKED: USER                              x       y       z     vdW  Elec       q    Type
DOCKED: USER                           _______ _______ _______ _____ _____    ______ ____
DOCKED: ROOT
DOCKED: ATOM      1  N   UNL     1      28.426 -16.077  -2.755 -0.25 -0.00    +0.000 N 
DOCKED: ATOM      2  H   UNL     1      28.406 -17.081  -2.935 -0.02 -0.00    +0.000 HD
DOCKED: ENDROOT
DOCKED: BRANCH   1   3
DOCKED: ATOM      3  C   UNL     1      27.899 -15.960  -1.370 -0.31 -0.00    +0.000 C 
DOCKED: BRANCH   3   7
DOCKED: ATOM      4  C   UNL     1      24.278 -18.255  -0.675 -0.70 -0.00    +0.000 A 
DOCKED: ATOM      5  C   UNL     1      24.271 -17.151  -1.540 -0.59 -0.00    +0.000 A 
DOCKED: ATOM      6  C   UNL     1      25.436 -16.414  -1.766 -0.52 -0.00    +0.000 A 
DOCKED: ATOM      7  C   UNL     1      26.630 -16.749  -1.107 -0.44 -0.00    +0.000 A 
DOCKED: ATOM      8  C   UNL     1      26.644 -17.861  -0.252 -0.52 -0.00    +0.000 A 
DOCKED: ATOM      9  C   UNL     1      25.480 -18.600  -0.025 -0.44 -0.00    +0.000 A 
DOCKED: BRANCH   4  11
DOCKED: ATOM     10  C   UNL     1      21.886 -18.771  -1.152 -0.77 -0.00    +0.000 C 
DOCKED: ATOM     11  C   UNL     1      23.011 -18.998  -0.459 -0.76 -0.00    +0.000 C 
DOCKED: BRANCH  10  13
DOCKED: ATOM     12  O   UNL     1      19.819 -19.735  -1.832 -2.36 -0.00    +0.000 OA
DOCKED: ATOM     13  C   UNL     1      20.642 -19.524  -0.900 -0.88 -0.00    +0.000 C 
DOCKED: ATOM     14  N   UNL     1      20.365 -20.018   0.412 -0.71 -0.00    +0.000 N 
DOCKED: ATOM     15  O   UNL     1      19.228 -20.710   0.659 -0.85 -0.00    +0.000 OA
DOCKED: ATOM     16  H   UNL     1      21.006 -19.854   1.142 -0.50 -0.00    +0.000 HD
DOCKED: ENDBRANCH  10  13
DOCKED: ENDBRANCH   4  11
DOCKED: ENDBRANCH   3   7
DOCKED: ENDBRANCH   1   3
DOCKED: BRANCH   1  17
DOCKED: ATOM     17  C   UNL     1      29.849 -15.703  -2.916 -0.15 -0.00    +0.000 C 
DOCKED: BRANCH  17  18
DOCKED: ATOM     18  C   UNL     1      30.573 -16.637  -3.895 -0.18 -0.00    +0.000 C 
DOCKED: BRANCH  18  19
DOCKED: ATOM     19  O   UNL     1      29.664 -17.487  -4.539 -0.34 -0.00    +0.000 OA
DOCKED: ATOM     20  H   UNL     1      29.436 -17.119  -5.407 -0.03 -0.00    +0.000 HD
DOCKED: ENDBRANCH  18  19
DOCKED: ENDBRANCH  17  18
DOCKED: ENDBRANCH   1  17
DOCKED: BRANCH   1  21
DOCKED: ATOM     21  C   UNL     1      27.547 -15.459  -3.776 -0.36 -0.00    +0.000 C 
DOCKED: BRANCH  21  22
DOCKED: ATOM     22  C   UNL     1      27.953 -14.002  -4.020 -0.23 -0.00    +0.000 C 
DOCKED: BRANCH  22  23
DOCKED: ATOM     23  C   UNL     1      28.372 -13.794  -5.447 -0.24 -0.00    +0.000 A 
DOCKED: ATOM     24  C   UNL     1      29.091 -14.691  -6.233 -0.32 -0.00    +0.000 A 
DOCKED: ATOM     25  N   UNL     1      29.176 -14.241  -7.506 -0.32 -0.00    +0.000 N 
DOCKED: ATOM     26  C   UNL     1      28.506 -13.077  -7.533 -0.23 -0.00    +0.000 A 
DOCKED: ATOM     27  C   UNL     1      27.998 -12.771  -6.297 -0.20 -0.00    +0.000 A 
DOCKED: ATOM     28  C   UNL     1      27.231 -11.624  -6.081 -0.17 -0.00    +0.000 A 
DOCKED: ATOM     29  C   UNL     1      26.994 -10.778  -7.179 -0.15 -0.00    +0.000 A 
DOCKED: ATOM     30  C   UNL     1      27.519 -11.092  -8.452 -0.18 -0.00    +0.000 A 
DOCKED: ATOM     31  C   UNL     1      28.285 -12.258  -8.639 -0.24 -0.00    +0.000 A 
DOCKED: ATOM     32  H   UNL     1      29.636 -14.679  -8.257 -0.54 -0.00    +0.000 HD
DOCKED: ENDBRANCH  22  23
DOCKED: ENDBRANCH  21  22
DOCKED: ENDBRANCH   1  21
DOCKED: TORSDOF 10
DOCKED: TER
DOCKED: ENDMDL
________________________________________________________________________________


	BEGINNING GENETIC ALGORITHM DOCKING 60 of 100
Run: 60 Seed: 1002850249 1527230301 [ Run 60 of 100 GA/GALS ]
Beginning LAMARCKIAN GENETIC ALGORITHM (LGA), with a maximum of 2500000 energy evaluations.

Final-Value: -16.540


	FINAL GENETIC ALGORITHM DOCKED STATE
	_______________________________________________


Detailed state:  trans 29.084 -16.274 -2.183 quatxyzw -0.527917 0.496910 -0.225728 -0.650716 center 0.285 0.077 -0.044 ntor 10 -180.0000 -37.8900 23.1230 113.8095 134.8906 3.2822 152.1132 -81.5369 150.7957 180.0000
State:	 29.084 -16.274  -2.183  -0.695  0.654 -0.297 -98.809   -180.00  -37.89   23.12  113.81  134.89    3.28  152.11  -81.54  150.80  180.00

DOCKED: MODEL       60
DOCKED: USER    Run = 60
DOCKED: USER    DPF = ligand_dock.biased.dpf
DOCKED: USER  
DOCKED: USER    Estimated Free Energy of Binding    =  -11.00 kcal/mol  [=(1)+(2)+(3)-(4)]
DOCKED: USER    Estimated Inhibition Constant, Ki   =    8.64 nM (nanomolar)  [Temperature = 298.15 K]
DOCKED: USER    
DOCKED: USER    (1) Final Intermolecular Energy     =  -13.98 kcal/mol
DOCKED: USER        vdW + Hbond + desolv Energy     =  -13.98 kcal/mol
DOCKED: USER        Electrostatic Energy            =   +0.00 kcal/mol
DOCKED: USER    (2) Final Total Internal Energy     =   -2.56 kcal/mol
DOCKED: USER    (3) Torsional Free Energy           =   +2.98 kcal/mol
DOCKED: USER    (4) Unbound System's Energy  [=(2)] =   -2.56 kcal/mol
DOCKED: USER    
DOCKED: USER    
DOCKED: USER    NEWDPF move ligand.pdbqt
DOCKED: USER    NEWDPF about 0.285000 0.077000 -0.044000
DOCKED: USER    NEWDPF tran0 29.083638 -16.274345 -2.183226
DOCKED: USER    NEWDPF quaternion0 -0.527917 0.496910 -0.225728 -0.650716
DOCKED: USER    NEWDPF axisangle0 -0.695248 0.654413 -0.297276 -98.808833
DOCKED: USER    NEWDPF quat0 -0.695248 0.654413 -0.297276 -98.808833
DOCKED: USER    NEWDPF dihe0 -180.00 -37.89 23.12 113.81 134.89 3.28 152.11 -81.54 150.80 180.00 
DOCKED: USER  keepresnum = 1 
DOCKED: USER  
DOCKED: REMARK  Name = 
DOCKED: REMARK  10 active torsions:
DOCKED: REMARK  status: ('A' for Active; 'I' for Inactive)
DOCKED: REMARK    1  A    between atoms: C_2  and  C_5
DOCKED: REMARK    2  A    between atoms: C_6  and  C_7
DOCKED: REMARK    3  A    between atoms: C_10  and  C_11
DOCKED: REMARK    4  A    between atoms: C_11  and  N_12
DOCKED: REMARK    5  A    between atoms: N_12  and  C_13
DOCKED: REMARK    6  A    between atoms: N_12  and  C_16
DOCKED: REMARK    7  A    between atoms: C_13  and  C_14
DOCKED: REMARK    8  A    between atoms: C_14  and  O_15
DOCKED: REMARK    9  A    between atoms: C_16  and  C_17
DOCKED: REMARK   10  A    between atoms: C_17  and  C_18
DOCKED: REMARK                            x       y       z     vdW  Elec       q    Type
DOCKED: REMARK                         _______ _______ _______ _____ _____    ______ ____
DOCKED: USER                              x       y       z     vdW  Elec       q    Type
DOCKED: USER                           _______ _______ _______ _____ _____    ______ ____
DOCKED: ROOT
DOCKED: ATOM      1  N   UNL     1      28.574 -15.336  -1.381 -0.17 -0.00    +0.000 N 
DOCKED: ATOM      2  H   UNL     1      27.701 -14.932  -1.040 +0.00 -0.00    +0.000 HD
DOCKED: ENDROOT
DOCKED: BRANCH   1   3
DOCKED: ATOM      3  C   UNL     1      28.177 -16.694  -1.836 -0.34 -0.00    +0.000 C 
DOCKED: BRANCH   3   7
DOCKED: ATOM      4  C   UNL     1      24.047 -17.706  -0.951 -0.68 -0.00    +0.000 A 
DOCKED: ATOM      5  C   UNL     1      25.102 -18.427  -0.370 -0.59 -0.00    +0.000 A 
DOCKED: ATOM      6  C   UNL     1      26.430 -18.100  -0.653 -0.51 -0.00    +0.000 A 
DOCKED: ATOM      7  C   UNL     1      26.734 -17.061  -1.547 -0.41 -0.00    +0.000 A 
DOCKED: ATOM      8  C   UNL     1      25.682 -16.328  -2.118 -0.49 -0.00    +0.000 A 
DOCKED: ATOM      9  C   UNL     1      24.352 -16.654  -1.836 -0.45 -0.00    +0.000 A 
DOCKED: BRANCH   4  11
DOCKED: ATOM     10  C   UNL     1      22.107 -19.271  -0.988 -0.76 -0.00    +0.000 C 
DOCKED: ATOM     11  C   UNL     1      22.654 -18.101  -0.628 -0.83 -0.00    +0.000 C 
DOCKED: BRANCH  10  13
DOCKED: ATOM     12  O   UNL     1      19.845 -19.735  -1.566 -2.29 -0.00    +0.000 OA
DOCKED: ATOM     13  C   UNL     1      20.712 -19.623  -0.658 -0.86 -0.00    +0.000 C 
DOCKED: ATOM     14  N   UNL     1      20.339 -19.838   0.705 -0.69 -0.00    +0.000 N 
DOCKED: ATOM     15  O   UNL     1      19.063 -20.160   1.024 -0.78 -0.00    +0.000 OA
DOCKED: ATOM     16  H   UNL     1      21.014 -19.751   1.417 -0.51 -0.00    +0.000 HD
DOCKED: ENDBRANCH  10  13
DOCKED: ENDBRANCH   4  11
DOCKED: ENDBRANCH   3   7
DOCKED: ENDBRANCH   1   3
DOCKED: BRANCH   1  17
DOCKED: ATOM     17  C   UNL     1      29.006 -14.417  -2.458 -0.12 -0.00    +0.000 C 
DOCKED: BRANCH  17  18
DOCKED: ATOM     18  C   UNL     1      27.840 -13.566  -2.979 -0.17 -0.00    +0.000 C 
DOCKED: BRANCH  18  19
DOCKED: ATOM     19  O   UNL     1      26.739 -13.645  -2.115 -0.26 -0.00    +0.000 OA
DOCKED: ATOM     20  H   UNL     1      26.531 -12.760  -1.776 -0.00 -0.00    +0.000 HD
DOCKED: ENDBRANCH  18  19
DOCKED: ENDBRANCH  17  18
DOCKED: ENDBRANCH   1  17
DOCKED: BRANCH   1  21
DOCKED: ATOM     21  C   UNL     1      29.502 -15.346  -0.225 -0.17 -0.00    +0.000 C 
DOCKED: BRANCH  21  22
DOCKED: ATOM     22  C   UNL     1      29.662 -13.934   0.346 -0.11 -0.00    +0.000 C 
DOCKED: BRANCH  22  23
DOCKED: ATOM     23  C   UNL     1      28.656 -13.676   1.429 -0.17 -0.00    +0.000 A 
DOCKED: ATOM     24  C   UNL     1      27.309 -13.372   1.247 -0.26 -0.00    +0.000 A 
DOCKED: ATOM     25  N   UNL     1      26.667 -13.337   2.437 -0.35 -0.00    +0.000 N 
DOCKED: ATOM     26  C   UNL     1      27.592 -13.629   3.366 -0.38 -0.00    +0.000 A 
DOCKED: ATOM     27  C   UNL     1      28.818 -13.846   2.791 -0.24 -0.00    +0.000 A 
DOCKED: ATOM     28  C   UNL     1      29.934 -14.200   3.552 -0.26 -0.00    +0.000 A 
DOCKED: ATOM     29  C   UNL     1      29.766 -14.327   4.943 -0.30 -0.00    +0.000 A 
DOCKED: ATOM     30  C   UNL     1      28.504 -14.102   5.535 -0.39 -0.00    +0.000 A 
DOCKED: ATOM     31  C   UNL     1      27.396 -13.750   4.741 -0.48 -0.00    +0.000 A 
DOCKED: ATOM     32  H   UNL     1      25.716 -13.136   2.589 +0.00 +0.00    +0.000 HD
DOCKED: ENDBRANCH  22  23
DOCKED: ENDBRANCH  21  22
DOCKED: ENDBRANCH   1  21
DOCKED: TORSDOF 10
DOCKED: TER
DOCKED: ENDMDL
________________________________________________________________________________


	BEGINNING GENETIC ALGORITHM DOCKING 61 of 100
Run: 61 Seed: 1750520498 1320919159 [ Run 61 of 100 GA/GALS ]
Beginning LAMARCKIAN GENETIC ALGORITHM (LGA), with a maximum of 2500000 energy evaluations.

Final-Value: -16.668


	FINAL GENETIC ALGORITHM DOCKED STATE
	_______________________________________________


Detailed state:  trans 27.972 -16.833 -2.119 quatxyzw 0.678838 -0.684808 0.248758 -0.091306 center 0.285 0.077 -0.044 ntor 10 -97.1580 173.9149 41.7154 81.8971 -10.8759 87.5171 166.9824 164.0832 -146.3343 -77.0784
State:	 27.972 -16.833  -2.119   0.682 -0.688  0.250 -169.523    -97.16  173.91   41.72   81.90  -10.88   87.52  166.98  164.08 -146.33  -77.08

DOCKED: MODEL       61
DOCKED: USER    Run = 61
DOCKED: USER    DPF = ligand_dock.biased.dpf
DOCKED: USER  
DOCKED: USER    Estimated Free Energy of Binding    =  -12.31 kcal/mol  [=(1)+(2)+(3)-(4)]
DOCKED: USER    Estimated Inhibition Constant, Ki   =  943.83 pM (picomolar)  [Temperature = 298.15 K]
DOCKED: USER    
DOCKED: USER    (1) Final Intermolecular Energy     =  -15.30 kcal/mol
DOCKED: USER        vdW + Hbond + desolv Energy     =  -15.30 kcal/mol
DOCKED: USER        Electrostatic Energy            =   +0.00 kcal/mol
DOCKED: USER    (2) Final Total Internal Energy     =   -1.37 kcal/mol
DOCKED: USER    (3) Torsional Free Energy           =   +2.98 kcal/mol
DOCKED: USER    (4) Unbound System's Energy  [=(2)] =   -1.37 kcal/mol
DOCKED: USER    
DOCKED: USER    
DOCKED: USER    NEWDPF move ligand.pdbqt
DOCKED: USER    NEWDPF about 0.285000 0.077000 -0.044000
DOCKED: USER    NEWDPF tran0 27.971673 -16.833331 -2.118640
DOCKED: USER    NEWDPF quaternion0 0.678838 -0.684808 0.248758 -0.091306
DOCKED: USER    NEWDPF axisangle0 0.681685 -0.687681 0.249801 -169.522526
DOCKED: USER    NEWDPF quat0 0.681685 -0.687681 0.249801 -169.522526
DOCKED: USER    NEWDPF dihe0 -97.16 173.91 41.72 81.90 -10.88 87.52 166.98 164.08 -146.33 -77.08 
DOCKED: USER  keepresnum = 1 
DOCKED: USER  
DOCKED: REMARK  Name = 
DOCKED: REMARK  10 active torsions:
DOCKED: REMARK  status: ('A' for Active; 'I' for Inactive)
DOCKED: REMARK    1  A    between atoms: C_2  and  C_5
DOCKED: REMARK    2  A    between atoms: C_6  and  C_7
DOCKED: REMARK    3  A    between atoms: C_10  and  C_11
DOCKED: REMARK    4  A    between atoms: C_11  and  N_12
DOCKED: REMARK    5  A    between atoms: N_12  and  C_13
DOCKED: REMARK    6  A    between atoms: N_12  and  C_16
DOCKED: REMARK    7  A    between atoms: C_13  and  C_14
DOCKED: REMARK    8  A    between atoms: C_14  and  O_15
DOCKED: REMARK    9  A    between atoms: C_16  and  C_17
DOCKED: REMARK   10  A    between atoms: C_17  and  C_18
DOCKED: REMARK                            x       y       z     vdW  Elec       q    Type
DOCKED: REMARK                         _______ _______ _______ _____ _____    ______ ____
DOCKED: USER                              x       y       z     vdW  Elec       q    Type
DOCKED: USER                           _______ _______ _______ _____ _____    ______ ____
DOCKED: ROOT
DOCKED: ATOM      1  N   UNL     1      28.326 -15.642  -2.608 -0.22 -0.00    +0.000 N 
DOCKED: ATOM      2  H   UNL     1      28.222 -14.636  -2.476 +0.01 -0.00    +0.000 HD
DOCKED: ENDROOT
DOCKED: BRANCH   1   3
DOCKED: ATOM      3  C   UNL     1      28.010 -16.205  -1.269 -0.33 -0.00    +0.000 C 
DOCKED: BRANCH   3   7
DOCKED: ATOM      4  C   UNL     1      23.936 -17.663  -0.897 -0.68 -0.00    +0.000 A 
DOCKED: ATOM      5  C   UNL     1      24.191 -16.353  -1.329 -0.27 -0.00    +0.000 A 
DOCKED: ATOM      6  C   UNL     1      25.501 -15.884  -1.452 -0.46 -0.00    +0.000 A 
DOCKED: ATOM      7  C   UNL     1      26.587 -16.709  -1.116 -0.44 -0.00    +0.000 A 
DOCKED: ATOM      8  C   UNL     1      26.336 -18.024  -0.696 -0.52 -0.00    +0.000 A 
DOCKED: ATOM      9  C   UNL     1      25.026 -18.495  -0.574 -0.59 -0.00    +0.000 A 
DOCKED: BRANCH   4  11
DOCKED: ATOM     10  C   UNL     1      22.122 -19.371  -0.975 -0.72 -0.00    +0.000 C 
DOCKED: ATOM     11  C   UNL     1      22.526 -18.109  -0.772 -0.82 -0.00    +0.000 C 
DOCKED: BRANCH  10  13
DOCKED: ATOM     12  O   UNL     1      19.895 -19.568  -1.794 -2.24 -0.00    +0.000 OA
DOCKED: ATOM     13  C   UNL     1      20.707 -19.774  -0.851 -0.79 -0.00    +0.000 C 
DOCKED: ATOM     14  N   UNL     1      20.250 -20.401   0.349 -0.70 -0.00    +0.000 N 
DOCKED: ATOM     15  O   UNL     1      18.956 -20.775   0.478 -0.89 -0.00    +0.000 OA
DOCKED: ATOM     16  H   UNL     1      20.881 -20.563   1.087 -0.54 -0.00    +0.000 HD
DOCKED: ENDBRANCH  10  13
DOCKED: ENDBRANCH   4  11
DOCKED: ENDBRANCH   3   7
DOCKED: ENDBRANCH   1   3
DOCKED: BRANCH   1  17
DOCKED: ATOM     17  C   UNL     1      27.353 -15.976  -3.672 -0.16 -0.00    +0.000 C 
DOCKED: BRANCH  17  18
DOCKED: ATOM     18  C   UNL     1      26.568 -14.739  -4.131 -0.49 -0.00    +0.000 C 
DOCKED: BRANCH  18  19
DOCKED: ATOM     19  O   UNL     1      25.200 -15.027  -4.237 -0.89 -0.00    +0.000 OA
DOCKED: ATOM     20  H   UNL     1      24.782 -14.391  -4.838 -0.20 -0.00    +0.000 HD
DOCKED: ENDBRANCH  18  19
DOCKED: ENDBRANCH  17  18
DOCKED: ENDBRANCH   1  17
DOCKED: BRANCH   1  21
DOCKED: ATOM     21  C   UNL     1      29.732 -15.858  -3.024 -0.18 -0.00    +0.000 C 
DOCKED: BRANCH  21  22
DOCKED: ATOM     22  C   UNL     1      29.942 -17.309  -3.467 -0.21 -0.00    +0.000 C 
DOCKED: BRANCH  22  23
DOCKED: ATOM     23  C   UNL     1      30.065 -17.401  -4.960 -0.27 -0.00    +0.000 A 
DOCKED: ATOM     24  C   UNL     1      30.130 -16.330  -5.848 -0.29 -0.00    +0.000 A 
DOCKED: ATOM     25  N   UNL     1      30.375 -16.772  -7.103 -0.35 -0.00    +0.000 N 
DOCKED: ATOM     26  C   UNL     1      30.479 -18.108  -7.014 -0.28 -0.00    +0.000 A 
DOCKED: ATOM     27  C   UNL     1      30.300 -18.531  -5.722 -0.32 -0.00    +0.000 A 
DOCKED: ATOM     28  C   UNL     1      30.397 -19.878  -5.369 -0.33 -0.00    +0.000 A 
DOCKED: ATOM     29  C   UNL     1      30.682 -20.804  -6.389 -0.37 -0.00    +0.000 A 
DOCKED: ATOM     30  C   UNL     1      30.866 -20.368  -7.720 -0.34 -0.00    +0.000 A 
DOCKED: ATOM     31  C   UNL     1      30.766 -19.003  -8.044 -0.35 -0.00    +0.000 A 
DOCKED: ATOM     32  H   UNL     1      30.458 -16.223  -7.917 -0.06 -0.00    +0.000 HD
DOCKED: ENDBRANCH  22  23
DOCKED: ENDBRANCH  21  22
DOCKED: ENDBRANCH   1  21
DOCKED: TORSDOF 10
DOCKED: TER
DOCKED: ENDMDL
________________________________________________________________________________


	BEGINNING GENETIC ALGORITHM DOCKING 62 of 100
Run: 62 Seed: 509678091 485420205 [ Run 62 of 100 GA/GALS ]
Beginning LAMARCKIAN GENETIC ALGORITHM (LGA), with a maximum of 2500000 energy evaluations.

Final-Value: -17.869


	FINAL GENETIC ALGORITHM DOCKED STATE
	_______________________________________________


Detailed state:  trans 27.048 -15.352 -0.829 quatxyzw -0.408521 0.410835 0.807478 0.110928 center 0.285 0.077 -0.044 ntor 10 148.1202 179.5142 76.1118 -81.6426 145.1590 -2.4123 179.7274 60.2510 -11.4949 -32.8578
State:	 27.048 -15.352  -0.829  -0.411  0.413  0.812 167.262    148.12  179.51   76.11  -81.64  145.16   -2.41  179.73   60.25  -11.49  -32.86

DOCKED: MODEL       62
DOCKED: USER    Run = 62
DOCKED: USER    DPF = ligand_dock.biased.dpf
DOCKED: USER  
DOCKED: USER    Estimated Free Energy of Binding    =  -13.27 kcal/mol  [=(1)+(2)+(3)-(4)]
DOCKED: USER    Estimated Inhibition Constant, Ki   =  186.27 pM (picomolar)  [Temperature = 298.15 K]
DOCKED: USER    
DOCKED: USER    (1) Final Intermolecular Energy     =  -16.26 kcal/mol
DOCKED: USER        vdW + Hbond + desolv Energy     =  -16.26 kcal/mol
DOCKED: USER        Electrostatic Energy            =   +0.00 kcal/mol
DOCKED: USER    (2) Final Total Internal Energy     =   -1.61 kcal/mol
DOCKED: USER    (3) Torsional Free Energy           =   +2.98 kcal/mol
DOCKED: USER    (4) Unbound System's Energy  [=(2)] =   -1.61 kcal/mol
DOCKED: USER    
DOCKED: USER    
DOCKED: USER    NEWDPF move ligand.pdbqt
DOCKED: USER    NEWDPF about 0.285000 0.077000 -0.044000
DOCKED: USER    NEWDPF tran0 27.047845 -15.352320 -0.829321
DOCKED: USER    NEWDPF quaternion0 -0.408521 0.410835 0.807478 0.110928
DOCKED: USER    NEWDPF axisangle0 -0.411057 0.413386 0.812492 167.262364
DOCKED: USER    NEWDPF quat0 -0.411057 0.413386 0.812492 167.262364
DOCKED: USER    NEWDPF dihe0 148.12 179.51 76.11 -81.64 145.16 -2.41 179.73 60.25 -11.49 -32.86 
DOCKED: USER  keepresnum = 1 
DOCKED: USER  
DOCKED: REMARK  Name = 
DOCKED: REMARK  10 active torsions:
DOCKED: REMARK  status: ('A' for Active; 'I' for Inactive)
DOCKED: REMARK    1  A    between atoms: C_2  and  C_5
DOCKED: REMARK    2  A    between atoms: C_6  and  C_7
DOCKED: REMARK    3  A    between atoms: C_10  and  C_11
DOCKED: REMARK    4  A    between atoms: C_11  and  N_12
DOCKED: REMARK    5  A    between atoms: N_12  and  C_13
DOCKED: REMARK    6  A    between atoms: N_12  and  C_16
DOCKED: REMARK    7  A    between atoms: C_13  and  C_14
DOCKED: REMARK    8  A    between atoms: C_14  and  O_15
DOCKED: REMARK    9  A    between atoms: C_16  and  C_17
DOCKED: REMARK   10  A    between atoms: C_17  and  C_18
DOCKED: REMARK                            x       y       z     vdW  Elec       q    Type
DOCKED: REMARK                         _______ _______ _______ _____ _____    ______ ____
DOCKED: USER                              x       y       z     vdW  Elec       q    Type
DOCKED: USER                           _______ _______ _______ _____ _____    ______ ____
DOCKED: ROOT
DOCKED: ATOM      1  N   UNL     1      27.973 -14.528  -0.330 -0.19 -0.00    +0.000 N 
DOCKED: ATOM      2  H   UNL     1      28.949 -14.468  -0.039 -0.00 -0.00    +0.000 HD
DOCKED: ENDROOT
DOCKED: BRANCH   1   3
DOCKED: ATOM      3  C   UNL     1      27.954 -15.689  -1.257 -0.28 -0.00    +0.000 C 
DOCKED: BRANCH   3   7
DOCKED: ATOM      4  C   UNL     1      24.429 -18.215  -1.020 -0.68 -0.00    +0.000 A 
DOCKED: ATOM      5  C   UNL     1      24.405 -17.019  -1.753 -0.55 -0.00    +0.000 A 
DOCKED: ATOM      6  C   UNL     1      25.539 -16.207  -1.831 -0.50 -0.00    +0.000 A 
DOCKED: ATOM      7  C   UNL     1      26.717 -16.561  -1.154 -0.42 -0.00    +0.000 A 
DOCKED: ATOM      8  C   UNL     1      26.749 -17.764  -0.431 -0.50 -0.00    +0.000 A 
DOCKED: ATOM      9  C   UNL     1      25.615 -18.577  -0.352 -0.54 -0.00    +0.000 A 
DOCKED: BRANCH   4  11
DOCKED: ATOM     10  C   UNL     1      22.010 -18.571  -0.532 -0.85 -0.00    +0.000 C 
DOCKED: ATOM     11  C   UNL     1      23.194 -19.036  -0.957 -0.80 -0.00    +0.000 C 
DOCKED: BRANCH  10  13
DOCKED: ATOM     12  O   UNL     1      20.103 -19.612  -1.503 -2.17 -0.00    +0.000 OA
DOCKED: ATOM     13  C   UNL     1      20.806 -19.422  -0.473 -0.87 -0.00    +0.000 C 
DOCKED: ATOM     14  N   UNL     1      20.431 -20.038   0.761 -0.65 -0.00    +0.000 N 
DOCKED: ATOM     15  O   UNL     1      19.329 -20.820   0.830 -0.79 -0.00    +0.000 OA
DOCKED: ATOM     16  H   UNL     1      20.978 -19.891   1.566 -0.52 -0.00    +0.000 HD
DOCKED: ENDBRANCH  10  13
DOCKED: ENDBRANCH   4  11
DOCKED: ENDBRANCH   3   7
DOCKED: ENDBRANCH   1   3
DOCKED: BRANCH   1  17
DOCKED: ATOM     17  C   UNL     1      27.226 -14.725   0.933 -0.17 -0.00    +0.000 C 
DOCKED: BRANCH  17  18
DOCKED: ATOM     18  C   UNL     1      27.893 -13.995   2.107 -0.32 -0.00    +0.000 C 
DOCKED: BRANCH  18  19
DOCKED: ATOM     19  O   UNL     1      28.073 -14.860   3.195 -0.44 -0.00    +0.000 OA
DOCKED: ATOM     20  H   UNL     1      28.920 -15.324   3.102 -1.79 -0.00    +0.000 HD
DOCKED: ENDBRANCH  18  19
DOCKED: ENDBRANCH  17  18
DOCKED: ENDBRANCH   1  17
DOCKED: BRANCH   1  21
DOCKED: ATOM     21  C   UNL     1      27.660 -13.238  -0.989 -0.16 -0.00    +0.000 C 
DOCKED: BRANCH  21  22
DOCKED: ATOM     22  C   UNL     1      28.065 -13.280  -2.466 -0.13 -0.00    +0.000 C 
DOCKED: BRANCH  22  23
DOCKED: ATOM     23  C   UNL     1      26.872 -13.084  -3.356 -0.22 -0.00    +0.000 A 
DOCKED: ATOM     24  C   UNL     1      25.972 -14.068  -3.755 -0.42 -0.00    +0.000 A 
DOCKED: ATOM     25  N   UNL     1      24.943 -13.518  -4.440 -0.42 -0.00    +0.000 N 
DOCKED: ATOM     26  C   UNL     1      25.178 -12.196  -4.464 -0.26 -0.00    +0.000 A 
DOCKED: ATOM     27  C   UNL     1      26.344 -11.890  -3.811 -0.16 -0.00    +0.000 A 
DOCKED: ATOM     28  C   UNL     1      26.784 -10.572  -3.671 -0.13 -0.00    +0.000 A 
DOCKED: ATOM     29  C   UNL     1      25.992  -9.554  -4.231 -0.18 -0.00    +0.000 A 
DOCKED: ATOM     30  C   UNL     1      24.792  -9.869  -4.906 -0.33 -0.00    +0.000 A 
DOCKED: ATOM     31  C   UNL     1      24.372 -11.207  -5.027 -0.29 -0.00    +0.000 A 
DOCKED: ATOM     32  H   UNL     1      24.179 -13.993  -4.840 -0.52 -0.00    +0.000 HD
DOCKED: ENDBRANCH  22  23
DOCKED: ENDBRANCH  21  22
DOCKED: ENDBRANCH   1  21
DOCKED: TORSDOF 10
DOCKED: TER
DOCKED: ENDMDL
________________________________________________________________________________


	BEGINNING GENETIC ALGORITHM DOCKING 63 of 100
Run: 63 Seed: 1442571782 1307529875 [ Run 63 of 100 GA/GALS ]
Beginning LAMARCKIAN GENETIC ALGORITHM (LGA), with a maximum of 2500000 energy evaluations.

Final-Value: -17.446


	FINAL GENETIC ALGORITHM DOCKED STATE
	_______________________________________________


Detailed state:  trans 27.871 -16.442 -1.242 quatxyzw -0.502964 0.736872 0.427589 -0.145653 center 0.285 0.077 -0.044 ntor 10 158.9827 -91.2756 39.3673 75.1786 138.7108 171.3605 169.0064 140.5474 157.2199 -58.1365
State:	 27.871 -16.442  -1.242  -0.508  0.745  0.432 -163.250    158.98  -91.28   39.37   75.18  138.71  171.36  169.01  140.55  157.22  -58.14

DOCKED: MODEL       63
DOCKED: USER    Run = 63
DOCKED: USER    DPF = ligand_dock.biased.dpf
DOCKED: USER  
DOCKED: USER    Estimated Free Energy of Binding    =  -11.78 kcal/mol  [=(1)+(2)+(3)-(4)]
DOCKED: USER    Estimated Inhibition Constant, Ki   =    2.31 nM (nanomolar)  [Temperature = 298.15 K]
DOCKED: USER    
DOCKED: USER    (1) Final Intermolecular Energy     =  -14.77 kcal/mol
DOCKED: USER        vdW + Hbond + desolv Energy     =  -14.77 kcal/mol
DOCKED: USER        Electrostatic Energy            =   +0.00 kcal/mol
DOCKED: USER    (2) Final Total Internal Energy     =   -2.68 kcal/mol
DOCKED: USER    (3) Torsional Free Energy           =   +2.98 kcal/mol
DOCKED: USER    (4) Unbound System's Energy  [=(2)] =   -2.68 kcal/mol
DOCKED: USER    
DOCKED: USER    
DOCKED: USER    NEWDPF move ligand.pdbqt
DOCKED: USER    NEWDPF about 0.285000 0.077000 -0.044000
DOCKED: USER    NEWDPF tran0 27.870738 -16.441759 -1.241993
DOCKED: USER    NEWDPF quaternion0 -0.502964 0.736872 0.427589 -0.145653
DOCKED: USER    NEWDPF axisangle0 -0.508385 0.744815 0.432198 -163.249828
DOCKED: USER    NEWDPF quat0 -0.508385 0.744815 0.432198 -163.249828
DOCKED: USER    NEWDPF dihe0 158.98 -91.28 39.37 75.18 138.71 171.36 169.01 140.55 157.22 -58.14 
DOCKED: USER  keepresnum = 1 
DOCKED: USER  
DOCKED: REMARK  Name = 
DOCKED: REMARK  10 active torsions:
DOCKED: REMARK  status: ('A' for Active; 'I' for Inactive)
DOCKED: REMARK    1  A    between atoms: C_2  and  C_5
DOCKED: REMARK    2  A    between atoms: C_6  and  C_7
DOCKED: REMARK    3  A    between atoms: C_10  and  C_11
DOCKED: REMARK    4  A    between atoms: C_11  and  N_12
DOCKED: REMARK    5  A    between atoms: N_12  and  C_13
DOCKED: REMARK    6  A    between atoms: N_12  and  C_16
DOCKED: REMARK    7  A    between atoms: C_13  and  C_14
DOCKED: REMARK    8  A    between atoms: C_14  and  O_15
DOCKED: REMARK    9  A    between atoms: C_16  and  C_17
DOCKED: REMARK   10  A    between atoms: C_17  and  C_18
DOCKED: REMARK                            x       y       z     vdW  Elec       q    Type
DOCKED: REMARK                         _______ _______ _______ _____ _____    ______ ____
DOCKED: USER                              x       y       z     vdW  Elec       q    Type
DOCKED: USER                           _______ _______ _______ _____ _____    ______ ____
DOCKED: ROOT
DOCKED: ATOM      1  N   UNL     1      28.726 -15.722  -0.510 -0.21 -0.00    +0.000 N 
DOCKED: ATOM      2  H   UNL     1      29.203 -15.679   0.390 -0.20 -0.00    +0.000 HD
DOCKED: ENDROOT
DOCKED: BRANCH   1   3
DOCKED: ATOM      3  C   UNL     1      28.380 -17.160  -0.656 -0.33 -0.00    +0.000 C 
DOCKED: BRANCH   3   7
DOCKED: ATOM      4  C   UNL     1      24.108 -17.933  -0.764 -0.69 -0.00    +0.000 A 
DOCKED: ATOM      5  C   UNL     1      24.878 -18.321   0.343 -0.32 -0.00    +0.000 A 
DOCKED: ATOM      6  C   UNL     1      26.252 -18.070   0.379 -0.46 -0.00    +0.000 A 
DOCKED: ATOM      7  C   UNL     1      26.892 -17.450  -0.706 -0.48 -0.00    +0.000 A 
DOCKED: ATOM      8  C   UNL     1      26.122 -17.048  -1.809 -0.45 -0.00    +0.000 A 
DOCKED: ATOM      9  C   UNL     1      24.747 -17.298  -1.846 -0.58 -0.00    +0.000 A 
DOCKED: BRANCH   4  11
DOCKED: ATOM     10  C   UNL     1      22.149 -19.475  -0.715 -0.65 -0.00    +0.000 C 
DOCKED: ATOM     11  C   UNL     1      22.654 -18.234  -0.759 -0.83 -0.00    +0.000 C 
DOCKED: BRANCH  10  13
DOCKED: ATOM     12  O   UNL     1      20.024 -19.593  -1.781 -2.24 -0.00    +0.000 OA
DOCKED: ATOM     13  C   UNL     1      20.696 -19.733  -0.723 -0.84 -0.00    +0.000 C 
DOCKED: ATOM     14  N   UNL     1      20.042 -20.145   0.480 -0.71 -0.00    +0.000 N 
DOCKED: ATOM     15  O   UNL     1      18.710 -20.385   0.488 -0.87 -0.00    +0.000 OA
DOCKED: ATOM     16  H   UNL     1      20.564 -20.255   1.307 -0.40 -0.00    +0.000 HD
DOCKED: ENDBRANCH  10  13
DOCKED: ENDBRANCH   4  11
DOCKED: ENDBRANCH   3   7
DOCKED: ENDBRANCH   1   3
DOCKED: BRANCH   1  17
DOCKED: ATOM     17  C   UNL     1      27.567 -14.813  -0.355 -0.27 -0.00    +0.000 C 
DOCKED: BRANCH  17  18
DOCKED: ATOM     18  C   UNL     1      27.477 -14.249   1.070 -0.29 -0.00    +0.000 C 
DOCKED: BRANCH  18  19
DOCKED: ATOM     19  O   UNL     1      27.790 -15.233   2.017 -0.14 -0.00    +0.000 OA
DOCKED: ATOM     20  H   UNL     1      28.714 -15.133   2.294 -1.68 -0.00    +0.000 HD
DOCKED: ENDBRANCH  18  19
DOCKED: ENDBRANCH  17  18
DOCKED: ENDBRANCH   1  17
DOCKED: BRANCH   1  21
DOCKED: ATOM     21  C   UNL     1      29.703 -15.243  -1.516 -0.12 -0.00    +0.000 C 
DOCKED: BRANCH  21  22
DOCKED: ATOM     22  C   UNL     1      29.231 -15.594  -2.931 -0.19 -0.00    +0.000 C 
DOCKED: BRANCH  22  23
DOCKED: ATOM     23  C   UNL     1      28.774 -14.367  -3.664 -0.14 -0.00    +0.000 A 
DOCKED: ATOM     24  C   UNL     1      29.564 -13.541  -4.460 -0.08 -0.00    +0.000 A 
DOCKED: ATOM     25  N   UNL     1      28.803 -12.609  -5.076 -0.11 -0.00    +0.000 N 
DOCKED: ATOM     26  C   UNL     1      27.538 -12.847  -4.689 -0.20 -0.00    +0.000 A 
DOCKED: ATOM     27  C   UNL     1      27.479 -13.914  -3.830 -0.23 -0.00    +0.000 A 
DOCKED: ATOM     28  C   UNL     1      26.265 -14.378  -3.318 -0.38 -0.00    +0.000 A 
DOCKED: ATOM     29  C   UNL     1      25.091 -13.709  -3.707 -0.28 -0.00    +0.000 A 
DOCKED: ATOM     30  C   UNL     1      25.153 -12.609  -4.591 -0.15 -0.00    +0.000 A 
DOCKED: ATOM     31  C   UNL     1      26.390 -12.168  -5.094 -0.22 -0.00    +0.000 A 
DOCKED: ATOM     32  H   UNL     1      29.114 -11.899  -5.684 +0.00 -0.00    +0.000 HD
DOCKED: ENDBRANCH  22  23
DOCKED: ENDBRANCH  21  22
DOCKED: ENDBRANCH   1  21
DOCKED: TORSDOF 10
DOCKED: TER
DOCKED: ENDMDL
________________________________________________________________________________


	BEGINNING GENETIC ALGORITHM DOCKING 64 of 100
Run: 64 Seed: 1578759265 233822591 [ Run 64 of 100 GA/GALS ]
Beginning LAMARCKIAN GENETIC ALGORITHM (LGA), with a maximum of 2500000 energy evaluations.

Final-Value: -17.629


	FINAL GENETIC ALGORITHM DOCKED STATE
	_______________________________________________


Detailed state:  trans 28.709 -15.811 -1.570 quatxyzw -0.263399 0.628059 0.211702 -0.700960 center 0.285 0.077 -0.044 ntor 10 -179.8750 -91.9778 96.9240 85.1834 163.1205 12.1532 -14.2683 163.7661 -167.2722 -151.4595
State:	 28.709 -15.811  -1.570  -0.369  0.881  0.297 -90.992   -179.87  -91.98   96.92   85.18  163.12   12.15  -14.27  163.77 -167.27 -151.46

DOCKED: MODEL       64
DOCKED: USER    Run = 64
DOCKED: USER    DPF = ligand_dock.biased.dpf
DOCKED: USER  
DOCKED: USER    Estimated Free Energy of Binding    =  -12.25 kcal/mol  [=(1)+(2)+(3)-(4)]
DOCKED: USER    Estimated Inhibition Constant, Ki   =    1.04 nM (nanomolar)  [Temperature = 298.15 K]
DOCKED: USER    
DOCKED: USER    (1) Final Intermolecular Energy     =  -15.24 kcal/mol
DOCKED: USER        vdW + Hbond + desolv Energy     =  -15.24 kcal/mol
DOCKED: USER        Electrostatic Energy            =   +0.00 kcal/mol
DOCKED: USER    (2) Final Total Internal Energy     =   -2.39 kcal/mol
DOCKED: USER    (3) Torsional Free Energy           =   +2.98 kcal/mol
DOCKED: USER    (4) Unbound System's Energy  [=(2)] =   -2.39 kcal/mol
DOCKED: USER    
DOCKED: USER    
DOCKED: USER    NEWDPF move ligand.pdbqt
DOCKED: USER    NEWDPF about 0.285000 0.077000 -0.044000
DOCKED: USER    NEWDPF tran0 28.709256 -15.810879 -1.570027
DOCKED: USER    NEWDPF quaternion0 -0.263399 0.628059 0.211702 -0.700960
DOCKED: USER    NEWDPF axisangle0 -0.369320 0.880621 0.296834 -90.991830
DOCKED: USER    NEWDPF quat0 -0.369320 0.880621 0.296834 -90.991830
DOCKED: USER    NEWDPF dihe0 -179.87 -91.98 96.92 85.18 163.12 12.15 -14.27 163.77 -167.27 -151.46 
DOCKED: USER  keepresnum = 1 
DOCKED: USER  
DOCKED: REMARK  Name = 
DOCKED: REMARK  10 active torsions:
DOCKED: REMARK  status: ('A' for Active; 'I' for Inactive)
DOCKED: REMARK    1  A    between atoms: C_2  and  C_5
DOCKED: REMARK    2  A    between atoms: C_6  and  C_7
DOCKED: REMARK    3  A    between atoms: C_10  and  C_11
DOCKED: REMARK    4  A    between atoms: C_11  and  N_12
DOCKED: REMARK    5  A    between atoms: N_12  and  C_13
DOCKED: REMARK    6  A    between atoms: N_12  and  C_16
DOCKED: REMARK    7  A    between atoms: C_13  and  C_14
DOCKED: REMARK    8  A    between atoms: C_14  and  O_15
DOCKED: REMARK    9  A    between atoms: C_16  and  C_17
DOCKED: REMARK   10  A    between atoms: C_17  and  C_18
DOCKED: REMARK                            x       y       z     vdW  Elec       q    Type
DOCKED: REMARK                         _______ _______ _______ _____ _____    ______ ____
DOCKED: USER                              x       y       z     vdW  Elec       q    Type
DOCKED: USER                           _______ _______ _______ _____ _____    ______ ____
DOCKED: ROOT
DOCKED: ATOM      1  N   UNL     1      28.691 -16.030  -0.252 -0.24 -0.00    +0.000 N 
DOCKED: ATOM      2  H   UNL     1      28.110 -16.364   0.517 -0.34 -0.00    +0.000 HD
DOCKED: ENDROOT
DOCKED: BRANCH   1   3
DOCKED: ATOM      3  C   UNL     1      28.066 -16.642  -1.454 -0.36 -0.00    +0.000 C 
DOCKED: BRANCH   3   7
DOCKED: ATOM      4  C   UNL     1      23.883 -17.678  -0.913 -0.68 -0.00    +0.000 A 
DOCKED: ATOM      5  C   UNL     1      24.894 -18.453  -0.326 -0.59 -0.00    +0.000 A 
DOCKED: ATOM      6  C   UNL     1      26.240 -18.119  -0.498 -0.55 -0.00    +0.000 A 
DOCKED: ATOM      7  C   UNL     1      26.606 -17.016  -1.286 -0.45 -0.00    +0.000 A 
DOCKED: ATOM      8  C   UNL     1      25.596 -16.230  -1.863 -0.49 -0.00    +0.000 A 
DOCKED: ATOM      9  C   UNL     1      24.249 -16.563  -1.692 -0.38 -0.00    +0.000 A 
DOCKED: BRANCH   4  11
DOCKED: ATOM     10  C   UNL     1      22.055 -19.357  -0.684 -0.78 -0.00    +0.000 C 
DOCKED: ATOM     11  C   UNL     1      22.470 -18.082  -0.711 -0.83 -0.00    +0.000 C 
DOCKED: BRANCH  10  13
DOCKED: ATOM     12  O   UNL     1      19.840 -19.738  -1.468 -2.25 -0.00    +0.000 OA
DOCKED: ATOM     13  C   UNL     1      20.637 -19.719  -0.491 -0.86 -0.00    +0.000 C 
DOCKED: ATOM     14  N   UNL     1      20.160 -20.049   0.815 -0.70 -0.00    +0.000 N 
DOCKED: ATOM     15  O   UNL     1      18.862 -20.382   1.008 -0.79 -0.00    +0.000 OA
DOCKED: ATOM     16  H   UNL     1      20.780 -20.034   1.580 -0.49 -0.00    +0.000 HD
DOCKED: ENDBRANCH  10  13
DOCKED: ENDBRANCH   4  11
DOCKED: ENDBRANCH   3   7
DOCKED: ENDBRANCH   1   3
DOCKED: BRANCH   1  17
DOCKED: ATOM     17  C   UNL     1      28.588 -14.555  -0.177 -0.19 -0.00    +0.000 C 
DOCKED: BRANCH  17  18
DOCKED: ATOM     18  C   UNL     1      28.955 -14.031   1.218 -0.19 -0.00    +0.000 C 
DOCKED: BRANCH  18  19
DOCKED: ATOM     19  O   UNL     1      28.429 -14.862   2.217 -0.22 -0.00    +0.000 OA
DOCKED: ATOM     20  H   UNL     1      29.153 -15.224   2.751 -1.98 -0.00    +0.000 HD
DOCKED: ENDBRANCH  18  19
DOCKED: ENDBRANCH  17  18
DOCKED: ENDBRANCH   1  17
DOCKED: BRANCH   1  21
DOCKED: ATOM     21  C   UNL     1      30.060 -16.527   0.021 -0.11 -0.00    +0.000 C 
DOCKED: BRANCH  21  22
DOCKED: ATOM     22  C   UNL     1      31.061 -15.903  -0.957 -0.10 -0.00    +0.000 C 
DOCKED: BRANCH  22  23
DOCKED: ATOM     23  C   UNL     1      30.946 -16.531  -2.315 -0.10 -0.00    +0.000 A 
DOCKED: ATOM     24  C   UNL     1      31.300 -17.835  -2.652 -0.13 -0.00    +0.000 A 
DOCKED: ATOM     25  N   UNL     1      30.937 -18.109  -3.926 -0.20 -0.00    +0.000 N 
DOCKED: ATOM     26  C   UNL     1      30.346 -16.996  -4.391 -0.22 -0.00    +0.000 A 
DOCKED: ATOM     27  C   UNL     1      30.328 -16.011  -3.437 -0.13 -0.00    +0.000 A 
DOCKED: ATOM     28  C   UNL     1      29.734 -14.770  -3.673 -0.10 -0.00    +0.000 A 
DOCKED: ATOM     29  C   UNL     1      29.149 -14.552  -4.933 -0.20 -0.00    +0.000 A 
DOCKED: ATOM     30  C   UNL     1      29.169 -15.566  -5.916 -0.34 -0.00    +0.000 A 
DOCKED: ATOM     31  C   UNL     1      29.772 -16.808  -5.648 -0.29 -0.00    +0.000 A 
DOCKED: ATOM     32  H   UNL     1      31.079 -18.953  -4.413 -0.01 -0.00    +0.000 HD
DOCKED: ENDBRANCH  22  23
DOCKED: ENDBRANCH  21  22
DOCKED: ENDBRANCH   1  21
DOCKED: TORSDOF 10
DOCKED: TER
DOCKED: ENDMDL
________________________________________________________________________________


	BEGINNING GENETIC ALGORITHM DOCKING 65 of 100
Run: 65 Seed: 1393816208 2059051243 [ Run 65 of 100 GA/GALS ]
Beginning LAMARCKIAN GENETIC ALGORITHM (LGA), with a maximum of 2500000 energy evaluations.

Final-Value: -17.334


	FINAL GENETIC ALGORITHM DOCKED STATE
	_______________________________________________


Detailed state:  trans 28.327 -14.779 -0.542 quatxyzw -0.318180 0.265570 -0.344474 -0.842361 center 0.285 0.077 -0.044 ntor 10 167.1859 -47.6696 77.5077 -128.2386 -179.9293 180.0000 -146.7799 -169.9142 -6.5194 128.4175
State:	 28.327 -14.779  -0.542  -0.590  0.493 -0.639 -65.219    167.19  -47.67   77.51 -128.24 -179.93  180.00 -146.78 -169.91   -6.52  128.42

DOCKED: MODEL       65
DOCKED: USER    Run = 65
DOCKED: USER    DPF = ligand_dock.biased.dpf
DOCKED: USER  
DOCKED: USER    Estimated Free Energy of Binding    =  -12.03 kcal/mol  [=(1)+(2)+(3)-(4)]
DOCKED: USER    Estimated Inhibition Constant, Ki   =    1.51 nM (nanomolar)  [Temperature = 298.15 K]
DOCKED: USER    
DOCKED: USER    (1) Final Intermolecular Energy     =  -15.02 kcal/mol
DOCKED: USER        vdW + Hbond + desolv Energy     =  -15.02 kcal/mol
DOCKED: USER        Electrostatic Energy            =   +0.00 kcal/mol
DOCKED: USER    (2) Final Total Internal Energy     =   -2.32 kcal/mol
DOCKED: USER    (3) Torsional Free Energy           =   +2.98 kcal/mol
DOCKED: USER    (4) Unbound System's Energy  [=(2)] =   -2.32 kcal/mol
DOCKED: USER    
DOCKED: USER    
DOCKED: USER    NEWDPF move ligand.pdbqt
DOCKED: USER    NEWDPF about 0.285000 0.077000 -0.044000
DOCKED: USER    NEWDPF tran0 28.327418 -14.778829 -0.542398
DOCKED: USER    NEWDPF quaternion0 -0.318180 0.265570 -0.344474 -0.842361
DOCKED: USER    NEWDPF axisangle0 -0.590410 0.492788 -0.639200 -65.219451
DOCKED: USER    NEWDPF quat0 -0.590410 0.492788 -0.639200 -65.219451
DOCKED: USER    NEWDPF dihe0 167.19 -47.67 77.51 -128.24 -179.93 180.00 -146.78 -169.91 -6.52 128.42 
DOCKED: USER  keepresnum = 1 
DOCKED: USER  
DOCKED: REMARK  Name = 
DOCKED: REMARK  10 active torsions:
DOCKED: REMARK  status: ('A' for Active; 'I' for Inactive)
DOCKED: REMARK    1  A    between atoms: C_2  and  C_5
DOCKED: REMARK    2  A    between atoms: C_6  and  C_7
DOCKED: REMARK    3  A    between atoms: C_10  and  C_11
DOCKED: REMARK    4  A    between atoms: C_11  and  N_12
DOCKED: REMARK    5  A    between atoms: N_12  and  C_13
DOCKED: REMARK    6  A    between atoms: N_12  and  C_16
DOCKED: REMARK    7  A    between atoms: C_13  and  C_14
DOCKED: REMARK    8  A    between atoms: C_14  and  O_15
DOCKED: REMARK    9  A    between atoms: C_16  and  C_17
DOCKED: REMARK   10  A    between atoms: C_17  and  C_18
DOCKED: REMARK                            x       y       z     vdW  Elec       q    Type
DOCKED: REMARK                         _______ _______ _______ _____ _____    ______ ____
DOCKED: USER                              x       y       z     vdW  Elec       q    Type
DOCKED: USER                           _______ _______ _______ _____ _____    ______ ____
DOCKED: ROOT
DOCKED: ATOM      1  N   UNL     1      27.358 -13.988  -0.072 -0.22 -0.00    +0.000 N 
DOCKED: ATOM      2  H   UNL     1      26.457 -13.570  -0.300 -0.01 -0.00    +0.000 HD
DOCKED: ENDROOT
DOCKED: BRANCH   1   3
DOCKED: ATOM      3  C   UNL     1      27.446 -15.153  -0.991 -0.29 -0.00    +0.000 C 
DOCKED: BRANCH   3   7
DOCKED: ATOM      4  C   UNL     1      24.177 -18.000  -0.719 -0.69 -0.00    +0.000 A 
DOCKED: ATOM      5  C   UNL     1      24.075 -16.869  -1.543 -0.50 -0.00    +0.000 A 
DOCKED: ATOM      6  C   UNL     1      25.127 -15.955  -1.633 -0.46 -0.00    +0.000 A 
DOCKED: ATOM      7  C   UNL     1      26.296 -16.136  -0.876 -0.41 -0.00    +0.000 A 
DOCKED: ATOM      8  C   UNL     1      26.407 -17.274  -0.061 -0.45 -0.00    +0.000 A 
DOCKED: ATOM      9  C   UNL     1      25.355 -18.190   0.029 -0.58 -0.00    +0.000 A 
DOCKED: BRANCH   4  11
DOCKED: ATOM     10  C   UNL     1      21.772 -18.600  -0.983 -0.82 -0.00    +0.000 C 
DOCKED: ATOM     11  C   UNL     1      23.026 -18.935  -0.649 -0.81 -0.00    +0.000 C 
DOCKED: BRANCH  10  13
DOCKED: ATOM     12  O   UNL     1      19.874 -19.734  -1.867 -2.39 -0.00    +0.000 OA
DOCKED: ATOM     13  C   UNL     1      20.651 -19.556  -0.890 -0.87 -0.00    +0.000 C 
DOCKED: ATOM     14  N   UNL     1      20.441 -20.287   0.320 -0.68 -0.00    +0.000 N 
DOCKED: ATOM     15  O   UNL     1      19.418 -21.167   0.422 -0.86 -0.00    +0.000 OA
DOCKED: ATOM     16  H   UNL     1      21.046 -20.150   1.085 -0.54 -0.00    +0.000 HD
DOCKED: ENDBRANCH  10  13
DOCKED: ENDBRANCH   4  11
DOCKED: ENDBRANCH   3   7
DOCKED: ENDBRANCH   1   3
DOCKED: BRANCH   1  17
DOCKED: ATOM     17  C   UNL     1      28.340 -12.912  -0.333 -0.11 -0.00    +0.000 C 
DOCKED: BRANCH  17  18
DOCKED: ATOM     18  C   UNL     1      27.768 -11.528   0.007 -0.13 -0.00    +0.000 C 
DOCKED: BRANCH  18  19
DOCKED: ATOM     19  O   UNL     1      26.485 -11.641   0.561 -0.28 +0.00    +0.000 OA
DOCKED: ATOM     20  H   UNL     1      26.527 -11.461   1.513 -0.01 +0.00    +0.000 HD
DOCKED: ENDBRANCH  18  19
DOCKED: ENDBRANCH  17  18
DOCKED: ENDBRANCH   1  17
DOCKED: BRANCH   1  21
DOCKED: ATOM     21  C   UNL     1      27.286 -14.367   1.359 -0.20 -0.00    +0.000 C 
DOCKED: BRANCH  21  22
DOCKED: ATOM     22  C   UNL     1      28.648 -14.176   2.033 -0.24 -0.00    +0.000 C 
DOCKED: BRANCH  22  23
DOCKED: ATOM     23  C   UNL     1      28.486 -13.892   3.498 -0.34 -0.00    +0.000 A 
DOCKED: ATOM     24  C   UNL     1      28.617 -14.812   4.535 -0.47 -0.00    +0.000 A 
DOCKED: ATOM     25  N   UNL     1      28.541 -14.188   5.733 -0.43 -0.00    +0.000 N 
DOCKED: ATOM     26  C   UNL     1      28.377 -12.882   5.462 -0.39 -0.00    +0.000 A 
DOCKED: ATOM     27  C   UNL     1      28.342 -12.660   4.109 -0.28 -0.00    +0.000 A 
DOCKED: ATOM     28  C   UNL     1      28.216 -11.375   3.579 -0.21 +0.00    +0.000 A 
DOCKED: ATOM     29  C   UNL     1      28.119 -10.300   4.481 -0.26 +0.00    +0.000 A 
DOCKED: ATOM     30  C   UNL     1      28.154 -10.529   5.874 -0.32 +0.00    +0.000 A 
DOCKED: ATOM     31  C   UNL     1      28.286 -11.836   6.379 -0.32 +0.00    +0.000 A 
DOCKED: ATOM     32  H   UNL     1      28.593 -14.608   6.622 -0.43 -0.00    +0.000 HD
DOCKED: ENDBRANCH  22  23
DOCKED: ENDBRANCH  21  22
DOCKED: ENDBRANCH   1  21
DOCKED: TORSDOF 10
DOCKED: TER
DOCKED: ENDMDL
________________________________________________________________________________


	BEGINNING GENETIC ALGORITHM DOCKING 66 of 100
Run: 66 Seed: 404370944 1460291970 [ Run 66 of 100 GA/GALS ]
Beginning LAMARCKIAN GENETIC ALGORITHM (LGA), with a maximum of 2500000 energy evaluations.

Final-Value: -15.840


	FINAL GENETIC ALGORITHM DOCKED STATE
	_______________________________________________


Detailed state:  trans 28.357 -14.499 -1.751 quatxyzw 0.131690 0.966195 0.134460 0.176195 center 0.285 0.077 -0.044 ntor 10 136.1202 -41.0791 73.2912 -137.2601 146.0697 133.5828 156.7067 179.8523 -166.3708 59.3881
State:	 28.357 -14.499  -1.751   0.134  0.982  0.137 159.704    136.12  -41.08   73.29 -137.26  146.07  133.58  156.71  179.85 -166.37   59.39

DOCKED: MODEL       66
DOCKED: USER    Run = 66
DOCKED: USER    DPF = ligand_dock.biased.dpf
DOCKED: USER  
DOCKED: USER    Estimated Free Energy of Binding    =  -10.54 kcal/mol  [=(1)+(2)+(3)-(4)]
DOCKED: USER    Estimated Inhibition Constant, Ki   =   18.90 nM (nanomolar)  [Temperature = 298.15 K]
DOCKED: USER    
DOCKED: USER    (1) Final Intermolecular Energy     =  -13.52 kcal/mol
DOCKED: USER        vdW + Hbond + desolv Energy     =  -13.52 kcal/mol
DOCKED: USER        Electrostatic Energy            =   +0.00 kcal/mol
DOCKED: USER    (2) Final Total Internal Energy     =   -2.32 kcal/mol
DOCKED: USER    (3) Torsional Free Energy           =   +2.98 kcal/mol
DOCKED: USER    (4) Unbound System's Energy  [=(2)] =   -2.32 kcal/mol
DOCKED: USER    
DOCKED: USER    
DOCKED: USER    NEWDPF move ligand.pdbqt
DOCKED: USER    NEWDPF about 0.285000 0.077000 -0.044000
DOCKED: USER    NEWDPF tran0 28.357379 -14.499206 -1.750881
DOCKED: USER    NEWDPF quaternion0 0.131690 0.966195 0.134460 0.176195
DOCKED: USER    NEWDPF axisangle0 0.133783 0.981551 0.136597 159.703558
DOCKED: USER    NEWDPF quat0 0.133783 0.981551 0.136597 159.703558
DOCKED: USER    NEWDPF dihe0 136.12 -41.08 73.29 -137.26 146.07 133.58 156.71 179.85 -166.37 59.39 
DOCKED: USER  keepresnum = 1 
DOCKED: USER  
DOCKED: REMARK  Name = 
DOCKED: REMARK  10 active torsions:
DOCKED: REMARK  status: ('A' for Active; 'I' for Inactive)
DOCKED: REMARK    1  A    between atoms: C_2  and  C_5
DOCKED: REMARK    2  A    between atoms: C_6  and  C_7
DOCKED: REMARK    3  A    between atoms: C_10  and  C_11
DOCKED: REMARK    4  A    between atoms: C_11  and  N_12
DOCKED: REMARK    5  A    between atoms: N_12  and  C_13
DOCKED: REMARK    6  A    between atoms: N_12  and  C_16
DOCKED: REMARK    7  A    between atoms: C_13  and  C_14
DOCKED: REMARK    8  A    between atoms: C_14  and  O_15
DOCKED: REMARK    9  A    between atoms: C_16  and  C_17
DOCKED: REMARK   10  A    between atoms: C_17  and  C_18
DOCKED: REMARK                            x       y       z     vdW  Elec       q    Type
DOCKED: REMARK                         _______ _______ _______ _____ _____    ______ ____
DOCKED: USER                              x       y       z     vdW  Elec       q    Type
DOCKED: USER                           _______ _______ _______ _____ _____    ______ ____
DOCKED: ROOT
DOCKED: ATOM      1  N   UNL     1      29.462 -15.060  -2.251 -0.10 -0.00    +0.000 N 
DOCKED: ATOM      2  H   UNL     1      30.397 -15.389  -2.010 +0.00 -0.00    +0.000 HD
DOCKED: ENDROOT
DOCKED: BRANCH   1   3
DOCKED: ATOM      3  C   UNL     1      28.740 -15.076  -0.952 -0.18 -0.00    +0.000 C 
DOCKED: BRANCH   3   7
DOCKED: ATOM      4  C   UNL     1      25.053 -17.371  -1.031 -0.60 -0.00    +0.000 A 
DOCKED: ATOM      5  C   UNL     1      25.130 -16.117  -1.655 -0.49 -0.00    +0.000 A 
DOCKED: ATOM      6  C   UNL     1      26.316 -15.380  -1.633 -0.36 -0.00    +0.000 A 
DOCKED: ATOM      7  C   UNL     1      27.447 -15.869  -0.958 -0.31 -0.00    +0.000 A 
DOCKED: ATOM      8  C   UNL     1      27.378 -17.129  -0.344 -0.41 -0.00    +0.000 A 
DOCKED: ATOM      9  C   UNL     1      26.192 -17.869  -0.367 -0.57 -0.00    +0.000 A 
DOCKED: BRANCH   4  11
DOCKED: ATOM     10  C   UNL     1      22.599 -17.598  -0.656 -0.78 -0.00    +0.000 C 
DOCKED: ATOM     11  C   UNL     1      23.767 -18.109  -1.073 -0.79 -0.00    +0.000 C 
DOCKED: BRANCH  10  13
DOCKED: ATOM     12  O   UNL     1      20.266 -17.822  -1.071 -2.16 -0.00    +0.000 OA
DOCKED: ATOM     13  C   UNL     1      21.341 -18.369  -0.704 -0.83 -0.00    +0.000 C 
DOCKED: ATOM     14  N   UNL     1      21.339 -19.748  -0.329 -0.70 -0.00    +0.000 N 
DOCKED: ATOM     15  O   UNL     1      20.194 -20.468  -0.367 -1.34 -0.00    +0.000 OA
DOCKED: ATOM     16  H   UNL     1      22.177 -20.178  -0.041 -0.49 -0.00    +0.000 HD
DOCKED: ENDBRANCH  10  13
DOCKED: ENDBRANCH   4  11
DOCKED: ENDBRANCH   3   7
DOCKED: ENDBRANCH   1   3
DOCKED: BRANCH   1  17
DOCKED: ATOM     17  C   UNL     1      29.684 -13.714  -2.825 -0.06 -0.00    +0.000 C 
DOCKED: BRANCH  17  18
DOCKED: ATOM     18  C   UNL     1      31.046 -13.612  -3.525 -0.03 -0.00    +0.000 C 
DOCKED: BRANCH  18  19
DOCKED: ATOM     19  O   UNL     1      31.639 -14.877  -3.647 -0.04 -0.00    +0.000 OA
DOCKED: ATOM     20  H   UNL     1      31.200 -15.372  -4.356 +0.00 -0.00    +0.000 HD
DOCKED: ENDBRANCH  18  19
DOCKED: ENDBRANCH  17  18
DOCKED: ENDBRANCH   1  17
DOCKED: BRANCH   1  21
DOCKED: ATOM     21  C   UNL     1      28.927 -16.027  -3.238 -0.25 -0.00    +0.000 C 
DOCKED: BRANCH  21  22
DOCKED: ATOM     22  C   UNL     1      27.859 -15.364  -4.113 -0.35 -0.00    +0.000 C 
DOCKED: BRANCH  22  23
DOCKED: ATOM     23  C   UNL     1      28.452 -14.867  -5.399 -0.34 -0.00    +0.000 A 
DOCKED: ATOM     24  C   UNL     1      29.216 -15.610  -6.295 -0.32 -0.00    +0.000 A 
DOCKED: ATOM     25  N   UNL     1      29.471 -14.889  -7.410 -0.27 -0.00    +0.000 N 
DOCKED: ATOM     26  C   UNL     1      28.864 -13.704  -7.234 -0.29 -0.00    +0.000 A 
DOCKED: ATOM     27  C   UNL     1      28.228 -13.652  -6.020 -0.26 -0.00    +0.000 A 
DOCKED: ATOM     28  C   UNL     1      27.495 -12.532  -5.622 -0.20 -0.00    +0.000 A 
DOCKED: ATOM     29  C   UNL     1      27.429 -11.443  -6.509 -0.16 -0.00    +0.000 A 
DOCKED: ATOM     30  C   UNL     1      28.085 -11.496  -7.758 -0.17 -0.00    +0.000 A 
DOCKED: ATOM     31  C   UNL     1      28.813 -12.640  -8.133 -0.24 -0.00    +0.000 A 
DOCKED: ATOM     32  H   UNL     1      29.996 -15.176  -8.192 -0.43 -0.00    +0.000 HD
DOCKED: ENDBRANCH  22  23
DOCKED: ENDBRANCH  21  22
DOCKED: ENDBRANCH   1  21
DOCKED: TORSDOF 10
DOCKED: TER
DOCKED: ENDMDL
________________________________________________________________________________


	BEGINNING GENETIC ALGORITHM DOCKING 67 of 100
Run: 67 Seed: 1706377103 928000655 [ Run 67 of 100 GA/GALS ]
Beginning LAMARCKIAN GENETIC ALGORITHM (LGA), with a maximum of 2500000 energy evaluations.

Final-Value: -16.353


	FINAL GENETIC ALGORITHM DOCKED STATE
	_______________________________________________


Detailed state:  trans 30.424 -16.013 -0.897 quatxyzw 0.405704 0.453443 0.493825 -0.621233 center 0.285 0.077 -0.044 ntor 10 29.0523 72.4266 -118.3169 -31.9561 147.2168 -114.5922 -49.0408 92.5515 -48.8052 -164.9904
State:	 30.424 -16.013  -0.897   0.518  0.579  0.630 -103.188     29.05   72.43 -118.32  -31.96  147.22 -114.59  -49.04   92.55  -48.81 -164.99

DOCKED: MODEL       67
DOCKED: USER    Run = 67
DOCKED: USER    DPF = ligand_dock.biased.dpf
DOCKED: USER  
DOCKED: USER    Estimated Free Energy of Binding    =  -11.78 kcal/mol  [=(1)+(2)+(3)-(4)]
DOCKED: USER    Estimated Inhibition Constant, Ki   =    2.32 nM (nanomolar)  [Temperature = 298.15 K]
DOCKED: USER    
DOCKED: USER    (1) Final Intermolecular Energy     =  -14.76 kcal/mol
DOCKED: USER        vdW + Hbond + desolv Energy     =  -14.76 kcal/mol
DOCKED: USER        Electrostatic Energy            =   +0.00 kcal/mol
DOCKED: USER    (2) Final Total Internal Energy     =   -1.59 kcal/mol
DOCKED: USER    (3) Torsional Free Energy           =   +2.98 kcal/mol
DOCKED: USER    (4) Unbound System's Energy  [=(2)] =   -1.59 kcal/mol
DOCKED: USER    
DOCKED: USER    
DOCKED: USER    NEWDPF move ligand.pdbqt
DOCKED: USER    NEWDPF about 0.285000 0.077000 -0.044000
DOCKED: USER    NEWDPF tran0 30.424149 -16.013203 -0.897394
DOCKED: USER    NEWDPF quaternion0 0.405704 0.453443 0.493825 -0.621233
DOCKED: USER    NEWDPF axisangle0 0.517727 0.578648 0.630179 -103.187510
DOCKED: USER    NEWDPF quat0 0.517727 0.578648 0.630179 -103.187510
DOCKED: USER    NEWDPF dihe0 29.05 72.43 -118.32 -31.96 147.22 -114.59 -49.04 92.55 -48.81 -164.99 
DOCKED: USER  keepresnum = 1 
DOCKED: USER  
DOCKED: REMARK  Name = 
DOCKED: REMARK  10 active torsions:
DOCKED: REMARK  status: ('A' for Active; 'I' for Inactive)
DOCKED: REMARK    1  A    between atoms: C_2  and  C_5
DOCKED: REMARK    2  A    between atoms: C_6  and  C_7
DOCKED: REMARK    3  A    between atoms: C_10  and  C_11
DOCKED: REMARK    4  A    between atoms: C_11  and  N_12
DOCKED: REMARK    5  A    between atoms: N_12  and  C_13
DOCKED: REMARK    6  A    between atoms: N_12  and  C_16
DOCKED: REMARK    7  A    between atoms: C_13  and  C_14
DOCKED: REMARK    8  A    between atoms: C_14  and  O_15
DOCKED: REMARK    9  A    between atoms: C_16  and  C_17
DOCKED: REMARK   10  A    between atoms: C_17  and  C_18
DOCKED: REMARK                            x       y       z     vdW  Elec       q    Type
DOCKED: REMARK                         _______ _______ _______ _____ _____    ______ ____
DOCKED: USER                              x       y       z     vdW  Elec       q    Type
DOCKED: USER                           _______ _______ _______ _____ _____    ______ ____
DOCKED: ROOT
DOCKED: ATOM      1  N   UNL     1      30.309 -17.342  -0.980 -0.21 -0.00    +0.000 N 
DOCKED: ATOM      2  H   UNL     1      29.638 -18.109  -0.977 -0.12 -0.00    +0.000 HD
DOCKED: ENDROOT
DOCKED: BRANCH   1   3
DOCKED: ATOM      3  C   UNL     1      29.491 -16.164  -1.372 -0.20 -0.00    +0.000 C 
DOCKED: BRANCH   3   7
DOCKED: ATOM      4  C   UNL     1      25.197 -16.819  -1.388 -0.55 -0.00    +0.000 A 
DOCKED: ATOM      5  C   UNL     1      25.991 -17.301  -0.337 -0.53 -0.00    +0.000 A 
DOCKED: ATOM      6  C   UNL     1      27.372 -17.089  -0.330 -0.41 -0.00    +0.000 A 
DOCKED: ATOM      7  C   UNL     1      27.995 -16.412  -1.391 -0.30 -0.00    +0.000 A 
DOCKED: ATOM      8  C   UNL     1      27.202 -15.915  -2.438 -0.31 -0.00    +0.000 A 
DOCKED: ATOM      9  C   UNL     1      25.820 -16.127  -2.446 -0.47 -0.00    +0.000 A 
DOCKED: BRANCH   4  11
DOCKED: ATOM     10  C   UNL     1      23.202 -18.303  -1.214 -0.79 -0.00    +0.000 C 
DOCKED: ATOM     11  C   UNL     1      23.737 -17.081  -1.355 -0.62 -0.00    +0.000 C 
DOCKED: BRANCH  10  13
DOCKED: ATOM     12  O   UNL     1      20.967 -17.660  -0.706 -2.13 -0.00    +0.000 OA
DOCKED: ATOM     13  C   UNL     1      21.743 -18.524  -1.197 -0.64 -0.00    +0.000 C 
DOCKED: ATOM     14  N   UNL     1      21.202 -19.731  -1.740 -0.58 -0.00    +0.000 N 
DOCKED: ATOM     15  O   UNL     1      19.866 -19.949  -1.731 -2.15 -0.00    +0.000 OA
DOCKED: ATOM     16  H   UNL     1      21.806 -20.408  -2.124 -0.50 -0.00    +0.000 HD
DOCKED: ENDBRANCH  10  13
DOCKED: ENDBRANCH   4  11
DOCKED: ENDBRANCH   3   7
DOCKED: ENDBRANCH   1   3
DOCKED: BRANCH   1  17
DOCKED: ATOM     17  C   UNL     1      30.834 -17.306   0.403 +0.02 -0.00    +0.000 C 
DOCKED: BRANCH  17  18
DOCKED: ATOM     18  C   UNL     1      31.496 -15.959   0.724 -0.13 -0.00    +0.000 C 
DOCKED: BRANCH  18  19
DOCKED: ATOM     19  O   UNL     1      30.909 -15.370   1.853 -0.18 -0.00    +0.000 OA
DOCKED: ATOM     20  H   UNL     1      29.972 -15.618   1.896 -1.13 -0.00    +0.000 HD
DOCKED: ENDBRANCH  18  19
DOCKED: ENDBRANCH  17  18
DOCKED: ENDBRANCH   1  17
DOCKED: BRANCH   1  21
DOCKED: ATOM     21  C   UNL     1      31.342 -17.703  -1.980 -0.14 -0.00    +0.000 C 
DOCKED: BRANCH  21  22
DOCKED: ATOM     22  C   UNL     1      31.363 -16.682  -3.122 -0.10 -0.00    +0.000 C 
DOCKED: BRANCH  22  23
DOCKED: ATOM     23  C   UNL     1      30.838 -17.287  -4.391 -0.19 -0.00    +0.000 A 
DOCKED: ATOM     24  C   UNL     1      30.432 -16.592  -5.528 -0.25 -0.00    +0.000 A 
DOCKED: ATOM     25  N   UNL     1      30.146 -17.453  -6.531 -0.34 -0.00    +0.000 N 
DOCKED: ATOM     26  C   UNL     1      30.382 -18.682  -6.044 -0.35 -0.00    +0.000 A 
DOCKED: ATOM     27  C   UNL     1      30.809 -18.623  -4.742 -0.24 -0.00    +0.000 A 
DOCKED: ATOM     28  C   UNL     1      31.152 -19.773  -4.028 -0.15 -0.00    +0.000 A 
DOCKED: ATOM     29  C   UNL     1      31.042 -21.011  -4.688 -0.25 -0.00    +0.000 A 
DOCKED: ATOM     30  C   UNL     1      30.600 -21.072  -6.028 -0.36 -0.00    +0.000 A 
DOCKED: ATOM     31  C   UNL     1      30.266 -19.895  -6.722 -0.41 -0.00    +0.000 A 
DOCKED: ATOM     32  H   UNL     1      29.829 -17.223  -7.434 -0.03 -0.00    +0.000 HD
DOCKED: ENDBRANCH  22  23
DOCKED: ENDBRANCH  21  22
DOCKED: ENDBRANCH   1  21
DOCKED: TORSDOF 10
DOCKED: TER
DOCKED: ENDMDL
________________________________________________________________________________


	BEGINNING GENETIC ALGORITHM DOCKING 68 of 100
Run: 68 Seed: 463499992 882888349 [ Run 68 of 100 GA/GALS ]
Beginning LAMARCKIAN GENETIC ALGORITHM (LGA), with a maximum of 2500000 energy evaluations.

Final-Value: -17.826


	FINAL GENETIC ALGORITHM DOCKED STATE
	_______________________________________________


Detailed state:  trans 28.605 -15.724 -1.480 quatxyzw 0.470466 -0.603120 -0.522459 0.376755 center 0.285 0.077 -0.044 ntor 10 -89.2023 -33.3866 57.5302 -65.3877 -118.9125 -161.7982 7.6495 180.0000 174.7993 -82.1151
State:	 28.605 -15.724  -1.480   0.508 -0.651 -0.564 135.734    -89.20  -33.39   57.53  -65.39 -118.91 -161.80    7.65  180.00  174.80  -82.12

DOCKED: MODEL       68
DOCKED: USER    Run = 68
DOCKED: USER    DPF = ligand_dock.biased.dpf
DOCKED: USER  
DOCKED: USER    Estimated Free Energy of Binding    =  -12.08 kcal/mol  [=(1)+(2)+(3)-(4)]
DOCKED: USER    Estimated Inhibition Constant, Ki   =    1.39 nM (nanomolar)  [Temperature = 298.15 K]
DOCKED: USER    
DOCKED: USER    (1) Final Intermolecular Energy     =  -15.07 kcal/mol
DOCKED: USER        vdW + Hbond + desolv Energy     =  -15.07 kcal/mol
DOCKED: USER        Electrostatic Energy            =   +0.00 kcal/mol
DOCKED: USER    (2) Final Total Internal Energy     =   -2.76 kcal/mol
DOCKED: USER    (3) Torsional Free Energy           =   +2.98 kcal/mol
DOCKED: USER    (4) Unbound System's Energy  [=(2)] =   -2.76 kcal/mol
DOCKED: USER    
DOCKED: USER    
DOCKED: USER    NEWDPF move ligand.pdbqt
DOCKED: USER    NEWDPF about 0.285000 0.077000 -0.044000
DOCKED: USER    NEWDPF tran0 28.605416 -15.724263 -1.479553
DOCKED: USER    NEWDPF quaternion0 0.470466 -0.603120 -0.522459 0.376755
DOCKED: USER    NEWDPF axisangle0 0.507891 -0.651097 -0.564020 135.734300
DOCKED: USER    NEWDPF quat0 0.507891 -0.651097 -0.564020 135.734300
DOCKED: USER    NEWDPF dihe0 -89.20 -33.39 57.53 -65.39 -118.91 -161.80 7.65 180.00 174.80 -82.12 
DOCKED: USER  keepresnum = 1 
DOCKED: USER  
DOCKED: REMARK  Name = 
DOCKED: REMARK  10 active torsions:
DOCKED: REMARK  status: ('A' for Active; 'I' for Inactive)
DOCKED: REMARK    1  A    between atoms: C_2  and  C_5
DOCKED: REMARK    2  A    between atoms: C_6  and  C_7
DOCKED: REMARK    3  A    between atoms: C_10  and  C_11
DOCKED: REMARK    4  A    between atoms: C_11  and  N_12
DOCKED: REMARK    5  A    between atoms: N_12  and  C_13
DOCKED: REMARK    6  A    between atoms: N_12  and  C_16
DOCKED: REMARK    7  A    between atoms: C_13  and  C_14
DOCKED: REMARK    8  A    between atoms: C_14  and  O_15
DOCKED: REMARK    9  A    between atoms: C_16  and  C_17
DOCKED: REMARK   10  A    between atoms: C_17  and  C_18
DOCKED: REMARK                            x       y       z     vdW  Elec       q    Type
DOCKED: REMARK                         _______ _______ _______ _____ _____    ______ ____
DOCKED: USER                              x       y       z     vdW  Elec       q    Type
DOCKED: USER                           _______ _______ _______ _____ _____    ______ ____
DOCKED: ROOT
DOCKED: ATOM      1  N   UNL     1      29.246 -15.558  -0.319 -0.18 -0.00    +0.000 N 
DOCKED: ATOM      2  H   UNL     1      29.466 -16.009   0.569 -0.43 -0.00    +0.000 HD
DOCKED: ENDROOT
DOCKED: BRANCH   1   3
DOCKED: ATOM      3  C   UNL     1      28.928 -16.697  -1.220 -0.29 -0.00    +0.000 C 
DOCKED: BRANCH   3   7
DOCKED: ATOM      4  C   UNL     1      24.703 -17.693  -1.353 -0.63 -0.00    +0.000 A 
DOCKED: ATOM      5  C   UNL     1      25.562 -18.335  -0.448 -0.59 -0.00    +0.000 A 
DOCKED: ATOM      6  C   UNL     1      26.920 -18.013  -0.403 -0.46 -0.00    +0.000 A 
DOCKED: ATOM      7  C   UNL     1      27.457 -17.060  -1.284 -0.38 -0.00    +0.000 A 
DOCKED: ATOM      8  C   UNL     1      26.598 -16.406  -2.181 -0.38 -0.00    +0.000 A 
DOCKED: ATOM      9  C   UNL     1      25.238 -16.727  -2.227 -0.52 -0.00    +0.000 A 
DOCKED: BRANCH   4  11
DOCKED: ATOM     10  C   UNL     1      22.552 -18.332  -0.266 -0.82 -0.00    +0.000 C 
DOCKED: ATOM     11  C   UNL     1      23.270 -18.080  -1.370 -0.74 -0.00    +0.000 C 
DOCKED: BRANCH  10  13
DOCKED: ATOM     12  O   UNL     1      20.256 -17.914  -0.734 -2.20 +0.00    +0.000 OA
DOCKED: ATOM     13  C   UNL     1      21.131 -18.725  -0.324 -0.77 -0.00    +0.000 C 
DOCKED: ATOM     14  N   UNL     1      20.739 -20.036   0.088 -0.69 -0.00    +0.000 N 
DOCKED: ATOM     15  O   UNL     1      19.439 -20.410   0.040 -1.14 -0.00    +0.000 OA
DOCKED: ATOM     16  H   UNL     1      21.420 -20.671   0.408 -0.60 -0.00    +0.000 HD
DOCKED: ENDBRANCH  10  13
DOCKED: ENDBRANCH   4  11
DOCKED: ENDBRANCH   3   7
DOCKED: ENDBRANCH   1   3
DOCKED: BRANCH   1  17
DOCKED: ATOM     17  C   UNL     1      28.103 -14.671  -0.007 -0.24 -0.00    +0.000 C 
DOCKED: BRANCH  17  18
DOCKED: ATOM     18  C   UNL     1      27.929 -14.482   1.507 -0.28 -0.00    +0.000 C 
DOCKED: BRANCH  18  19
DOCKED: ATOM     19  O   UNL     1      29.097 -14.843   2.192 -0.12 -0.00    +0.000 OA
DOCKED: ATOM     20  H   UNL     1      28.865 -15.175   3.073 -1.76 -0.00    +0.000 HD
DOCKED: ENDBRANCH  18  19
DOCKED: ENDBRANCH  17  18
DOCKED: ENDBRANCH   1  17
DOCKED: BRANCH   1  21
DOCKED: ATOM     21  C   UNL     1      30.464 -14.812  -0.715 -0.08 -0.00    +0.000 C 
DOCKED: BRANCH  21  22
DOCKED: ATOM     22  C   UNL     1      30.100 -13.645  -1.639 -0.04 -0.00    +0.000 C 
DOCKED: BRANCH  22  23
DOCKED: ATOM     23  C   UNL     1      29.284 -14.119  -2.806 -0.07 -0.00    +0.000 A 
DOCKED: ATOM     24  C   UNL     1      27.976 -13.746  -3.103 -0.15 -0.00    +0.000 A 
DOCKED: ATOM     25  N   UNL     1      27.599 -14.255  -4.297 -0.27 -0.00    +0.000 N 
DOCKED: ATOM     26  C   UNL     1      28.660 -14.933  -4.764 -0.27 -0.00    +0.000 A 
DOCKED: ATOM     27  C   UNL     1      29.710 -14.872  -3.885 -0.11 -0.00    +0.000 A 
DOCKED: ATOM     28  C   UNL     1      30.940 -15.472  -4.165 -0.08 -0.00    +0.000 A 
DOCKED: ATOM     29  C   UNL     1      31.072 -16.155  -5.387 -0.15 -0.00    +0.000 A 
DOCKED: ATOM     30  C   UNL     1      29.990 -16.219  -6.292 -0.32 -0.00    +0.000 A 
DOCKED: ATOM     31  C   UNL     1      28.765 -15.601  -5.984 -0.29 -0.00    +0.000 A 
DOCKED: ATOM     32  H   UNL     1      26.723 -14.150  -4.735 -0.02 -0.00    +0.000 HD
DOCKED: ENDBRANCH  22  23
DOCKED: ENDBRANCH  21  22
DOCKED: ENDBRANCH   1  21
DOCKED: TORSDOF 10
DOCKED: TER
DOCKED: ENDMDL
________________________________________________________________________________


	BEGINNING GENETIC ALGORITHM DOCKING 69 of 100
Run: 69 Seed: 294139166 1829495864 [ Run 69 of 100 GA/GALS ]
Beginning LAMARCKIAN GENETIC ALGORITHM (LGA), with a maximum of 2500000 energy evaluations.

Final-Value: -16.743


	FINAL GENETIC ALGORITHM DOCKED STATE
	_______________________________________________


Detailed state:  trans 29.056 -15.675 -0.851 quatxyzw -0.740625 -0.349486 -0.573414 0.023033 center 0.285 0.077 -0.044 ntor 10 -32.6628 84.8678 -73.8052 -179.1324 -102.0939 -29.8165 -53.2705 -18.6073 179.1940 180.0000
State:	 29.056 -15.675  -0.851  -0.741 -0.350 -0.574 177.360    -32.66   84.87  -73.81 -179.13 -102.09  -29.82  -53.27  -18.61  179.19  180.00

DOCKED: MODEL       69
DOCKED: USER    Run = 69
DOCKED: USER    DPF = ligand_dock.biased.dpf
DOCKED: USER  
DOCKED: USER    Estimated Free Energy of Binding    =  -12.06 kcal/mol  [=(1)+(2)+(3)-(4)]
DOCKED: USER    Estimated Inhibition Constant, Ki   =    1.45 nM (nanomolar)  [Temperature = 298.15 K]
DOCKED: USER    
DOCKED: USER    (1) Final Intermolecular Energy     =  -15.04 kcal/mol
DOCKED: USER        vdW + Hbond + desolv Energy     =  -15.04 kcal/mol
DOCKED: USER        Electrostatic Energy            =   +0.00 kcal/mol
DOCKED: USER    (2) Final Total Internal Energy     =   -1.70 kcal/mol
DOCKED: USER    (3) Torsional Free Energy           =   +2.98 kcal/mol
DOCKED: USER    (4) Unbound System's Energy  [=(2)] =   -1.70 kcal/mol
DOCKED: USER    
DOCKED: USER    
DOCKED: USER    NEWDPF move ligand.pdbqt
DOCKED: USER    NEWDPF about 0.285000 0.077000 -0.044000
DOCKED: USER    NEWDPF tran0 29.055743 -15.674787 -0.851442
DOCKED: USER    NEWDPF quaternion0 -0.740625 -0.349486 -0.573414 0.023033
DOCKED: USER    NEWDPF axisangle0 -0.740821 -0.349579 -0.573566 177.360367
DOCKED: USER    NEWDPF quat0 -0.740821 -0.349579 -0.573566 177.360367
DOCKED: USER    NEWDPF dihe0 -32.66 84.87 -73.81 -179.13 -102.09 -29.82 -53.27 -18.61 179.19 180.00 
DOCKED: USER  keepresnum = 1 
DOCKED: USER  
DOCKED: REMARK  Name = 
DOCKED: REMARK  10 active torsions:
DOCKED: REMARK  status: ('A' for Active; 'I' for Inactive)
DOCKED: REMARK    1  A    between atoms: C_2  and  C_5
DOCKED: REMARK    2  A    between atoms: C_6  and  C_7
DOCKED: REMARK    3  A    between atoms: C_10  and  C_11
DOCKED: REMARK    4  A    between atoms: C_11  and  N_12
DOCKED: REMARK    5  A    between atoms: N_12  and  C_13
DOCKED: REMARK    6  A    between atoms: N_12  and  C_16
DOCKED: REMARK    7  A    between atoms: C_13  and  C_14
DOCKED: REMARK    8  A    between atoms: C_14  and  O_15
DOCKED: REMARK    9  A    between atoms: C_16  and  C_17
DOCKED: REMARK   10  A    between atoms: C_17  and  C_18
DOCKED: REMARK                            x       y       z     vdW  Elec       q    Type
DOCKED: REMARK                         _______ _______ _______ _____ _____    ______ ____
DOCKED: USER                              x       y       z     vdW  Elec       q    Type
DOCKED: USER                           _______ _______ _______ _____ _____    ______ ____
DOCKED: ROOT
DOCKED: ATOM      1  N   UNL     1      28.733 -16.183  -2.044 -0.23 -0.00    +0.000 N 
DOCKED: ATOM      2  H   UNL     1      28.145 -16.872  -2.511 -0.02 -0.00    +0.000 HD
DOCKED: ENDROOT
DOCKED: BRANCH   1   3
DOCKED: ATOM      3  C   UNL     1      28.039 -15.948  -0.752 -0.31 -0.00    +0.000 C 
DOCKED: BRANCH   3   7
DOCKED: ATOM      4  C   UNL     1      24.232 -18.010  -0.414 -0.67 -0.00    +0.000 A 
DOCKED: ATOM      5  C   UNL     1      24.304 -16.729  -0.981 -0.54 -0.00    +0.000 A 
DOCKED: ATOM      6  C   UNL     1      25.529 -16.066  -1.092 -0.46 -0.00    +0.000 A 
DOCKED: ATOM      7  C   UNL     1      26.707 -16.660  -0.611 -0.44 -0.00    +0.000 A 
DOCKED: ATOM      8  C   UNL     1      26.640 -17.948  -0.056 -0.51 -0.00    +0.000 A 
DOCKED: ATOM      9  C   UNL     1      25.416 -18.613   0.056 -0.39 -0.00    +0.000 A 
DOCKED: BRANCH   4  11
DOCKED: ATOM     10  C   UNL     1      22.099 -18.895  -1.354 -0.71 -0.00    +0.000 C 
DOCKED: ATOM     11  C   UNL     1      22.905 -18.667  -0.307 -0.81 -0.00    +0.000 C 
DOCKED: BRANCH  10  13
DOCKED: ATOM     12  O   UNL     1      20.043 -19.735  -2.210 -2.32 -0.00    +0.000 OA
DOCKED: ATOM     13  C   UNL     1      20.781 -19.541  -1.206 -0.82 -0.00    +0.000 C 
DOCKED: ATOM     14  N   UNL     1      20.333 -19.951   0.088 -0.73 -0.00    +0.000 N 
DOCKED: ATOM     15  O   UNL     1      19.126 -20.544   0.240 -0.99 -0.00    +0.000 OA
DOCKED: ATOM     16  H   UNL     1      20.906 -19.800   0.874 -0.36 -0.00    +0.000 HD
DOCKED: ENDBRANCH  10  13
DOCKED: ENDBRANCH   4  11
DOCKED: ENDBRANCH   3   7
DOCKED: ENDBRANCH   1   3
DOCKED: BRANCH   1  17
DOCKED: ATOM     17  C   UNL     1      30.054 -16.843  -1.933 -0.20 -0.00    +0.000 C 
DOCKED: BRANCH  17  18
DOCKED: ATOM     18  C   UNL     1      30.460 -17.055  -0.468 -0.19 -0.00    +0.000 C 
DOCKED: BRANCH  18  19
DOCKED: ATOM     19  O   UNL     1      30.996 -18.337  -0.280 -0.22 -0.00    +0.000 OA
DOCKED: ATOM     20  H   UNL     1      30.293 -18.943  -0.000 -0.49 -0.00    +0.000 HD
DOCKED: ENDBRANCH  18  19
DOCKED: ENDBRANCH  17  18
DOCKED: ENDBRANCH   1  17
DOCKED: BRANCH   1  21
DOCKED: ATOM     21  C   UNL     1      28.756 -14.994  -2.929 -0.18 -0.00    +0.000 C 
DOCKED: BRANCH  21  22
DOCKED: ATOM     22  C   UNL     1      27.784 -15.179  -4.099 -0.36 -0.00    +0.000 C 
DOCKED: BRANCH  22  23
DOCKED: ATOM     23  C   UNL     1      28.523 -15.256  -5.403 -0.35 -0.00    +0.000 A 
DOCKED: ATOM     24  C   UNL     1      28.509 -14.300  -6.415 -0.33 -0.00    +0.000 A 
DOCKED: ATOM     25  N   UNL     1      29.392 -14.627  -7.386 -0.31 -0.00    +0.000 N 
DOCKED: ATOM     26  C   UNL     1      29.973 -15.772  -6.990 -0.23 -0.00    +0.000 A 
DOCKED: ATOM     27  C   UNL     1      29.472 -16.186  -5.783 -0.29 -0.00    +0.000 A 
DOCKED: ATOM     28  C   UNL     1      29.946 -17.335  -5.147 -0.27 -0.00    +0.000 A 
DOCKED: ATOM     29  C   UNL     1      30.961 -18.069  -5.788 -0.26 -0.00    +0.000 A 
DOCKED: ATOM     30  C   UNL     1      31.475 -17.642  -7.032 -0.24 -0.00    +0.000 A 
DOCKED: ATOM     31  C   UNL     1      30.980 -16.477  -7.647 -0.26 -0.00    +0.000 A 
DOCKED: ATOM     32  H   UNL     1      29.570 -14.127  -8.215 -0.56 -0.00    +0.000 HD
DOCKED: ENDBRANCH  22  23
DOCKED: ENDBRANCH  21  22
DOCKED: ENDBRANCH   1  21
DOCKED: TORSDOF 10
DOCKED: TER
DOCKED: ENDMDL
________________________________________________________________________________


	BEGINNING GENETIC ALGORITHM DOCKING 70 of 100
Run: 70 Seed: 6072504 283410901 [ Run 70 of 100 GA/GALS ]
Beginning LAMARCKIAN GENETIC ALGORITHM (LGA), with a maximum of 2500000 energy evaluations.

Final-Value: -17.604


	FINAL GENETIC ALGORITHM DOCKED STATE
	_______________________________________________


Detailed state:  trans 27.859 -15.146 -0.529 quatxyzw -0.427233 0.442979 0.747960 -0.248591 center 0.285 0.077 -0.044 ntor 10 98.3826 -121.5458 104.2333 -74.7668 104.5835 7.0464 16.0145 -1.6017 -7.7329 -64.1664
State:	 27.859 -15.146  -0.529  -0.441  0.457  0.772 -151.212     98.38 -121.55  104.23  -74.77  104.58    7.05   16.01   -1.60   -7.73  -64.17

DOCKED: MODEL       70
DOCKED: USER    Run = 70
DOCKED: USER    DPF = ligand_dock.biased.dpf
DOCKED: USER  
DOCKED: USER    Estimated Free Energy of Binding    =  -12.28 kcal/mol  [=(1)+(2)+(3)-(4)]
DOCKED: USER    Estimated Inhibition Constant, Ki   =  989.71 pM (picomolar)  [Temperature = 298.15 K]
DOCKED: USER    
DOCKED: USER    (1) Final Intermolecular Energy     =  -15.27 kcal/mol
DOCKED: USER        vdW + Hbond + desolv Energy     =  -15.27 kcal/mol
DOCKED: USER        Electrostatic Energy            =   +0.00 kcal/mol
DOCKED: USER    (2) Final Total Internal Energy     =   -2.34 kcal/mol
DOCKED: USER    (3) Torsional Free Energy           =   +2.98 kcal/mol
DOCKED: USER    (4) Unbound System's Energy  [=(2)] =   -2.34 kcal/mol
DOCKED: USER    
DOCKED: USER    
DOCKED: USER    NEWDPF move ligand.pdbqt
DOCKED: USER    NEWDPF about 0.285000 0.077000 -0.044000
DOCKED: USER    NEWDPF tran0 27.859382 -15.145765 -0.529160
DOCKED: USER    NEWDPF quaternion0 -0.427233 0.442979 0.747960 -0.248591
DOCKED: USER    NEWDPF axisangle0 -0.441079 0.457335 0.772201 -151.211710
DOCKED: USER    NEWDPF quat0 -0.441079 0.457335 0.772201 -151.211710
DOCKED: USER    NEWDPF dihe0 98.38 -121.55 104.23 -74.77 104.58 7.05 16.01 -1.60 -7.73 -64.17 
DOCKED: USER  keepresnum = 1 
DOCKED: USER  
DOCKED: REMARK  Name = 
DOCKED: REMARK  10 active torsions:
DOCKED: REMARK  status: ('A' for Active; 'I' for Inactive)
DOCKED: REMARK    1  A    between atoms: C_2  and  C_5
DOCKED: REMARK    2  A    between atoms: C_6  and  C_7
DOCKED: REMARK    3  A    between atoms: C_10  and  C_11
DOCKED: REMARK    4  A    between atoms: C_11  and  N_12
DOCKED: REMARK    5  A    between atoms: N_12  and  C_13
DOCKED: REMARK    6  A    between atoms: N_12  and  C_16
DOCKED: REMARK    7  A    between atoms: C_13  and  C_14
DOCKED: REMARK    8  A    between atoms: C_14  and  O_15
DOCKED: REMARK    9  A    between atoms: C_16  and  C_17
DOCKED: REMARK   10  A    between atoms: C_17  and  C_18
DOCKED: REMARK                            x       y       z     vdW  Elec       q    Type
DOCKED: REMARK                         _______ _______ _______ _____ _____    ______ ____
DOCKED: USER                              x       y       z     vdW  Elec       q    Type
DOCKED: USER                           _______ _______ _______ _____ _____    ______ ____
DOCKED: ROOT
DOCKED: ATOM      1  N   UNL     1      28.770 -15.046   0.443 -0.20 -0.00    +0.000 N 
DOCKED: ATOM      2  H   UNL     1      29.422 -15.581   1.016 -0.69 -0.00    +0.000 HD
DOCKED: ENDROOT
DOCKED: BRANCH   1   3
DOCKED: ATOM      3  C   UNL     1      28.556 -15.911  -0.746 -0.26 -0.00    +0.000 C 
DOCKED: BRANCH   3   7
DOCKED: ATOM      4  C   UNL     1      24.600 -17.669  -1.092 -0.65 -0.00    +0.000 A 
DOCKED: ATOM      5  C   UNL     1      24.853 -16.376  -1.572 -0.52 -0.00    +0.000 A 
DOCKED: ATOM      6  C   UNL     1      26.126 -15.811  -1.463 -0.41 -0.00    +0.000 A 
DOCKED: ATOM      7  C   UNL     1      27.169 -16.518  -0.844 -0.39 -0.00    +0.000 A 
DOCKED: ATOM      8  C   UNL     1      26.923 -17.818  -0.376 -0.48 -0.00    +0.000 A 
DOCKED: ATOM      9  C   UNL     1      25.650 -18.385  -0.484 -0.57 -0.00    +0.000 A 
DOCKED: BRANCH   4  11
DOCKED: ATOM     10  C   UNL     1      22.313 -18.180  -0.240 -0.82 -0.00    +0.000 C 
DOCKED: ATOM     11  C   UNL     1      23.227 -18.220  -1.220 -0.79 -0.00    +0.000 C 
DOCKED: BRANCH  10  13
DOCKED: ATOM     12  O   UNL     1      20.086 -18.142  -1.079 -1.98 -0.00    +0.000 OA
DOCKED: ATOM     13  C   UNL     1      20.961 -18.748  -0.403 -0.76 -0.00    +0.000 C 
DOCKED: ATOM     14  N   UNL     1      20.637 -19.997   0.213 -0.70 -0.00    +0.000 N 
DOCKED: ATOM     15  O   UNL     1      19.401 -20.531   0.074 -1.10 -0.00    +0.000 OA
DOCKED: ATOM     16  H   UNL     1      21.318 -20.472   0.742 -0.59 -0.00    +0.000 HD
DOCKED: ENDBRANCH  10  13
DOCKED: ENDBRANCH   4  11
DOCKED: ENDBRANCH   3   7
DOCKED: ENDBRANCH   1   3
DOCKED: BRANCH   1  17
DOCKED: ATOM     17  C   UNL     1      27.582 -14.868   1.308 -0.18 -0.00    +0.000 C 
DOCKED: BRANCH  17  18
DOCKED: ATOM     18  C   UNL     1      27.922 -14.085   2.584 -0.35 -0.00    +0.000 C 
DOCKED: BRANCH  18  19
DOCKED: ATOM     19  O   UNL     1      28.718 -14.854   3.445 -0.38 -0.00    +0.000 OA
DOCKED: ATOM     20  H   UNL     1      29.346 -15.376   2.922 -1.85 -0.00    +0.000 HD
DOCKED: ENDBRANCH  18  19
DOCKED: ENDBRANCH  17  18
DOCKED: ENDBRANCH   1  17
DOCKED: BRANCH   1  21
DOCKED: ATOM     21  C   UNL     1      29.452 -13.767   0.130 -0.10 -0.00    +0.000 C 
DOCKED: BRANCH  21  22
DOCKED: ATOM     22  C   UNL     1      30.972 -13.931   0.236 -0.05 -0.00    +0.000 C 
DOCKED: BRANCH  22  23
DOCKED: ATOM     23  C   UNL     1      31.344 -14.686   1.479 -0.10 -0.00    +0.000 A 
DOCKED: ATOM     24  C   UNL     1      31.310 -14.194   2.781 -0.14 -0.00    +0.000 A 
DOCKED: ATOM     25  N   UNL     1      31.579 -15.182   3.666 -0.25 -0.00    +0.000 N 
DOCKED: ATOM     26  C   UNL     1      31.767 -16.294   2.936 -0.19 -0.00    +0.000 A 
DOCKED: ATOM     27  C   UNL     1      31.629 -16.033   1.597 -0.13 -0.00    +0.000 A 
DOCKED: ATOM     28  C   UNL     1      31.745 -17.040   0.637 -0.12 -0.00    +0.000 A 
DOCKED: ATOM     29  C   UNL     1      32.015 -18.346   1.085 -0.13 -0.00    +0.000 A 
DOCKED: ATOM     30  C   UNL     1      32.158 -18.613   2.464 -0.19 -0.00    +0.000 A 
DOCKED: ATOM     31  C   UNL     1      32.032 -17.578   3.409 -0.22 -0.00    +0.000 A 
DOCKED: ATOM     32  H   UNL     1      31.626 -15.100   4.646 +0.01 -0.00    +0.000 HD
DOCKED: ENDBRANCH  22  23
DOCKED: ENDBRANCH  21  22
DOCKED: ENDBRANCH   1  21
DOCKED: TORSDOF 10
DOCKED: TER
DOCKED: ENDMDL
________________________________________________________________________________


	BEGINNING GENETIC ALGORITHM DOCKING 71 of 100
Run: 71 Seed: 153498854 1634158 [ Run 71 of 100 GA/GALS ]
Beginning LAMARCKIAN GENETIC ALGORITHM (LGA), with a maximum of 2500000 energy evaluations.

Final-Value: -16.079


	FINAL GENETIC ALGORITHM DOCKED STATE
	_______________________________________________


Detailed state:  trans 29.030 -15.005 -0.607 quatxyzw -0.020467 0.305171 0.821100 0.481919 center 0.285 0.077 -0.044 ntor 10 -98.2878 -159.4201 -99.0349 -44.5753 138.1572 -106.0466 -138.2464 180.0000 175.9384 48.3279
State:	 29.030 -15.005  -0.607  -0.023  0.348  0.937 122.378    -98.29 -159.42  -99.03  -44.58  138.16 -106.05 -138.25  180.00  175.94   48.33

DOCKED: MODEL       71
DOCKED: USER    Run = 71
DOCKED: USER    DPF = ligand_dock.biased.dpf
DOCKED: USER  
DOCKED: USER    Estimated Free Energy of Binding    =  -11.49 kcal/mol  [=(1)+(2)+(3)-(4)]
DOCKED: USER    Estimated Inhibition Constant, Ki   =    3.76 nM (nanomolar)  [Temperature = 298.15 K]
DOCKED: USER    
DOCKED: USER    (1) Final Intermolecular Energy     =  -14.48 kcal/mol
DOCKED: USER        vdW + Hbond + desolv Energy     =  -14.48 kcal/mol
DOCKED: USER        Electrostatic Energy            =   +0.00 kcal/mol
DOCKED: USER    (2) Final Total Internal Energy     =   -1.60 kcal/mol
DOCKED: USER    (3) Torsional Free Energy           =   +2.98 kcal/mol
DOCKED: USER    (4) Unbound System's Energy  [=(2)] =   -1.60 kcal/mol
DOCKED: USER    
DOCKED: USER    
DOCKED: USER    NEWDPF move ligand.pdbqt
DOCKED: USER    NEWDPF about 0.285000 0.077000 -0.044000
DOCKED: USER    NEWDPF tran0 29.030384 -15.005299 -0.607382
DOCKED: USER    NEWDPF quaternion0 -0.020467 0.305171 0.821100 0.481919
DOCKED: USER    NEWDPF axisangle0 -0.023359 0.348283 0.937098 122.378380
DOCKED: USER    NEWDPF quat0 -0.023359 0.348283 0.937098 122.378380
DOCKED: USER    NEWDPF dihe0 -98.29 -159.42 -99.03 -44.58 138.16 -106.05 -138.25 180.00 175.94 48.33 
DOCKED: USER  keepresnum = 1 
DOCKED: USER  
DOCKED: REMARK  Name = 
DOCKED: REMARK  10 active torsions:
DOCKED: REMARK  status: ('A' for Active; 'I' for Inactive)
DOCKED: REMARK    1  A    between atoms: C_2  and  C_5
DOCKED: REMARK    2  A    between atoms: C_6  and  C_7
DOCKED: REMARK    3  A    between atoms: C_10  and  C_11
DOCKED: REMARK    4  A    between atoms: C_11  and  N_12
DOCKED: REMARK    5  A    between atoms: N_12  and  C_13
DOCKED: REMARK    6  A    between atoms: N_12  and  C_16
DOCKED: REMARK    7  A    between atoms: C_13  and  C_14
DOCKED: REMARK    8  A    between atoms: C_14  and  O_15
DOCKED: REMARK    9  A    between atoms: C_16  and  C_17
DOCKED: REMARK   10  A    between atoms: C_17  and  C_18
DOCKED: REMARK                            x       y       z     vdW  Elec       q    Type
DOCKED: REMARK                         _______ _______ _______ _____ _____    ______ ____
DOCKED: USER                              x       y       z     vdW  Elec       q    Type
DOCKED: USER                           _______ _______ _______ _____ _____    ______ ____
DOCKED: ROOT
DOCKED: ATOM      1  N   UNL     1      29.517 -13.884  -1.147 -0.06 -0.00    +0.000 N 
DOCKED: ATOM      2  H   UNL     1      30.175 -13.523  -1.837 +0.00 -0.00    +0.000 HD
DOCKED: ENDROOT
DOCKED: BRANCH   1   3
DOCKED: ATOM      3  C   UNL     1      29.256 -15.274  -1.605 -0.14 -0.00    +0.000 C 
DOCKED: BRANCH   3   7
DOCKED: ATOM      4  C   UNL     1      25.070 -16.418  -1.421 -0.53 -0.00    +0.000 A 
DOCKED: ATOM      5  C   UNL     1      25.926 -16.656  -0.335 -0.38 -0.00    +0.000 A 
DOCKED: ATOM      6  C   UNL     1      27.272 -16.286  -0.393 -0.36 -0.00    +0.000 A 
DOCKED: ATOM      7  C   UNL     1      27.800 -15.694  -1.552 -0.25 -0.00    +0.000 A 
DOCKED: ATOM      8  C   UNL     1      26.943 -15.442  -2.635 -0.33 -0.00    +0.000 A 
DOCKED: ATOM      9  C   UNL     1      25.596 -15.811  -2.579 -0.48 -0.00    +0.000 A 
DOCKED: BRANCH   4  11
DOCKED: ATOM     10  C   UNL     1      23.263 -18.116  -1.168 -0.78 -0.00    +0.000 C 
DOCKED: ATOM     11  C   UNL     1      23.652 -16.842  -1.314 -0.51 -0.00    +0.000 C 
DOCKED: BRANCH  10  13
DOCKED: ATOM     12  O   UNL     1      21.049 -17.859  -0.332 -1.91 +0.00    +0.000 OA
DOCKED: ATOM     13  C   UNL     1      21.840 -18.499  -1.077 -0.79 -0.00    +0.000 C 
DOCKED: ATOM     14  N   UNL     1      21.353 -19.606  -1.838 -0.51 -0.00    +0.000 N 
DOCKED: ATOM     15  O   UNL     1      20.051 -19.969  -1.764 -2.23 -0.00    +0.000 OA
DOCKED: ATOM     16  H   UNL     1      21.968 -20.108  -2.420 -0.61 -0.00    +0.000 HD
DOCKED: ENDBRANCH  10  13
DOCKED: ENDBRANCH   4  11
DOCKED: ENDBRANCH   3   7
DOCKED: ENDBRANCH   1   3
DOCKED: BRANCH   1  17
DOCKED: ATOM     17  C   UNL     1      30.238 -13.776   0.141 -0.07 -0.00    +0.000 C 
DOCKED: BRANCH  17  18
DOCKED: ATOM     18  C   UNL     1      29.949 -14.975   1.055 -0.08 -0.00    +0.000 C 
DOCKED: BRANCH  18  19
DOCKED: ATOM     19  O   UNL     1      29.129 -14.598   2.128 -0.21 -0.00    +0.000 OA
DOCKED: ATOM     20  H   UNL     1      29.225 -15.241   2.849 -1.96 -0.00    +0.000 HD
DOCKED: ENDBRANCH  18  19
DOCKED: ENDBRANCH  17  18
DOCKED: ENDBRANCH   1  17
DOCKED: BRANCH   1  21
DOCKED: ATOM     21  C   UNL     1      28.325 -13.005  -1.216 -0.11 -0.00    +0.000 C 
DOCKED: BRANCH  21  22
DOCKED: ATOM     22  C   UNL     1      27.565 -13.027   0.114 -0.20 -0.00    +0.000 C 
DOCKED: BRANCH  22  23
DOCKED: ATOM     23  C   UNL     1      26.663 -11.833   0.235 -0.18 -0.00    +0.000 A 
DOCKED: ATOM     24  C   UNL     1      25.730 -11.606   1.244 -0.34 +0.00    +0.000 A 
DOCKED: ATOM     25  N   UNL     1      25.189 -10.372   1.118 -0.46 +0.00    +0.000 N 
DOCKED: ATOM     26  C   UNL     1      25.782  -9.815   0.049 -0.24 +0.00    +0.000 A 
DOCKED: ATOM     27  C   UNL     1      26.690 -10.673  -0.516 -0.08 +0.00    +0.000 A 
DOCKED: ATOM     28  C   UNL     1      27.459 -10.306  -1.621 -0.10 -0.00    +0.000 A 
DOCKED: ATOM     29  C   UNL     1      27.272  -9.016  -2.151 -0.09 -0.00    +0.000 A 
DOCKED: ATOM     30  C   UNL     1      26.336  -8.133  -1.570 -0.15 +0.00    +0.000 A 
DOCKED: ATOM     31  C   UNL     1      25.578  -8.530  -0.454 -0.28 +0.00    +0.000 A 
DOCKED: ATOM     32  H   UNL     1      24.501  -9.968   1.693 -0.06 +0.00    +0.000 HD
DOCKED: ENDBRANCH  22  23
DOCKED: ENDBRANCH  21  22
DOCKED: ENDBRANCH   1  21
DOCKED: TORSDOF 10
DOCKED: TER
DOCKED: ENDMDL
________________________________________________________________________________


	BEGINNING GENETIC ALGORITHM DOCKING 72 of 100
Run: 72 Seed: 794406134 411196564 [ Run 72 of 100 GA/GALS ]
Beginning LAMARCKIAN GENETIC ALGORITHM (LGA), with a maximum of 2500000 energy evaluations.

Final-Value: -17.129


	FINAL GENETIC ALGORITHM DOCKED STATE
	_______________________________________________


Detailed state:  trans 27.473 -16.013 -0.551 quatxyzw -0.247966 0.624715 0.705575 0.224519 center 0.285 0.077 -0.044 ntor 10 82.2564 -179.7801 52.7140 87.3799 180.0000 -179.5522 171.3161 -12.7907 108.3450 1.5181
State:	 27.473 -16.013  -0.551  -0.254  0.641  0.724 154.051     82.26 -179.78   52.71   87.38  180.00 -179.55  171.32  -12.79  108.35    1.52

DOCKED: MODEL       72
DOCKED: USER    Run = 72
DOCKED: USER    DPF = ligand_dock.biased.dpf
DOCKED: USER  
DOCKED: USER    Estimated Free Energy of Binding    =  -12.59 kcal/mol  [=(1)+(2)+(3)-(4)]
DOCKED: USER    Estimated Inhibition Constant, Ki   =  591.24 pM (picomolar)  [Temperature = 298.15 K]
DOCKED: USER    
DOCKED: USER    (1) Final Intermolecular Energy     =  -15.57 kcal/mol
DOCKED: USER        vdW + Hbond + desolv Energy     =  -15.57 kcal/mol
DOCKED: USER        Electrostatic Energy            =   +0.00 kcal/mol
DOCKED: USER    (2) Final Total Internal Energy     =   -1.56 kcal/mol
DOCKED: USER    (3) Torsional Free Energy           =   +2.98 kcal/mol
DOCKED: USER    (4) Unbound System's Energy  [=(2)] =   -1.56 kcal/mol
DOCKED: USER    
DOCKED: USER    
DOCKED: USER    NEWDPF move ligand.pdbqt
DOCKED: USER    NEWDPF about 0.285000 0.077000 -0.044000
DOCKED: USER    NEWDPF tran0 27.473277 -16.013004 -0.550550
DOCKED: USER    NEWDPF quaternion0 -0.247966 0.624715 0.705575 0.224519
DOCKED: USER    NEWDPF axisangle0 -0.254462 0.641082 0.724060 154.050865
DOCKED: USER    NEWDPF quat0 -0.254462 0.641082 0.724060 154.050865
DOCKED: USER    NEWDPF dihe0 82.26 -179.78 52.71 87.38 180.00 -179.55 171.32 -12.79 108.35 1.52 
DOCKED: USER  keepresnum = 1 
DOCKED: USER  
DOCKED: REMARK  Name = 
DOCKED: REMARK  10 active torsions:
DOCKED: REMARK  status: ('A' for Active; 'I' for Inactive)
DOCKED: REMARK    1  A    between atoms: C_2  and  C_5
DOCKED: REMARK    2  A    between atoms: C_6  and  C_7
DOCKED: REMARK    3  A    between atoms: C_10  and  C_11
DOCKED: REMARK    4  A    between atoms: C_11  and  N_12
DOCKED: REMARK    5  A    between atoms: N_12  and  C_13
DOCKED: REMARK    6  A    between atoms: N_12  and  C_16
DOCKED: REMARK    7  A    between atoms: C_13  and  C_14
DOCKED: REMARK    8  A    between atoms: C_14  and  O_15
DOCKED: REMARK    9  A    between atoms: C_16  and  C_17
DOCKED: REMARK   10  A    between atoms: C_17  and  C_18
DOCKED: REMARK                            x       y       z     vdW  Elec       q    Type
DOCKED: REMARK                         _______ _______ _______ _____ _____    ______ ____
DOCKED: USER                              x       y       z     vdW  Elec       q    Type
DOCKED: USER                           _______ _______ _______ _____ _____    ______ ____
DOCKED: ROOT
DOCKED: ATOM      1  N   UNL     1      28.518 -15.207  -0.758 -0.18 -0.00    +0.000 N 
DOCKED: ATOM      2  H   UNL     1      29.537 -15.160  -0.731 +0.00 -0.00    +0.000 HD
DOCKED: ENDROOT
DOCKED: BRANCH   1   3
DOCKED: ATOM      3  C   UNL     1      28.239 -16.661  -0.885 -0.35 -0.00    +0.000 C 
DOCKED: BRANCH   3   7
DOCKED: ATOM      4  C   UNL     1      24.022 -17.694  -0.749 -0.68 -0.00    +0.000 A 
DOCKED: ATOM      5  C   UNL     1      25.004 -18.652  -0.456 -0.50 -0.00    +0.000 A 
DOCKED: ATOM      6  C   UNL     1      26.360 -18.320  -0.497 -0.51 -0.00    +0.000 A 
DOCKED: ATOM      7  C   UNL     1      26.767 -17.026  -0.861 -0.46 -0.00    +0.000 A 
DOCKED: ATOM      8  C   UNL     1      25.787 -16.061  -1.142 -0.45 -0.00    +0.000 A 
DOCKED: ATOM      9  C   UNL     1      24.429 -16.392  -1.101 -0.42 -0.00    +0.000 A 
DOCKED: BRANCH   4  11
DOCKED: ATOM     10  C   UNL     1      22.179 -19.372  -0.797 -0.75 -0.00    +0.000 C 
DOCKED: ATOM     11  C   UNL     1      22.596 -18.101  -0.704 -0.83 -0.00    +0.000 C 
DOCKED: BRANCH  10  13
DOCKED: ATOM     12  O   UNL     1      20.055 -19.726  -1.812 -2.37 -0.00    +0.000 OA
DOCKED: ATOM     13  C   UNL     1      20.749 -19.735  -0.759 -0.83 -0.00    +0.000 C 
DOCKED: ATOM     14  N   UNL     1      20.142 -20.099   0.483 -0.71 -0.00    +0.000 N 
DOCKED: ATOM     15  O   UNL     1      18.832 -20.434   0.535 -0.87 -0.00    +0.000 OA
DOCKED: ATOM     16  H   UNL     1      20.682 -20.107   1.307 -0.43 -0.00    +0.000 HD
DOCKED: ENDBRANCH  10  13
DOCKED: ENDBRANCH   4  11
DOCKED: ENDBRANCH   3   7
DOCKED: ENDBRANCH   1   3
DOCKED: BRANCH   1  17
DOCKED: ATOM     17  C   UNL     1      28.089 -14.598   0.522 -0.25 -0.00    +0.000 C 
DOCKED: BRANCH  17  18
DOCKED: ATOM     18  C   UNL     1      29.262 -13.931   1.254 -0.16 -0.00    +0.000 C 
DOCKED: BRANCH  18  19
DOCKED: ATOM     19  O   UNL     1      29.340 -14.377   2.581 -0.26 -0.00    +0.000 OA
DOCKED: ATOM     20  H   UNL     1      28.883 -15.229   2.663 -1.98 -0.00    +0.000 HD
DOCKED: ENDBRANCH  18  19
DOCKED: ENDBRANCH  17  18
DOCKED: ENDBRANCH   1  17
DOCKED: BRANCH   1  21
DOCKED: ATOM     21  C   UNL     1      28.101 -14.418  -1.941 -0.17 -0.00    +0.000 C 
DOCKED: BRANCH  21  22
DOCKED: ATOM     22  C   UNL     1      29.310 -14.099  -2.826 -0.09 -0.00    +0.000 C 
DOCKED: BRANCH  22  23
DOCKED: ATOM     23  C   UNL     1      29.245 -14.861  -4.117 -0.16 -0.00    +0.000 A 
DOCKED: ATOM     24  C   UNL     1      28.808 -14.367  -5.344 -0.25 -0.00    +0.000 A 
DOCKED: ATOM     25  N   UNL     1      29.010 -15.281  -6.320 -0.39 -0.00    +0.000 N 
DOCKED: ATOM     26  C   UNL     1      29.584 -16.340  -5.725 -0.30 -0.00    +0.000 A 
DOCKED: ATOM     27  C   UNL     1      29.747 -16.122  -4.382 -0.22 -0.00    +0.000 A 
DOCKED: ATOM     28  C   UNL     1      30.355 -17.066  -3.552 -0.18 -0.00    +0.000 A 
DOCKED: ATOM     29  C   UNL     1      30.797 -18.266  -4.139 -0.20 -0.00    +0.000 A 
DOCKED: ATOM     30  C   UNL     1      30.628 -18.491  -5.523 -0.30 -0.00    +0.000 A 
DOCKED: ATOM     31  C   UNL     1      30.015 -17.518  -6.334 -0.23 -0.00    +0.000 A 
DOCKED: ATOM     32  H   UNL     1      28.782 -15.187  -7.274 -0.08 -0.00    +0.000 HD
DOCKED: ENDBRANCH  22  23
DOCKED: ENDBRANCH  21  22
DOCKED: ENDBRANCH   1  21
DOCKED: TORSDOF 10
DOCKED: TER
DOCKED: ENDMDL
________________________________________________________________________________


	BEGINNING GENETIC ALGORITHM DOCKING 73 of 100
Run: 73 Seed: 356849992 956299265 [ Run 73 of 100 GA/GALS ]
Beginning LAMARCKIAN GENETIC ALGORITHM (LGA), with a maximum of 2500000 energy evaluations.

Final-Value: -16.876


	FINAL GENETIC ALGORITHM DOCKED STATE
	_______________________________________________


Detailed state:  trans 28.516 -15.015 -1.056 quatxyzw -0.284443 -0.834573 -0.168054 0.440839 center 0.285 0.077 -0.044 ntor 10 84.9843 -135.9342 75.3271 -56.5646 -73.8114 126.3869 -175.3126 112.4359 -46.7967 120.9428
State:	 28.516 -15.015  -1.056  -0.317 -0.930 -0.187 127.685     84.98 -135.93   75.33  -56.56  -73.81  126.39 -175.31  112.44  -46.80  120.94

DOCKED: MODEL       73
DOCKED: USER    Run = 73
DOCKED: USER    DPF = ligand_dock.biased.dpf
DOCKED: USER  
DOCKED: USER    Estimated Free Energy of Binding    =  -12.47 kcal/mol  [=(1)+(2)+(3)-(4)]
DOCKED: USER    Estimated Inhibition Constant, Ki   =  720.85 pM (picomolar)  [Temperature = 298.15 K]
DOCKED: USER    
DOCKED: USER    (1) Final Intermolecular Energy     =  -15.46 kcal/mol
DOCKED: USER        vdW + Hbond + desolv Energy     =  -15.46 kcal/mol
DOCKED: USER        Electrostatic Energy            =   +0.00 kcal/mol
DOCKED: USER    (2) Final Total Internal Energy     =   -1.42 kcal/mol
DOCKED: USER    (3) Torsional Free Energy           =   +2.98 kcal/mol
DOCKED: USER    (4) Unbound System's Energy  [=(2)] =   -1.42 kcal/mol
DOCKED: USER    
DOCKED: USER    
DOCKED: USER    NEWDPF move ligand.pdbqt
DOCKED: USER    NEWDPF about 0.285000 0.077000 -0.044000
DOCKED: USER    NEWDPF tran0 28.516294 -15.015231 -1.056300
DOCKED: USER    NEWDPF quaternion0 -0.284443 -0.834573 -0.168054 0.440839
DOCKED: USER    NEWDPF axisangle0 -0.316897 -0.929796 -0.187229 127.685205
DOCKED: USER    NEWDPF quat0 -0.316897 -0.929796 -0.187229 127.685205
DOCKED: USER    NEWDPF dihe0 84.98 -135.93 75.33 -56.56 -73.81 126.39 -175.31 112.44 -46.80 120.94 
DOCKED: USER  keepresnum = 1 
DOCKED: USER  
DOCKED: REMARK  Name = 
DOCKED: REMARK  10 active torsions:
DOCKED: REMARK  status: ('A' for Active; 'I' for Inactive)
DOCKED: REMARK    1  A    between atoms: C_2  and  C_5
DOCKED: REMARK    2  A    between atoms: C_6  and  C_7
DOCKED: REMARK    3  A    between atoms: C_10  and  C_11
DOCKED: REMARK    4  A    between atoms: C_11  and  N_12
DOCKED: REMARK    5  A    between atoms: N_12  and  C_13
DOCKED: REMARK    6  A    between atoms: N_12  and  C_16
DOCKED: REMARK    7  A    between atoms: C_13  and  C_14
DOCKED: REMARK    8  A    between atoms: C_14  and  O_15
DOCKED: REMARK    9  A    between atoms: C_16  and  C_17
DOCKED: REMARK   10  A    between atoms: C_17  and  C_18
DOCKED: REMARK                            x       y       z     vdW  Elec       q    Type
DOCKED: REMARK                         _______ _______ _______ _____ _____    ______ ____
DOCKED: USER                              x       y       z     vdW  Elec       q    Type
DOCKED: USER                           _______ _______ _______ _____ _____    ______ ____
DOCKED: ROOT
DOCKED: ATOM      1  N   UNL     1      28.957 -16.058  -0.347 -0.22 -0.00    +0.000 N 
DOCKED: ATOM      2  H   UNL     1      28.835 -16.566   0.529 -0.52 -0.00    +0.000 HD
DOCKED: ENDROOT
DOCKED: BRANCH   1   3
DOCKED: ATOM      3  C   UNL     1      27.666 -15.344  -0.521 -0.30 -0.00    +0.000 C 
DOCKED: BRANCH   3   7
DOCKED: ATOM      4  C   UNL     1      24.189 -17.901  -1.008 -0.69 -0.00    +0.000 A 
DOCKED: ATOM      5  C   UNL     1      25.138 -18.166  -0.010 -0.58 -0.00    +0.000 A 
DOCKED: ATOM      6  C   UNL     1      26.255 -17.342   0.149 -0.28 -0.00    +0.000 A 
DOCKED: ATOM      7  C   UNL     1      26.463 -16.249  -0.708 -0.42 -0.00    +0.000 A 
DOCKED: ATOM      8  C   UNL     1      25.508 -15.973  -1.699 -0.48 -0.00    +0.000 A 
DOCKED: ATOM      9  C   UNL     1      24.389 -16.796  -1.859 -0.48 -0.00    +0.000 A 
DOCKED: BRANCH   4  11
DOCKED: ATOM     10  C   UNL     1      21.897 -18.694  -0.431 -0.84 -0.00    +0.000 C 
DOCKED: ATOM     11  C   UNL     1      23.026 -18.813  -1.144 -0.80 -0.00    +0.000 C 
DOCKED: BRANCH  10  13
DOCKED: ATOM     12  O   UNL     1      20.214 -19.789  -1.710 -2.32 -0.00    +0.000 OA
DOCKED: ATOM     13  C   UNL     1      20.766 -19.629  -0.587 -0.85 -0.00    +0.000 C 
DOCKED: ATOM     14  N   UNL     1      20.288 -20.360   0.544 -0.69 -0.00    +0.000 N 
DOCKED: ATOM     15  O   UNL     1      19.251 -21.221   0.417 -0.82 -0.00    +0.000 OA
DOCKED: ATOM     16  H   UNL     1      20.717 -20.237   1.422 -0.49 -0.00    +0.000 HD
DOCKED: ENDBRANCH  10  13
DOCKED: ENDBRANCH   4  11
DOCKED: ENDBRANCH   3   7
DOCKED: ENDBRANCH   1   3
DOCKED: BRANCH   1  17
DOCKED: ATOM     17  C   UNL     1      30.127 -15.183  -0.103 -0.13 -0.00    +0.000 C 
DOCKED: BRANCH  17  18
DOCKED: ATOM     18  C   UNL     1      31.134 -15.837   0.854 -0.13 -0.00    +0.000 C 
DOCKED: BRANCH  18  19
DOCKED: ATOM     19  O   UNL     1      30.773 -15.610   2.189 -0.11 -0.00    +0.000 OA
DOCKED: ATOM     20  H   UNL     1      29.819 -15.443   2.242 -1.46 -0.00    +0.000 HD
DOCKED: ENDBRANCH  18  19
DOCKED: ENDBRANCH  17  18
DOCKED: ENDBRANCH   1  17
DOCKED: BRANCH   1  21
DOCKED: ATOM     21  C   UNL     1      29.211 -17.084  -1.386 -0.28 -0.00    +0.000 C 
DOCKED: BRANCH  21  22
DOCKED: ATOM     22  C   UNL     1      28.429 -16.758  -2.663 -0.21 -0.00    +0.000 C 
DOCKED: BRANCH  22  23
DOCKED: ATOM     23  C   UNL     1      29.350 -16.657  -3.844 -0.21 -0.00    +0.000 A 
DOCKED: ATOM     24  C   UNL     1      30.375 -17.542  -4.167 -0.22 -0.00    +0.000 A 
DOCKED: ATOM     25  N   UNL     1      30.913 -17.225  -5.367 -0.22 -0.00    +0.000 N 
DOCKED: ATOM     26  C   UNL     1      30.228 -16.158  -5.811 -0.27 -0.00    +0.000 A 
DOCKED: ATOM     27  C   UNL     1      29.263 -15.783  -4.911 -0.28 -0.00    +0.000 A 
DOCKED: ATOM     28  C   UNL     1      28.396 -14.718  -5.165 -0.31 -0.00    +0.000 A 
DOCKED: ATOM     29  C   UNL     1      28.544 -14.029  -6.382 -0.31 -0.00    +0.000 A 
DOCKED: ATOM     30  C   UNL     1      29.538 -14.415  -7.308 -0.25 -0.00    +0.000 A 
DOCKED: ATOM     31  C   UNL     1      30.395 -15.495  -7.025 -0.28 -0.00    +0.000 A 
DOCKED: ATOM     32  H   UNL     1      31.656 -17.684  -5.821 +0.00 -0.00    +0.000 HD
DOCKED: ENDBRANCH  22  23
DOCKED: ENDBRANCH  21  22
DOCKED: ENDBRANCH   1  21
DOCKED: TORSDOF 10
DOCKED: TER
DOCKED: ENDMDL
________________________________________________________________________________


	BEGINNING GENETIC ALGORITHM DOCKING 74 of 100
Run: 74 Seed: 897252680 609028077 [ Run 74 of 100 GA/GALS ]
Beginning LAMARCKIAN GENETIC ALGORITHM (LGA), with a maximum of 2500000 energy evaluations.

Final-Value: -18.272


	FINAL GENETIC ALGORITHM DOCKED STATE
	_______________________________________________


Detailed state:  trans 27.812 -15.255 0.241 quatxyzw -0.496539 0.466549 0.728947 -0.066469 center 0.285 0.077 -0.044 ntor 10 12.8706 -60.3941 58.8298 -134.2113 -93.5833 17.5941 168.8486 153.4594 161.5785 -29.9042
State:	 27.812 -15.255   0.241  -0.498  0.468  0.731 -172.378     12.87  -60.39   58.83 -134.21  -93.58   17.59  168.85  153.46  161.58  -29.90

DOCKED: MODEL       74
DOCKED: USER    Run = 74
DOCKED: USER    DPF = ligand_dock.biased.dpf
DOCKED: USER  
DOCKED: USER    Estimated Free Energy of Binding    =  -13.09 kcal/mol  [=(1)+(2)+(3)-(4)]
DOCKED: USER    Estimated Inhibition Constant, Ki   =  255.75 pM (picomolar)  [Temperature = 298.15 K]
DOCKED: USER    
DOCKED: USER    (1) Final Intermolecular Energy     =  -16.07 kcal/mol
DOCKED: USER        vdW + Hbond + desolv Energy     =  -16.07 kcal/mol
DOCKED: USER        Electrostatic Energy            =   +0.00 kcal/mol
DOCKED: USER    (2) Final Total Internal Energy     =   -2.20 kcal/mol
DOCKED: USER    (3) Torsional Free Energy           =   +2.98 kcal/mol
DOCKED: USER    (4) Unbound System's Energy  [=(2)] =   -2.20 kcal/mol
DOCKED: USER    
DOCKED: USER    
DOCKED: USER    NEWDPF move ligand.pdbqt
DOCKED: USER    NEWDPF about 0.285000 0.077000 -0.044000
DOCKED: USER    NEWDPF tran0 27.811996 -15.255392 0.241271
DOCKED: USER    NEWDPF quaternion0 -0.496539 0.466549 0.728947 -0.066469
DOCKED: USER    NEWDPF axisangle0 -0.497639 0.467583 0.730562 -172.377577
DOCKED: USER    NEWDPF quat0 -0.497639 0.467583 0.730562 -172.377577
DOCKED: USER    NEWDPF dihe0 12.87 -60.39 58.83 -134.21 -93.58 17.59 168.85 153.46 161.58 -29.90 
DOCKED: USER  keepresnum = 1 
DOCKED: USER  
DOCKED: REMARK  Name = 
DOCKED: REMARK  10 active torsions:
DOCKED: REMARK  status: ('A' for Active; 'I' for Inactive)
DOCKED: REMARK    1  A    between atoms: C_2  and  C_5
DOCKED: REMARK    2  A    between atoms: C_6  and  C_7
DOCKED: REMARK    3  A    between atoms: C_10  and  C_11
DOCKED: REMARK    4  A    between atoms: C_11  and  N_12
DOCKED: REMARK    5  A    between atoms: N_12  and  C_13
DOCKED: REMARK    6  A    between atoms: N_12  and  C_16
DOCKED: REMARK    7  A    between atoms: C_13  and  C_14
DOCKED: REMARK    8  A    between atoms: C_14  and  O_15
DOCKED: REMARK    9  A    between atoms: C_16  and  C_17
DOCKED: REMARK   10  A    between atoms: C_17  and  C_18
DOCKED: REMARK                            x       y       z     vdW  Elec       q    Type
DOCKED: REMARK                         _______ _______ _______ _____ _____    ______ ____
DOCKED: USER                              x       y       z     vdW  Elec       q    Type
DOCKED: USER                           _______ _______ _______ _____ _____    ______ ____
DOCKED: ROOT
DOCKED: ATOM      1  N   UNL     1      28.664 -14.658   1.080 -0.21 -0.00    +0.000 N 
DOCKED: ATOM      2  H   UNL     1      29.456 -14.823   1.700 -0.88 -0.00    +0.000 HD
DOCKED: ENDROOT
DOCKED: BRANCH   1   3
DOCKED: ATOM      3  C   UNL     1      28.705 -15.813   0.145 -0.14 -0.00    +0.000 C 
DOCKED: BRANCH   3   7
DOCKED: ATOM      4  C   UNL     1      24.782 -17.224  -1.070 -0.61 -0.00    +0.000 A 
DOCKED: ATOM      5  C   UNL     1      25.551 -17.952  -0.151 -0.58 -0.00    +0.000 A 
DOCKED: ATOM      6  C   UNL     1      26.812 -17.497   0.243 -0.31 -0.00    +0.000 A 
DOCKED: ATOM      7  C   UNL     1      27.345 -16.316  -0.299 -0.35 -0.00    +0.000 A 
DOCKED: ATOM      8  C   UNL     1      26.572 -15.578  -1.209 -0.35 -0.00    +0.000 A 
DOCKED: ATOM      9  C   UNL     1      25.310 -16.031  -1.603 -0.48 -0.00    +0.000 A 
DOCKED: BRANCH   4  11
DOCKED: ATOM     10  C   UNL     1      22.417 -17.876  -0.623 -0.82 -0.00    +0.000 C 
DOCKED: ATOM     11  C   UNL     1      23.454 -17.756  -1.465 -0.68 -0.00    +0.000 C 
DOCKED: BRANCH  10  13
DOCKED: ATOM     12  O   UNL     1      20.039 -17.859  -0.708 -2.00 +0.00    +0.000 OA
DOCKED: ATOM     13  C   UNL     1      21.114 -18.421  -1.051 -0.74 -0.00    +0.000 C 
DOCKED: ATOM     14  N   UNL     1      21.069 -19.597  -1.862 -0.62 -0.00    +0.000 N 
DOCKED: ATOM     15  O   UNL     1      19.881 -20.109  -2.262 -2.14 -0.00    +0.000 OA
DOCKED: ATOM     16  H   UNL     1      21.907 -20.038  -2.130 -0.54 -0.00    +0.000 HD
DOCKED: ENDBRANCH  10  13
DOCKED: ENDBRANCH   4  11
DOCKED: ENDBRANCH   3   7
DOCKED: ENDBRANCH   1   3
DOCKED: BRANCH   1  17
DOCKED: ATOM     17  C   UNL     1      27.491 -14.628   1.983 +0.01 -0.00    +0.000 C 
DOCKED: BRANCH  17  18
DOCKED: ATOM     18  C   UNL     1      27.910 -14.452   3.450 -0.44 -0.00    +0.000 C 
DOCKED: BRANCH  18  19
DOCKED: ATOM     19  O   UNL     1      29.300 -14.568   3.589 -0.38 -0.00    +0.000 OA
DOCKED: ATOM     20  H   UNL     1      29.607 -15.356   3.116 -1.61 -0.00    +0.000 HD
DOCKED: ENDBRANCH  18  19
DOCKED: ENDBRANCH  17  18
DOCKED: ENDBRANCH   1  17
DOCKED: BRANCH   1  21
DOCKED: ATOM     21  C   UNL     1      28.918 -13.355   0.423 -0.12 -0.00    +0.000 C 
DOCKED: BRANCH  21  22
DOCKED: ATOM     22  C   UNL     1      27.796 -13.026  -0.567 -0.15 -0.00    +0.000 C 
DOCKED: BRANCH  22  23
DOCKED: ATOM     23  C   UNL     1      26.926 -11.921  -0.043 -0.15 -0.00    +0.000 A 
DOCKED: ATOM     24  C   UNL     1      26.140 -11.966   1.105 -0.32 +0.00    +0.000 A 
DOCKED: ATOM     25  N   UNL     1      25.595 -10.753   1.353 -0.43 +0.00    +0.000 N 
DOCKED: ATOM     26  C   UNL     1      26.041  -9.940   0.381 -0.29 +0.00    +0.000 A 
DOCKED: ATOM     27  C   UNL     1      26.859 -10.614  -0.489 -0.11 +0.00    +0.000 A 
DOCKED: ATOM     28  C   UNL     1      27.475  -9.972  -1.565 -0.09 -0.00    +0.000 A 
DOCKED: ATOM     29  C   UNL     1      27.226  -8.598  -1.738 -0.09 -0.00    +0.000 A 
DOCKED: ATOM     30  C   UNL     1      26.383  -7.905  -0.843 -0.16 +0.00    +0.000 A 
DOCKED: ATOM     31  C   UNL     1      25.780  -8.578   0.235 -0.23 +0.00    +0.000 A 
DOCKED: ATOM     32  H   UNL     1      24.993 -10.517   2.095 -0.06 +0.00    +0.000 HD
DOCKED: ENDBRANCH  22  23
DOCKED: ENDBRANCH  21  22
DOCKED: ENDBRANCH   1  21
DOCKED: TORSDOF 10
DOCKED: TER
DOCKED: ENDMDL
________________________________________________________________________________


	BEGINNING GENETIC ALGORITHM DOCKING 75 of 100
Run: 75 Seed: 1357975945 1268707430 [ Run 75 of 100 GA/GALS ]
Beginning LAMARCKIAN GENETIC ALGORITHM (LGA), with a maximum of 2500000 energy evaluations.

Final-Value: -16.532


	FINAL GENETIC ALGORITHM DOCKED STATE
	_______________________________________________


Detailed state:  trans 29.543 -14.415 -1.322 quatxyzw -0.021345 -0.682212 -0.304594 0.664344 center 0.285 0.077 -0.044 ntor 10 180.0000 -64.6684 31.4927 178.2510 179.5060 -72.1910 -53.8536 18.9030 71.8007 179.7309
State:	 29.543 -14.415  -1.322  -0.029 -0.913 -0.408 96.736    180.00  -64.67   31.49  178.25  179.51  -72.19  -53.85   18.90   71.80  179.73

DOCKED: MODEL       75
DOCKED: USER    Run = 75
DOCKED: USER    DPF = ligand_dock.biased.dpf
DOCKED: USER  
DOCKED: USER    Estimated Free Energy of Binding    =  -11.10 kcal/mol  [=(1)+(2)+(3)-(4)]
DOCKED: USER    Estimated Inhibition Constant, Ki   =    7.34 nM (nanomolar)  [Temperature = 298.15 K]
DOCKED: USER    
DOCKED: USER    (1) Final Intermolecular Energy     =  -14.08 kcal/mol
DOCKED: USER        vdW + Hbond + desolv Energy     =  -14.08 kcal/mol
DOCKED: USER        Electrostatic Energy            =   +0.00 kcal/mol
DOCKED: USER    (2) Final Total Internal Energy     =   -2.45 kcal/mol
DOCKED: USER    (3) Torsional Free Energy           =   +2.98 kcal/mol
DOCKED: USER    (4) Unbound System's Energy  [=(2)] =   -2.45 kcal/mol
DOCKED: USER    
DOCKED: USER    
DOCKED: USER    NEWDPF move ligand.pdbqt
DOCKED: USER    NEWDPF about 0.285000 0.077000 -0.044000
DOCKED: USER    NEWDPF tran0 29.543001 -14.414714 -1.322378
DOCKED: USER    NEWDPF quaternion0 -0.021345 -0.682212 -0.304594 0.664344
DOCKED: USER    NEWDPF axisangle0 -0.028558 -0.912748 -0.407523 96.735936
DOCKED: USER    NEWDPF quat0 -0.028558 -0.912748 -0.407523 96.735936
DOCKED: USER    NEWDPF dihe0 180.00 -64.67 31.49 178.25 179.51 -72.19 -53.85 18.90 71.80 179.73 
DOCKED: USER  keepresnum = 1 
DOCKED: USER  
DOCKED: REMARK  Name = 
DOCKED: REMARK  10 active torsions:
DOCKED: REMARK  status: ('A' for Active; 'I' for Inactive)
DOCKED: REMARK    1  A    between atoms: C_2  and  C_5
DOCKED: REMARK    2  A    between atoms: C_6  and  C_7
DOCKED: REMARK    3  A    between atoms: C_10  and  C_11
DOCKED: REMARK    4  A    between atoms: C_11  and  N_12
DOCKED: REMARK    5  A    between atoms: N_12  and  C_13
DOCKED: REMARK    6  A    between atoms: N_12  and  C_16
DOCKED: REMARK    7  A    between atoms: C_13  and  C_14
DOCKED: REMARK    8  A    between atoms: C_14  and  O_15
DOCKED: REMARK    9  A    between atoms: C_16  and  C_17
DOCKED: REMARK   10  A    between atoms: C_17  and  C_18
DOCKED: REMARK                            x       y       z     vdW  Elec       q    Type
DOCKED: REMARK                         _______ _______ _______ _____ _____    ______ ____
DOCKED: USER                              x       y       z     vdW  Elec       q    Type
DOCKED: USER                           _______ _______ _______ _____ _____    ______ ____
DOCKED: ROOT
DOCKED: ATOM      1  N   UNL     1      29.752 -15.241  -0.294 -0.14 -0.00    +0.000 N 
DOCKED: ATOM      2  H   UNL     1      29.282 -15.809   0.412 -0.24 -0.00    +0.000 HD
DOCKED: ENDROOT
DOCKED: BRANCH   1   3
DOCKED: ATOM      3  C   UNL     1      28.724 -15.082  -1.355 -0.17 -0.00    +0.000 C 
DOCKED: BRANCH   3   7
DOCKED: ATOM      4  C   UNL     1      25.092 -17.386  -0.748 -0.60 -0.00    +0.000 A 
DOCKED: ATOM      5  C   UNL     1      25.129 -16.341  -1.682 -0.52 -0.00    +0.000 A 
DOCKED: ATOM      6  C   UNL     1      26.297 -15.601  -1.880 -0.39 -0.00    +0.000 A 
DOCKED: ATOM      7  C   UNL     1      27.450 -15.873  -1.124 -0.31 -0.00    +0.000 A 
DOCKED: ATOM      8  C   UNL     1      27.420 -16.927  -0.198 -0.36 -0.00    +0.000 A 
DOCKED: ATOM      9  C   UNL     1      26.252 -17.668   0.000 -0.51 -0.00    +0.000 A 
DOCKED: BRANCH   4  11
DOCKED: ATOM     10  C   UNL     1      22.618 -17.652  -0.906 -0.73 -0.00    +0.000 C 
DOCKED: ATOM     11  C   UNL     1      23.823 -18.133  -0.566 -0.79 -0.00    +0.000 C 
DOCKED: BRANCH  10  13
DOCKED: ATOM     12  O   UNL     1      20.254 -17.920  -0.979 -2.17 -0.00    +0.000 OA
DOCKED: ATOM     13  C   UNL     1      21.377 -18.423  -0.700 -0.84 -0.00    +0.000 C 
DOCKED: ATOM     14  N   UNL     1      21.444 -19.751  -0.177 -0.64 -0.00    +0.000 N 
DOCKED: ATOM     15  O   UNL     1      20.314 -20.470   0.018 -1.12 -0.00    +0.000 OA
DOCKED: ATOM     16  H   UNL     1      22.319 -20.146   0.042 -0.54 -0.00    +0.000 HD
DOCKED: ENDBRANCH  10  13
DOCKED: ENDBRANCH   4  11
DOCKED: ENDBRANCH   3   7
DOCKED: ENDBRANCH   1   3
DOCKED: BRANCH   1  17
DOCKED: ATOM     17  C   UNL     1      30.112 -13.994   0.418 -0.10 -0.00    +0.000 C 
DOCKED: BRANCH  17  18
DOCKED: ATOM     18  C   UNL     1      29.426 -13.905   1.788 -0.18 -0.00    +0.000 C 
DOCKED: BRANCH  18  19
DOCKED: ATOM     19  O   UNL     1      28.407 -14.861   1.899 -0.25 -0.00    +0.000 OA
DOCKED: ATOM     20  H   UNL     1      28.605 -15.460   2.636 -1.68 -0.00    +0.000 HD
DOCKED: ENDBRANCH  18  19
DOCKED: ENDBRANCH  17  18
DOCKED: ENDBRANCH   1  17
DOCKED: BRANCH   1  21
DOCKED: ATOM     21  C   UNL     1      30.935 -16.020  -0.728 -0.12 -0.00    +0.000 C 
DOCKED: BRANCH  21  22
DOCKED: ATOM     22  C   UNL     1      30.560 -17.491  -0.938 -0.21 -0.00    +0.000 C 
DOCKED: BRANCH  22  23
DOCKED: ATOM     23  C   UNL     1      31.269 -18.372   0.049 -0.10 -0.00    +0.000 A 
DOCKED: ATOM     24  C   UNL     1      31.601 -19.712  -0.132 -0.15 -0.00    +0.000 A 
DOCKED: ATOM     25  N   UNL     1      32.352 -20.157   0.900 -0.14 -0.00    +0.000 N 
DOCKED: ATOM     26  C   UNL     1      32.510 -19.107   1.724 -0.16 -0.00    +0.000 A 
DOCKED: ATOM     27  C   UNL     1      31.867 -17.998   1.238 -0.12 -0.00    +0.000 A 
DOCKED: ATOM     28  C   UNL     1      31.915 -16.771   1.902 -0.16 -0.00    +0.000 A 
DOCKED: ATOM     29  C   UNL     1      32.647 -16.703   3.102 -0.21 -0.00    +0.000 A 
DOCKED: ATOM     30  C   UNL     1      33.308 -17.846   3.602 -0.23 -0.00    +0.000 A 
DOCKED: ATOM     31  C   UNL     1      33.244 -19.068   2.908 -0.20 -0.00    +0.000 A 
DOCKED: ATOM     32  H   UNL     1      32.709 -21.066   1.022 +0.00 -0.00    +0.000 HD
DOCKED: ENDBRANCH  22  23
DOCKED: ENDBRANCH  21  22
DOCKED: ENDBRANCH   1  21
DOCKED: TORSDOF 10
DOCKED: TER
DOCKED: ENDMDL
________________________________________________________________________________


	BEGINNING GENETIC ALGORITHM DOCKING 76 of 100
Run: 76 Seed: 1511402691 869917234 [ Run 76 of 100 GA/GALS ]
Beginning LAMARCKIAN GENETIC ALGORITHM (LGA), with a maximum of 2500000 energy evaluations.

Final-Value: -15.563


	FINAL GENETIC ALGORITHM DOCKED STATE
	_______________________________________________


Detailed state:  trans 27.948 -15.130 -2.448 quatxyzw 0.606780 -0.534513 -0.108106 0.578296 center 0.285 0.077 -0.044 ntor 10 -125.7894 56.3704 -78.3165 -140.6799 -167.0454 175.1433 -167.5853 -79.2184 -15.7115 -154.5754
State:	 27.948 -15.130  -2.448   0.744 -0.655 -0.133 109.338   -125.79   56.37  -78.32 -140.68 -167.05  175.14 -167.59  -79.22  -15.71 -154.58

DOCKED: MODEL       76
DOCKED: USER    Run = 76
DOCKED: USER    DPF = ligand_dock.biased.dpf
DOCKED: USER  
DOCKED: USER    Estimated Free Energy of Binding    =  -11.06 kcal/mol  [=(1)+(2)+(3)-(4)]
DOCKED: USER    Estimated Inhibition Constant, Ki   =    7.82 nM (nanomolar)  [Temperature = 298.15 K]
DOCKED: USER    
DOCKED: USER    (1) Final Intermolecular Energy     =  -14.04 kcal/mol
DOCKED: USER        vdW + Hbond + desolv Energy     =  -14.04 kcal/mol
DOCKED: USER        Electrostatic Energy            =   +0.00 kcal/mol
DOCKED: USER    (2) Final Total Internal Energy     =   -1.52 kcal/mol
DOCKED: USER    (3) Torsional Free Energy           =   +2.98 kcal/mol
DOCKED: USER    (4) Unbound System's Energy  [=(2)] =   -1.52 kcal/mol
DOCKED: USER    
DOCKED: USER    
DOCKED: USER    NEWDPF move ligand.pdbqt
DOCKED: USER    NEWDPF about 0.285000 0.077000 -0.044000
DOCKED: USER    NEWDPF tran0 27.947583 -15.130253 -2.447989
DOCKED: USER    NEWDPF quaternion0 0.606780 -0.534513 -0.108106 0.578296
DOCKED: USER    NEWDPF axisangle0 0.743761 -0.655180 -0.132511 109.338403
DOCKED: USER    NEWDPF quat0 0.743761 -0.655180 -0.132511 109.338403
DOCKED: USER    NEWDPF dihe0 -125.79 56.37 -78.32 -140.68 -167.05 175.14 -167.59 -79.22 -15.71 -154.58 
DOCKED: USER  keepresnum = 1 
DOCKED: USER  
DOCKED: REMARK  Name = 
DOCKED: REMARK  10 active torsions:
DOCKED: REMARK  status: ('A' for Active; 'I' for Inactive)
DOCKED: REMARK    1  A    between atoms: C_2  and  C_5
DOCKED: REMARK    2  A    between atoms: C_6  and  C_7
DOCKED: REMARK    3  A    between atoms: C_10  and  C_11
DOCKED: REMARK    4  A    between atoms: C_11  and  N_12
DOCKED: REMARK    5  A    between atoms: N_12  and  C_13
DOCKED: REMARK    6  A    between atoms: N_12  and  C_16
DOCKED: REMARK    7  A    between atoms: C_13  and  C_14
DOCKED: REMARK    8  A    between atoms: C_14  and  O_15
DOCKED: REMARK    9  A    between atoms: C_16  and  C_17
DOCKED: REMARK   10  A    between atoms: C_17  and  C_18
DOCKED: REMARK                            x       y       z     vdW  Elec       q    Type
DOCKED: REMARK                         _______ _______ _______ _____ _____    ______ ____
DOCKED: USER                              x       y       z     vdW  Elec       q    Type
DOCKED: USER                           _______ _______ _______ _____ _____    ______ ____
DOCKED: ROOT
DOCKED: ATOM      1  N   UNL     1      27.619 -14.567  -1.282 -0.19 -0.00    +0.000 N 
DOCKED: ATOM      2  H   UNL     1      26.971 -14.622  -0.497 -0.00 -0.00    +0.000 HD
DOCKED: ENDROOT
DOCKED: BRANCH   1   3
DOCKED: ATOM      3  C   UNL     1      27.580 -15.933  -1.866 -0.33 -0.00    +0.000 C 
DOCKED: BRANCH   3   7
DOCKED: ATOM      4  C   UNL     1      24.071 -18.290  -0.870 -0.71 -0.00    +0.000 A 
DOCKED: ATOM      5  C   UNL     1      24.000 -17.272  -1.833 -0.44 -0.00    +0.000 A 
DOCKED: ATOM      6  C   UNL     1      25.129 -16.515  -2.155 -0.53 -0.00    +0.000 A 
DOCKED: ATOM      7  C   UNL     1      26.350 -16.742  -1.499 -0.45 -0.00    +0.000 A 
DOCKED: ATOM      8  C   UNL     1      26.428 -17.769  -0.546 -0.53 -0.00    +0.000 A 
DOCKED: ATOM      9  C   UNL     1      25.299 -18.527  -0.222 -0.52 -0.00    +0.000 A 
DOCKED: BRANCH   4  11
DOCKED: ATOM     10  C   UNL     1      21.624 -18.742  -1.022 -0.82 -0.00    +0.000 C 
DOCKED: ATOM     11  C   UNL     1      22.840 -19.057  -0.554 -0.78 -0.00    +0.000 C 
DOCKED: BRANCH  10  13
DOCKED: ATOM     12  O   UNL     1      19.522 -19.735  -1.535 -2.11 -0.00    +0.000 OA
DOCKED: ATOM     13  C   UNL     1      20.421 -19.524  -0.676 -0.88 -0.00    +0.000 C 
DOCKED: ATOM     14  N   UNL     1      20.271 -20.047   0.646 -0.70 -0.00    +0.000 N 
DOCKED: ATOM     15  O   UNL     1      19.173 -20.766   0.978 -0.78 -0.00    +0.000 OA
DOCKED: ATOM     16  H   UNL     1      20.971 -19.884   1.319 -0.50 -0.00    +0.000 HD
DOCKED: ENDBRANCH  10  13
DOCKED: ENDBRANCH   4  11
DOCKED: ENDBRANCH   3   7
DOCKED: ENDBRANCH   1   3
DOCKED: BRANCH   1  17
DOCKED: ATOM     17  C   UNL     1      27.059 -13.502  -2.146 -0.22 -0.00    +0.000 C 
DOCKED: BRANCH  17  18
DOCKED: ATOM     18  C   UNL     1      26.745 -14.023  -3.555 -0.35 -0.00    +0.000 C 
DOCKED: BRANCH  18  19
DOCKED: ATOM     19  O   UNL     1      25.361 -14.135  -3.748 -0.70 -0.00    +0.000 OA
DOCKED: ATOM     20  H   UNL     1      25.182 -14.366  -4.673 -0.09 -0.00    +0.000 HD
DOCKED: ENDBRANCH  18  19
DOCKED: ENDBRANCH  17  18
DOCKED: ENDBRANCH   1  17
DOCKED: BRANCH   1  21
DOCKED: ATOM     21  C   UNL     1      28.936 -14.207  -0.704 -0.12 -0.00    +0.000 C 
DOCKED: BRANCH  21  22
DOCKED: ATOM     22  C   UNL     1      28.819 -12.937   0.145 -0.09 -0.00    +0.000 C 
DOCKED: BRANCH  22  23
DOCKED: ATOM     23  C   UNL     1      29.471 -13.124   1.483 -0.09 -0.00    +0.000 A 
DOCKED: ATOM     24  C   UNL     1      30.779 -12.781   1.817 -0.04 -0.00    +0.000 A 
DOCKED: ATOM     25  N   UNL     1      30.992 -12.961   3.141 -0.09 -0.00    +0.000 N 
DOCKED: ATOM     26  C   UNL     1      29.828 -13.401   3.647 -0.19 -0.00    +0.000 A 
DOCKED: ATOM     27  C   UNL     1      28.874 -13.511   2.668 -0.21 -0.00    +0.000 A 
DOCKED: ATOM     28  C   UNL     1      27.569 -13.916   2.956 -0.33 -0.00    +0.000 A 
DOCKED: ATOM     29  C   UNL     1      27.256 -14.218   4.293 -0.48 -0.00    +0.000 A 
DOCKED: ATOM     30  C   UNL     1      28.239 -14.106   5.301 -0.46 -0.00    +0.000 A 
DOCKED: ATOM     31  C   UNL     1      29.545 -13.691   4.981 -0.33 -0.00    +0.000 A 
DOCKED: ATOM     32  H   UNL     1      31.830 -12.803   3.631 +0.00 -0.00    +0.000 HD
DOCKED: ENDBRANCH  22  23
DOCKED: ENDBRANCH  21  22
DOCKED: ENDBRANCH   1  21
DOCKED: TORSDOF 10
DOCKED: TER
DOCKED: ENDMDL
________________________________________________________________________________


	BEGINNING GENETIC ALGORITHM DOCKING 77 of 100
Run: 77 Seed: 956486818 231378035 [ Run 77 of 100 GA/GALS ]
Beginning LAMARCKIAN GENETIC ALGORITHM (LGA), with a maximum of 2500000 energy evaluations.

Final-Value: -17.293


	FINAL GENETIC ALGORITHM DOCKED STATE
	_______________________________________________


Detailed state:  trans 28.482 -15.164 -1.373 quatxyzw -0.252231 -0.546788 -0.620493 0.502385 center 0.285 0.077 -0.044 ntor 10 15.9989 130.5284 -81.7021 -135.4582 38.0825 94.3092 -169.7440 -11.6015 -99.9875 -149.3819
State:	 28.482 -15.164  -1.373  -0.292 -0.632 -0.718 119.684     16.00  130.53  -81.70 -135.46   38.08   94.31 -169.74  -11.60  -99.99 -149.38

DOCKED: MODEL       77
DOCKED: USER    Run = 77
DOCKED: USER    DPF = ligand_dock.biased.dpf
DOCKED: USER  
DOCKED: USER    Estimated Free Energy of Binding    =  -12.92 kcal/mol  [=(1)+(2)+(3)-(4)]
DOCKED: USER    Estimated Inhibition Constant, Ki   =  340.90 pM (picomolar)  [Temperature = 298.15 K]
DOCKED: USER    
DOCKED: USER    (1) Final Intermolecular Energy     =  -15.90 kcal/mol
DOCKED: USER        vdW + Hbond + desolv Energy     =  -15.90 kcal/mol
DOCKED: USER        Electrostatic Energy            =   +0.00 kcal/mol
DOCKED: USER    (2) Final Total Internal Energy     =   -1.39 kcal/mol
DOCKED: USER    (3) Torsional Free Energy           =   +2.98 kcal/mol
DOCKED: USER    (4) Unbound System's Energy  [=(2)] =   -1.39 kcal/mol
DOCKED: USER    
DOCKED: USER    
DOCKED: USER    NEWDPF move ligand.pdbqt
DOCKED: USER    NEWDPF about 0.285000 0.077000 -0.044000
DOCKED: USER    NEWDPF tran0 28.481981 -15.164423 -1.373150
DOCKED: USER    NEWDPF quaternion0 -0.252231 -0.546788 -0.620493 0.502385
DOCKED: USER    NEWDPF axisangle0 -0.291717 -0.632385 -0.717628 119.684171
DOCKED: USER    NEWDPF quat0 -0.291717 -0.632385 -0.717628 119.684171
DOCKED: USER    NEWDPF dihe0 16.00 130.53 -81.70 -135.46 38.08 94.31 -169.74 -11.60 -99.99 -149.38 
DOCKED: USER  keepresnum = 1 
DOCKED: USER  
DOCKED: REMARK  Name = 
DOCKED: REMARK  10 active torsions:
DOCKED: REMARK  status: ('A' for Active; 'I' for Inactive)
DOCKED: REMARK    1  A    between atoms: C_2  and  C_5
DOCKED: REMARK    2  A    between atoms: C_6  and  C_7
DOCKED: REMARK    3  A    between atoms: C_10  and  C_11
DOCKED: REMARK    4  A    between atoms: C_11  and  N_12
DOCKED: REMARK    5  A    between atoms: N_12  and  C_13
DOCKED: REMARK    6  A    between atoms: N_12  and  C_16
DOCKED: REMARK    7  A    between atoms: C_13  and  C_14
DOCKED: REMARK    8  A    between atoms: C_14  and  O_15
DOCKED: REMARK    9  A    between atoms: C_16  and  C_17
DOCKED: REMARK   10  A    between atoms: C_17  and  C_18
DOCKED: REMARK                            x       y       z     vdW  Elec       q    Type
DOCKED: REMARK                         _______ _______ _______ _____ _____    ______ ____
DOCKED: USER                              x       y       z     vdW  Elec       q    Type
DOCKED: USER                           _______ _______ _______ _____ _____    ______ ____
DOCKED: ROOT
DOCKED: ATOM      1  N   UNL     1      29.013 -16.390  -1.355 -0.23 -0.00    +0.000 N 
DOCKED: ATOM      2  H   UNL     1      28.786 -17.383  -1.301 -0.04 -0.00    +0.000 HD
DOCKED: ENDROOT
DOCKED: BRANCH   1   3
DOCKED: ATOM      3  C   UNL     1      27.755 -15.770  -1.846 -0.30 -0.00    +0.000 C 
DOCKED: BRANCH   3   7
DOCKED: ATOM      4  C   UNL     1      24.155 -17.992  -0.862 -0.69 -0.00    +0.000 A 
DOCKED: ATOM      5  C   UNL     1      25.424 -18.534  -0.607 -0.53 -0.00    +0.000 A 
DOCKED: ATOM      6  C   UNL     1      26.582 -17.819  -0.921 -0.46 -0.00    +0.000 A 
DOCKED: ATOM      7  C   UNL     1      26.497 -16.554  -1.525 -0.43 -0.00    +0.000 A 
DOCKED: ATOM      8  C   UNL     1      25.229 -16.002  -1.769 -0.48 -0.00    +0.000 A 
DOCKED: ATOM      9  C   UNL     1      24.069 -16.717  -1.455 -0.49 -0.00    +0.000 A 
DOCKED: BRANCH   4  11
DOCKED: ATOM     10  C   UNL     1      21.730 -18.552  -1.008 -0.81 -0.00    +0.000 C 
DOCKED: ATOM     11  C   UNL     1      22.956 -18.797  -0.522 -0.81 -0.00    +0.000 C 
DOCKED: BRANCH  10  13
DOCKED: ATOM     12  O   UNL     1      19.727 -19.736  -1.511 -2.21 -0.00    +0.000 OA
DOCKED: ATOM     13  C   UNL     1      20.559 -19.370  -0.637 -0.90 -0.00    +0.000 C 
DOCKED: ATOM     14  N   UNL     1      20.364 -19.752   0.727 -0.69 -0.00    +0.000 N 
DOCKED: ATOM     15  O   UNL     1      19.294 -20.501   1.083 -0.77 -0.00    +0.000 OA
DOCKED: ATOM     16  H   UNL     1      21.012 -19.468   1.412 -0.40 -0.00    +0.000 HD
DOCKED: ENDBRANCH  10  13
DOCKED: ENDBRANCH   4  11
DOCKED: ENDBRANCH   3   7
DOCKED: ENDBRANCH   1   3
DOCKED: BRANCH   1  17
DOCKED: ATOM     17  C   UNL     1      29.393 -16.024   0.028 -0.15 -0.00    +0.000 C 
DOCKED: BRANCH  17  18
DOCKED: ATOM     18  C   UNL     1      28.553 -14.852   0.554 -0.23 -0.00    +0.000 C 
DOCKED: BRANCH  18  19
DOCKED: ATOM     19  O   UNL     1      28.955 -14.491   1.848 -0.26 -0.00    +0.000 OA
DOCKED: ATOM     20  H   UNL     1      29.075 -15.291   2.384 -1.92 -0.00    +0.000 HD
DOCKED: ENDBRANCH  18  19
DOCKED: ENDBRANCH  17  18
DOCKED: ENDBRANCH   1  17
DOCKED: BRANCH   1  21
DOCKED: ATOM     21  C   UNL     1      30.140 -16.278  -2.311 -0.16 -0.00    +0.000 C 
DOCKED: BRANCH  21  22
DOCKED: ATOM     22  C   UNL     1      30.314 -17.586  -3.090 -0.18 -0.00    +0.000 C 
DOCKED: BRANCH  22  23
DOCKED: ATOM     23  C   UNL     1      30.375 -17.327  -4.567 -0.24 -0.00    +0.000 A 
DOCKED: ATOM     24  C   UNL     1      30.550 -16.088  -5.179 -0.19 -0.00    +0.000 A 
DOCKED: ATOM     25  N   UNL     1      30.694 -16.238  -6.515 -0.27 -0.00    +0.000 N 
DOCKED: ATOM     26  C   UNL     1      30.626 -17.559  -6.751 -0.31 -0.00    +0.000 A 
DOCKED: ATOM     27  C   UNL     1      30.436 -18.258  -5.587 -0.32 -0.00    +0.000 A 
DOCKED: ATOM     28  C   UNL     1      30.368 -19.652  -5.570 -0.37 -0.00    +0.000 A 
DOCKED: ATOM     29  C   UNL     1      30.498 -20.330  -6.796 -0.41 -0.00    +0.000 A 
DOCKED: ATOM     30  C   UNL     1      30.692 -19.609  -7.995 -0.36 -0.00    +0.000 A 
DOCKED: ATOM     31  C   UNL     1      30.760 -18.204  -7.979 -0.30 -0.00    +0.000 A 
DOCKED: ATOM     32  H   UNL     1      30.821 -15.522  -7.179 -0.02 -0.00    +0.000 HD
DOCKED: ENDBRANCH  22  23
DOCKED: ENDBRANCH  21  22
DOCKED: ENDBRANCH   1  21
DOCKED: TORSDOF 10
DOCKED: TER
DOCKED: ENDMDL
________________________________________________________________________________


	BEGINNING GENETIC ALGORITHM DOCKING 78 of 100
Run: 78 Seed: 304565002 2111353735 [ Run 78 of 100 GA/GALS ]
Beginning LAMARCKIAN GENETIC ALGORITHM (LGA), with a maximum of 2500000 energy evaluations.

Final-Value: -17.810


	FINAL GENETIC ALGORITHM DOCKED STATE
	_______________________________________________


Detailed state:  trans 28.698 -14.851 -1.080 quatxyzw 0.129510 -0.621543 -0.270088 0.723853 center 0.285 0.077 -0.044 ntor 10 88.4811 -7.3893 38.2897 -101.9930 170.9676 -155.2445 -29.0632 144.5671 41.2853 -180.0000
State:	 28.698 -14.851  -1.080   0.188 -0.901 -0.391 87.253     88.48   -7.39   38.29 -101.99  170.97 -155.24  -29.06  144.57   41.29 -180.00

DOCKED: MODEL       78
DOCKED: USER    Run = 78
DOCKED: USER    DPF = ligand_dock.biased.dpf
DOCKED: USER  
DOCKED: USER    Estimated Free Energy of Binding    =  -12.40 kcal/mol  [=(1)+(2)+(3)-(4)]
DOCKED: USER    Estimated Inhibition Constant, Ki   =  810.85 pM (picomolar)  [Temperature = 298.15 K]
DOCKED: USER    
DOCKED: USER    (1) Final Intermolecular Energy     =  -15.39 kcal/mol
DOCKED: USER        vdW + Hbond + desolv Energy     =  -15.39 kcal/mol
DOCKED: USER        Electrostatic Energy            =   +0.00 kcal/mol
DOCKED: USER    (2) Final Total Internal Energy     =   -2.43 kcal/mol
DOCKED: USER    (3) Torsional Free Energy           =   +2.98 kcal/mol
DOCKED: USER    (4) Unbound System's Energy  [=(2)] =   -2.43 kcal/mol
DOCKED: USER    
DOCKED: USER    
DOCKED: USER    NEWDPF move ligand.pdbqt
DOCKED: USER    NEWDPF about 0.285000 0.077000 -0.044000
DOCKED: USER    NEWDPF tran0 28.697973 -14.850893 -1.080126
DOCKED: USER    NEWDPF quaternion0 0.129510 -0.621543 -0.270088 0.723853
DOCKED: USER    NEWDPF axisangle0 0.187709 -0.900847 -0.391458 87.252962
DOCKED: USER    NEWDPF quat0 0.187709 -0.900847 -0.391458 87.252962
DOCKED: USER    NEWDPF dihe0 88.48 -7.39 38.29 -101.99 170.97 -155.24 -29.06 144.57 41.29 -180.00 
DOCKED: USER  keepresnum = 1 
DOCKED: USER  
DOCKED: REMARK  Name = 
DOCKED: REMARK  10 active torsions:
DOCKED: REMARK  status: ('A' for Active; 'I' for Inactive)
DOCKED: REMARK    1  A    between atoms: C_2  and  C_5
DOCKED: REMARK    2  A    between atoms: C_6  and  C_7
DOCKED: REMARK    3  A    between atoms: C_10  and  C_11
DOCKED: REMARK    4  A    between atoms: C_11  and  N_12
DOCKED: REMARK    5  A    between atoms: N_12  and  C_13
DOCKED: REMARK    6  A    between atoms: N_12  and  C_16
DOCKED: REMARK    7  A    between atoms: C_13  and  C_14
DOCKED: REMARK    8  A    between atoms: C_14  and  O_15
DOCKED: REMARK    9  A    between atoms: C_16  and  C_17
DOCKED: REMARK   10  A    between atoms: C_17  and  C_18
DOCKED: REMARK                            x       y       z     vdW  Elec       q    Type
DOCKED: REMARK                         _______ _______ _______ _____ _____    ______ ____
DOCKED: USER                              x       y       z     vdW  Elec       q    Type
DOCKED: USER                           _______ _______ _______ _____ _____    ______ ____
DOCKED: ROOT
DOCKED: ATOM      1  N   UNL     1      28.706 -15.422   0.128 -0.22 -0.00    +0.000 N 
DOCKED: ATOM      2  H   UNL     1      28.123 -15.904   0.812 -0.43 -0.00    +0.000 HD
DOCKED: ENDROOT
DOCKED: BRANCH   1   3
DOCKED: ATOM      3  C   UNL     1      27.981 -15.625  -1.154 -0.28 -0.00    +0.000 C 
DOCKED: BRANCH   3   7
DOCKED: ATOM      4  C   UNL     1      24.517 -18.236  -0.936 -0.67 -0.00    +0.000 A 
DOCKED: ATOM      5  C   UNL     1      24.449 -17.012  -1.618 -0.57 -0.00    +0.000 A 
DOCKED: ATOM      6  C   UNL     1      25.564 -16.173  -1.690 -0.49 -0.00    +0.000 A 
DOCKED: ATOM      7  C   UNL     1      26.766 -16.527  -1.056 -0.42 -0.00    +0.000 A 
DOCKED: ATOM      8  C   UNL     1      26.842 -17.758  -0.385 -0.49 -0.00    +0.000 A 
DOCKED: ATOM      9  C   UNL     1      25.728 -18.599  -0.312 -0.53 -0.00    +0.000 A 
DOCKED: BRANCH   4  11
DOCKED: ATOM     10  C   UNL     1      22.052 -18.602  -0.894 -0.83 -0.00    +0.000 C 
DOCKED: ATOM     11  C   UNL     1      23.302 -19.086  -0.877 -0.78 -0.00    +0.000 C 
DOCKED: BRANCH  10  13
DOCKED: ATOM     12  O   UNL     1      20.191 -19.732  -1.857 -2.37 -0.00    +0.000 OA
DOCKED: ATOM     13  C   UNL     1      20.868 -19.480  -0.823 -0.86 -0.00    +0.000 C 
DOCKED: ATOM     14  N   UNL     1      20.481 -20.051   0.430 -0.69 -0.00    +0.000 N 
DOCKED: ATOM     15  O   UNL     1      19.397 -20.857   0.511 -0.91 -0.00    +0.000 OA
DOCKED: ATOM     16  H   UNL     1      21.007 -19.856   1.239 -0.51 -0.00    +0.000 HD
DOCKED: ENDBRANCH  10  13
DOCKED: ENDBRANCH   4  11
DOCKED: ENDBRANCH   3   7
DOCKED: ENDBRANCH   1   3
DOCKED: BRANCH   1  17
DOCKED: ATOM     17  C   UNL     1      28.751 -14.021   0.605 -0.17 -0.00    +0.000 C 
DOCKED: BRANCH  17  18
DOCKED: ATOM     18  C   UNL     1      27.848 -13.810   1.828 -0.29 -0.00    +0.000 C 
DOCKED: BRANCH  18  19
DOCKED: ATOM     19  O   UNL     1      27.997 -14.858   2.746 -0.36 -0.00    +0.000 OA
DOCKED: ATOM     20  H   UNL     1      28.887 -15.236   2.664 -1.99 -0.00    +0.000 HD
DOCKED: ENDBRANCH  18  19
DOCKED: ENDBRANCH  17  18
DOCKED: ENDBRANCH   1  17
DOCKED: BRANCH   1  21
DOCKED: ATOM     21  C   UNL     1      30.029 -16.089   0.171 -0.09 -0.00    +0.000 C 
DOCKED: BRANCH  21  22
DOCKED: ATOM     22  C   UNL     1      30.904 -15.619  -0.995 -0.09 -0.00    +0.000 C 
DOCKED: BRANCH  22  23
DOCKED: ATOM     23  C   UNL     1      30.713 -16.496  -2.197 -0.11 -0.00    +0.000 A 
DOCKED: ATOM     24  C   UNL     1      30.330 -16.078  -3.469 -0.13 -0.00    +0.000 A 
DOCKED: ATOM     25  N   UNL     1      30.387 -17.109  -4.343 -0.23 -0.00    +0.000 N 
DOCKED: ATOM     26  C   UNL     1      30.817 -18.170  -3.638 -0.17 -0.00    +0.000 A 
DOCKED: ATOM     27  C   UNL     1      31.030 -17.836  -2.325 -0.15 -0.00    +0.000 A 
DOCKED: ATOM     28  C   UNL     1      31.513 -18.763  -1.400 -0.14 -0.00    +0.000 A 
DOCKED: ATOM     29  C   UNL     1      31.774 -20.068  -1.856 -0.12 -0.00    +0.000 A 
DOCKED: ATOM     30  C   UNL     1      31.553 -20.412  -3.207 -0.14 -0.00    +0.000 A 
DOCKED: ATOM     31  C   UNL     1      31.070 -19.454  -4.117 -0.14 -0.00    +0.000 A 
DOCKED: ATOM     32  H   UNL     1      30.160 -17.086  -5.300 -0.02 -0.00    +0.000 HD
DOCKED: ENDBRANCH  22  23
DOCKED: ENDBRANCH  21  22
DOCKED: ENDBRANCH   1  21
DOCKED: TORSDOF 10
DOCKED: TER
DOCKED: ENDMDL
________________________________________________________________________________


	BEGINNING GENETIC ALGORITHM DOCKING 79 of 100
Run: 79 Seed: 1638579250 1192763984 [ Run 79 of 100 GA/GALS ]
Beginning LAMARCKIAN GENETIC ALGORITHM (LGA), with a maximum of 2500000 energy evaluations.

Final-Value: -17.322


	FINAL GENETIC ALGORITHM DOCKED STATE
	_______________________________________________


Detailed state:  trans 26.773 -15.383 -0.896 quatxyzw -0.352467 0.488229 0.749932 0.273863 center 0.285 0.077 -0.044 ntor 10 -177.8991 179.9111 35.8888 -148.8942 -156.4214 -177.7867 -178.9645 -14.0458 -24.4612 -16.2061
State:	 26.773 -15.383  -0.896  -0.366  0.508  0.780 148.211   -177.90  179.91   35.89 -148.89 -156.42 -177.79 -178.96  -14.05  -24.46  -16.21

DOCKED: MODEL       79
DOCKED: USER    Run = 79
DOCKED: USER    DPF = ligand_dock.biased.dpf
DOCKED: USER  
DOCKED: USER    Estimated Free Energy of Binding    =  -12.63 kcal/mol  [=(1)+(2)+(3)-(4)]
DOCKED: USER    Estimated Inhibition Constant, Ki   =  556.71 pM (picomolar)  [Temperature = 298.15 K]
DOCKED: USER    
DOCKED: USER    (1) Final Intermolecular Energy     =  -15.61 kcal/mol
DOCKED: USER        vdW + Hbond + desolv Energy     =  -15.61 kcal/mol
DOCKED: USER        Electrostatic Energy            =   +0.00 kcal/mol
DOCKED: USER    (2) Final Total Internal Energy     =   -1.71 kcal/mol
DOCKED: USER    (3) Torsional Free Energy           =   +2.98 kcal/mol
DOCKED: USER    (4) Unbound System's Energy  [=(2)] =   -1.71 kcal/mol
DOCKED: USER    
DOCKED: USER    
DOCKED: USER    NEWDPF move ligand.pdbqt
DOCKED: USER    NEWDPF about 0.285000 0.077000 -0.044000
DOCKED: USER    NEWDPF tran0 26.772666 -15.382965 -0.896386
DOCKED: USER    NEWDPF quaternion0 -0.352467 0.488229 0.749932 0.273863
DOCKED: USER    NEWDPF axisangle0 -0.366478 0.507637 0.779743 148.211431
DOCKED: USER    NEWDPF quat0 -0.366478 0.507637 0.779743 148.211431
DOCKED: USER    NEWDPF dihe0 -177.90 179.91 35.89 -148.89 -156.42 -177.79 -178.96 -14.05 -24.46 -16.21 
DOCKED: USER  keepresnum = 1 
DOCKED: USER  
DOCKED: REMARK  Name = 
DOCKED: REMARK  10 active torsions:
DOCKED: REMARK  status: ('A' for Active; 'I' for Inactive)
DOCKED: REMARK    1  A    between atoms: C_2  and  C_5
DOCKED: REMARK    2  A    between atoms: C_6  and  C_7
DOCKED: REMARK    3  A    between atoms: C_10  and  C_11
DOCKED: REMARK    4  A    between atoms: C_11  and  N_12
DOCKED: REMARK    5  A    between atoms: N_12  and  C_13
DOCKED: REMARK    6  A    between atoms: N_12  and  C_16
DOCKED: REMARK    7  A    between atoms: C_13  and  C_14
DOCKED: REMARK    8  A    between atoms: C_14  and  O_15
DOCKED: REMARK    9  A    between atoms: C_16  and  C_17
DOCKED: REMARK   10  A    between atoms: C_17  and  C_18
DOCKED: REMARK                            x       y       z     vdW  Elec       q    Type
DOCKED: REMARK                         _______ _______ _______ _____ _____    ______ ____
DOCKED: USER                              x       y       z     vdW  Elec       q    Type
DOCKED: USER                           _______ _______ _______ _____ _____    ______ ____
DOCKED: ROOT
DOCKED: ATOM      1  N   UNL     1      27.582 -14.322  -0.844 -0.19 -0.00    +0.000 N 
DOCKED: ATOM      2  H   UNL     1      28.559 -14.037  -0.769 +0.00 -0.00    +0.000 HD
DOCKED: ENDROOT
DOCKED: BRANCH   1   3
DOCKED: ATOM      3  C   UNL     1      27.662 -15.712  -1.363 -0.31 -0.00    +0.000 C 
DOCKED: BRANCH   3   7
DOCKED: ATOM      4  C   UNL     1      24.146 -18.165  -0.672 -0.70 -0.00    +0.000 A 
DOCKED: ATOM      5  C   UNL     1      24.096 -17.075  -1.553 -0.55 -0.00    +0.000 A 
DOCKED: ATOM      6  C   UNL     1      25.227 -16.287  -1.778 -0.52 -0.00    +0.000 A 
DOCKED: ATOM      7  C   UNL     1      26.429 -16.556  -1.102 -0.44 -0.00    +0.000 A 
DOCKED: ATOM      8  C   UNL     1      26.486 -17.654  -0.231 -0.52 -0.00    +0.000 A 
DOCKED: ATOM      9  C   UNL     1      25.355 -18.444  -0.005 -0.49 -0.00    +0.000 A 
DOCKED: BRANCH   4  11
DOCKED: ATOM     10  C   UNL     1      21.758 -18.739  -1.101 -0.80 -0.00    +0.000 C 
DOCKED: ATOM     11  C   UNL     1      22.913 -18.964  -0.459 -0.79 -0.00    +0.000 C 
DOCKED: BRANCH  10  13
DOCKED: ATOM     12  O   UNL     1      19.700 -19.733  -1.767 -2.26 -0.00    +0.000 OA
DOCKED: ATOM     13  C   UNL     1      20.549 -19.549  -0.853 -0.87 -0.00    +0.000 C 
DOCKED: ATOM     14  N   UNL     1      20.336 -20.130   0.436 -0.70 -0.00    +0.000 N 
DOCKED: ATOM     15  O   UNL     1      19.233 -20.874   0.679 -0.84 -0.00    +0.000 OA
DOCKED: ATOM     16  H   UNL     1      20.998 -19.987   1.151 -0.52 -0.00    +0.000 HD
DOCKED: ENDBRANCH  10  13
DOCKED: ENDBRANCH   4  11
DOCKED: ENDBRANCH   3   7
DOCKED: ENDBRANCH   1   3
DOCKED: BRANCH   1  17
DOCKED: ATOM     17  C   UNL     1      27.057 -14.199   0.534 -0.30 -0.00    +0.000 C 
DOCKED: BRANCH  17  18
DOCKED: ATOM     18  C   UNL     1      28.173 -13.879   1.539 -0.25 -0.00    +0.000 C 
DOCKED: BRANCH  18  19
DOCKED: ATOM     19  O   UNL     1      28.140 -14.769   2.622 -0.34 -0.00    +0.000 OA
DOCKED: ATOM     20  H   UNL     1      28.989 -15.233   2.684 -1.99 -0.00    +0.000 HD
DOCKED: ENDBRANCH  18  19
DOCKED: ENDBRANCH  17  18
DOCKED: ENDBRANCH   1  17
DOCKED: BRANCH   1  21
DOCKED: ATOM     21  C   UNL     1      26.948 -13.373  -1.789 -0.20 -0.00    +0.000 C 
DOCKED: BRANCH  21  22
DOCKED: ATOM     22  C   UNL     1      28.013 -12.524  -2.491 -0.12 -0.00    +0.000 C 
DOCKED: BRANCH  22  23
DOCKED: ATOM     23  C   UNL     1      27.961 -12.720  -3.978 -0.13 -0.00    +0.000 A 
DOCKED: ATOM     24  C   UNL     1      27.380 -11.856  -4.903 -0.16 -0.00    +0.000 A 
DOCKED: ATOM     25  N   UNL     1      27.634 -12.274  -6.164 -0.20 -0.00    +0.000 N 
DOCKED: ATOM     26  C   UNL     1      28.382 -13.383  -6.045 -0.24 -0.00    +0.000 A 
DOCKED: ATOM     27  C   UNL     1      28.606 -13.687  -4.727 -0.17 -0.00    +0.000 A 
DOCKED: ATOM     28  C   UNL     1      29.388 -14.779  -4.347 -0.15 -0.00    +0.000 A 
DOCKED: ATOM     29  C   UNL     1      29.944 -15.574  -5.366 -0.23 -0.00    +0.000 A 
DOCKED: ATOM     30  C   UNL     1      29.712 -15.262  -6.724 -0.30 -0.00    +0.000 A 
DOCKED: ATOM     31  C   UNL     1      28.922 -14.151  -7.075 -0.31 -0.00    +0.000 A 
DOCKED: ATOM     32  H   UNL     1      27.331 -11.849  -6.999 -0.01 -0.00    +0.000 HD
DOCKED: ENDBRANCH  22  23
DOCKED: ENDBRANCH  21  22
DOCKED: ENDBRANCH   1  21
DOCKED: TORSDOF 10
DOCKED: TER
DOCKED: ENDMDL
________________________________________________________________________________


	BEGINNING GENETIC ALGORITHM DOCKING 80 of 100
Run: 80 Seed: 1125784291 1958163971 [ Run 80 of 100 GA/GALS ]
Beginning LAMARCKIAN GENETIC ALGORITHM (LGA), with a maximum of 2500000 energy evaluations.

Final-Value: -14.968


	FINAL GENETIC ALGORITHM DOCKED STATE
	_______________________________________________


Detailed state:  trans 28.743 -14.608 -1.021 quatxyzw 0.241715 -0.394301 -0.828326 0.316191 center 0.285 0.077 -0.044 ntor 10 72.0145 165.5514 126.7878 6.5071 146.3365 -141.2967 172.1527 100.6384 -159.1418 -65.5809
State:	 28.743 -14.608  -1.021   0.255 -0.416 -0.873 143.135     72.01  165.55  126.79    6.51  146.34 -141.30  172.15  100.64 -159.14  -65.58

DOCKED: MODEL       80
DOCKED: USER    Run = 80
DOCKED: USER    DPF = ligand_dock.biased.dpf
DOCKED: USER  
DOCKED: USER    Estimated Free Energy of Binding    =  -10.04 kcal/mol  [=(1)+(2)+(3)-(4)]
DOCKED: USER    Estimated Inhibition Constant, Ki   =   43.50 nM (nanomolar)  [Temperature = 298.15 K]
DOCKED: USER    
DOCKED: USER    (1) Final Intermolecular Energy     =  -13.03 kcal/mol
DOCKED: USER        vdW + Hbond + desolv Energy     =  -13.03 kcal/mol
DOCKED: USER        Electrostatic Energy            =   +0.00 kcal/mol
DOCKED: USER    (2) Final Total Internal Energy     =   -1.94 kcal/mol
DOCKED: USER    (3) Torsional Free Energy           =   +2.98 kcal/mol
DOCKED: USER    (4) Unbound System's Energy  [=(2)] =   -1.94 kcal/mol
DOCKED: USER    
DOCKED: USER    
DOCKED: USER    NEWDPF move ligand.pdbqt
DOCKED: USER    NEWDPF about 0.285000 0.077000 -0.044000
DOCKED: USER    NEWDPF tran0 28.742657 -14.608353 -1.021042
DOCKED: USER    NEWDPF quaternion0 0.241715 -0.394301 -0.828326 0.316191
DOCKED: USER    NEWDPF axisangle0 0.254786 -0.415625 -0.873121 143.134583
DOCKED: USER    NEWDPF quat0 0.254786 -0.415625 -0.873121 143.134583
DOCKED: USER    NEWDPF dihe0 72.01 165.55 126.79 6.51 146.34 -141.30 172.15 100.64 -159.14 -65.58 
DOCKED: USER  keepresnum = 1 
DOCKED: USER  
DOCKED: REMARK  Name = 
DOCKED: REMARK  10 active torsions:
DOCKED: REMARK  status: ('A' for Active; 'I' for Inactive)
DOCKED: REMARK    1  A    between atoms: C_2  and  C_5
DOCKED: REMARK    2  A    between atoms: C_6  and  C_7
DOCKED: REMARK    3  A    between atoms: C_10  and  C_11
DOCKED: REMARK    4  A    between atoms: C_11  and  N_12
DOCKED: REMARK    5  A    between atoms: N_12  and  C_13
DOCKED: REMARK    6  A    between atoms: N_12  and  C_16
DOCKED: REMARK    7  A    between atoms: C_13  and  C_14
DOCKED: REMARK    8  A    between atoms: C_14  and  O_15
DOCKED: REMARK    9  A    between atoms: C_16  and  C_17
DOCKED: REMARK   10  A    between atoms: C_17  and  C_18
DOCKED: REMARK                            x       y       z     vdW  Elec       q    Type
DOCKED: REMARK                         _______ _______ _______ _____ _____    ______ ____
DOCKED: USER                              x       y       z     vdW  Elec       q    Type
DOCKED: USER                           _______ _______ _______ _____ _____    ______ ____
DOCKED: ROOT
DOCKED: ATOM      1  N   UNL     1      29.851 -14.945  -0.355 -0.11 -0.00    +0.000 N 
DOCKED: ATOM      2  H   UNL     1      30.484 -15.719  -0.152 -0.01 -0.00    +0.000 HD
DOCKED: ENDROOT
DOCKED: BRANCH   1   3
DOCKED: ATOM      3  C   UNL     1      29.187 -15.358  -1.619 -0.16 -0.00    +0.000 C 
DOCKED: BRANCH   3   7
DOCKED: ATOM      4  C   UNL     1      24.999 -16.404  -1.135 -0.51 -0.00    +0.000 A 
DOCKED: ATOM      5  C   UNL     1      26.005 -17.189  -0.552 -0.52 -0.00    +0.000 A 
DOCKED: ATOM      6  C   UNL     1      27.352 -16.852  -0.705 -0.40 -0.00    +0.000 A 
DOCKED: ATOM      7  C   UNL     1      27.725 -15.735  -1.471 -0.26 -0.00    +0.000 A 
DOCKED: ATOM      8  C   UNL     1      26.721 -14.940  -2.044 -0.30 -0.00    +0.000 A 
DOCKED: ATOM      9  C   UNL     1      25.372 -15.276  -1.892 -0.30 -0.00    +0.000 A 
DOCKED: BRANCH   4  11
DOCKED: ATOM     10  C   UNL     1      23.112 -18.027  -1.266 -0.73 -0.00    +0.000 C 
DOCKED: ATOM     11  C   UNL     1      23.584 -16.812  -0.953 -0.56 -0.00    +0.000 C 
DOCKED: BRANCH  10  13
DOCKED: ATOM     12  O   UNL     1      20.852 -17.529  -0.708 -2.10 +0.00    +0.000 OA
DOCKED: ATOM     13  C   UNL     1      21.694 -18.391  -1.080 -0.75 -0.00    +0.000 C 
DOCKED: ATOM     14  N   UNL     1      21.268 -19.734  -1.322 -0.67 -0.00    +0.000 N 
DOCKED: ATOM     15  O   UNL     1      19.971 -20.084  -1.156 -1.97 -0.00    +0.000 OA
DOCKED: ATOM     16  H   UNL     1      21.923 -20.410  -1.612 -0.35 -0.00    +0.000 HD
DOCKED: ENDBRANCH  10  13
DOCKED: ENDBRANCH   4  11
DOCKED: ENDBRANCH   3   7
DOCKED: ENDBRANCH   1   3
DOCKED: BRANCH   1  17
DOCKED: ATOM     17  C   UNL     1      28.960 -14.880   0.825 -0.17 -0.00    +0.000 C 
DOCKED: BRANCH  17  18
DOCKED: ATOM     18  C   UNL     1      29.592 -14.072   1.968 -0.18 -0.00    +0.000 C 
DOCKED: BRANCH  18  19
DOCKED: ATOM     19  O   UNL     1      29.275 -14.636   3.212 -0.30 -0.00    +0.000 OA
DOCKED: ATOM     20  H   UNL     1      28.878 -15.510   3.078 -1.76 -0.00    +0.000 HD
DOCKED: ENDBRANCH  18  19
DOCKED: ENDBRANCH  17  18
DOCKED: ENDBRANCH   1  17
DOCKED: BRANCH   1  21
DOCKED: ATOM     21  C   UNL     1      30.705 -13.743  -0.501 -0.04 -0.00    +0.000 C 
DOCKED: BRANCH  21  22
DOCKED: ATOM     22  C   UNL     1      30.439 -13.057  -1.845 -0.02 -0.00    +0.000 C 
DOCKED: BRANCH  22  23
DOCKED: ATOM     23  C   UNL     1      29.758 -11.734  -1.647 -0.02 -0.00    +0.000 A 
DOCKED: ATOM     24  C   UNL     1      30.047 -10.550  -2.320 -0.01 -0.00    +0.000 A 
DOCKED: ATOM     25  N   UNL     1      29.152  -9.590  -1.993 -0.02 -0.00    +0.000 N 
DOCKED: ATOM     26  C   UNL     1      28.293 -10.161  -1.133 -0.06 -0.00    +0.000 A 
DOCKED: ATOM     27  C   UNL     1      28.626 -11.470  -0.898 -0.05 -0.00    +0.000 A 
DOCKED: ATOM     28  C   UNL     1      27.860 -12.285  -0.063 -0.12 -0.00    +0.000 A 
DOCKED: ATOM     29  C   UNL     1      26.724 -11.719   0.543 -0.22 +0.00    +0.000 A 
DOCKED: ATOM     30  C   UNL     1      26.382 -10.370   0.303 -0.24 +0.00    +0.000 A 
DOCKED: ATOM     31  C   UNL     1      27.172  -9.574  -0.547 -0.13 +0.00    +0.000 A 
DOCKED: ATOM     32  H   UNL     1      29.136  -8.661  -2.320 +0.00 -0.00    +0.000 HD
DOCKED: ENDBRANCH  22  23
DOCKED: ENDBRANCH  21  22
DOCKED: ENDBRANCH   1  21
DOCKED: TORSDOF 10
DOCKED: TER
DOCKED: ENDMDL
________________________________________________________________________________


	BEGINNING GENETIC ALGORITHM DOCKING 81 of 100
Run: 81 Seed: 1586710211 486292869 [ Run 81 of 100 GA/GALS ]
Beginning LAMARCKIAN GENETIC ALGORITHM (LGA), with a maximum of 2500000 energy evaluations.

Final-Value: -16.296


	FINAL GENETIC ALGORITHM DOCKED STATE
	_______________________________________________


Detailed state:  trans 27.373 -15.593 -1.728 quatxyzw -0.214045 0.937930 -0.199342 0.186372 center 0.285 0.077 -0.044 ntor 10 175.8177 151.7523 179.9711 -143.7821 -141.3642 11.3816 -83.4259 -47.6857 -180.0000 13.4411
State:	 27.373 -15.593  -1.728  -0.218  0.955 -0.203 158.518    175.82  151.75  179.97 -143.78 -141.36   11.38  -83.43  -47.69 -180.00   13.44

DOCKED: MODEL       81
DOCKED: USER    Run = 81
DOCKED: USER    DPF = ligand_dock.biased.dpf
DOCKED: USER  
DOCKED: USER    Estimated Free Energy of Binding    =  -11.43 kcal/mol  [=(1)+(2)+(3)-(4)]
DOCKED: USER    Estimated Inhibition Constant, Ki   =    4.19 nM (nanomolar)  [Temperature = 298.15 K]
DOCKED: USER    
DOCKED: USER    (1) Final Intermolecular Energy     =  -14.41 kcal/mol
DOCKED: USER        vdW + Hbond + desolv Energy     =  -14.41 kcal/mol
DOCKED: USER        Electrostatic Energy            =   +0.00 kcal/mol
DOCKED: USER    (2) Final Total Internal Energy     =   -1.88 kcal/mol
DOCKED: USER    (3) Torsional Free Energy           =   +2.98 kcal/mol
DOCKED: USER    (4) Unbound System's Energy  [=(2)] =   -1.88 kcal/mol
DOCKED: USER    
DOCKED: USER    
DOCKED: USER    NEWDPF move ligand.pdbqt
DOCKED: USER    NEWDPF about 0.285000 0.077000 -0.044000
DOCKED: USER    NEWDPF tran0 27.373126 -15.593214 -1.728278
DOCKED: USER    NEWDPF quaternion0 -0.214045 0.937930 -0.199342 0.186372
DOCKED: USER    NEWDPF axisangle0 -0.217863 0.954656 -0.202897 158.517726
DOCKED: USER    NEWDPF quat0 -0.217863 0.954656 -0.202897 158.517726
DOCKED: USER    NEWDPF dihe0 175.82 151.75 179.97 -143.78 -141.36 11.38 -83.43 -47.69 -180.00 13.44 
DOCKED: USER  keepresnum = 1 
DOCKED: USER  
DOCKED: REMARK  Name = 
DOCKED: REMARK  10 active torsions:
DOCKED: REMARK  status: ('A' for Active; 'I' for Inactive)
DOCKED: REMARK    1  A    between atoms: C_2  and  C_5
DOCKED: REMARK    2  A    between atoms: C_6  and  C_7
DOCKED: REMARK    3  A    between atoms: C_10  and  C_11
DOCKED: REMARK    4  A    between atoms: C_11  and  N_12
DOCKED: REMARK    5  A    between atoms: N_12  and  C_13
DOCKED: REMARK    6  A    between atoms: N_12  and  C_16
DOCKED: REMARK    7  A    between atoms: C_13  and  C_14
DOCKED: REMARK    8  A    between atoms: C_14  and  O_15
DOCKED: REMARK    9  A    between atoms: C_16  and  C_17
DOCKED: REMARK   10  A    between atoms: C_17  and  C_18
DOCKED: REMARK                            x       y       z     vdW  Elec       q    Type
DOCKED: REMARK                         _______ _______ _______ _____ _____    ______ ____
DOCKED: USER                              x       y       z     vdW  Elec       q    Type
DOCKED: USER                           _______ _______ _______ _____ _____    ______ ____
DOCKED: ROOT
DOCKED: ATOM      1  N   UNL     1      28.621 -15.385  -2.159 -0.17 -0.00    +0.000 N 
DOCKED: ATOM      2  H   UNL     1      29.456 -14.819  -2.011 +0.01 -0.00    +0.000 HD
DOCKED: ENDROOT
DOCKED: BRANCH   1   3
DOCKED: ATOM      3  C   UNL     1      27.898 -15.286  -0.864 -0.26 -0.00    +0.000 C 
DOCKED: BRANCH   3   7
DOCKED: ATOM      4  C   UNL     1      24.474 -17.942  -0.567 -0.66 -0.00    +0.000 A 
DOCKED: ATOM      5  C   UNL     1      24.342 -16.663  -1.128 -0.52 -0.00    +0.000 A 
DOCKED: ATOM      6  C   UNL     1      25.443 -15.809  -1.226 -0.43 -0.00    +0.000 A 
DOCKED: ATOM      7  C   UNL     1      26.699 -16.206  -0.738 -0.40 -0.00    +0.000 A 
DOCKED: ATOM      8  C   UNL     1      26.838 -17.491  -0.189 -0.47 -0.00    +0.000 A 
DOCKED: ATOM      9  C   UNL     1      25.737 -18.347  -0.090 -0.56 -0.00    +0.000 A 
DOCKED: BRANCH   4  11
DOCKED: ATOM     10  C   UNL     1      22.151 -18.604  -1.184 -0.75 -0.00    +0.000 C 
DOCKED: ATOM     11  C   UNL     1      23.271 -18.806  -0.475 -0.78 -0.00    +0.000 C 
DOCKED: BRANCH  10  13
DOCKED: ATOM     12  O   UNL     1      20.248 -19.736  -2.058 -2.34 -0.00    +0.000 OA
DOCKED: ATOM     13  C   UNL     1      20.971 -19.480  -1.056 -0.84 -0.00    +0.000 C 
DOCKED: ATOM     14  N   UNL     1      20.640 -20.044   0.215 -0.70 -0.00    +0.000 N 
DOCKED: ATOM     15  O   UNL     1      19.560 -20.849   0.348 -0.96 -0.00    +0.000 OA
DOCKED: ATOM     16  H   UNL     1      21.202 -19.846   0.998 -0.48 -0.00    +0.000 HD
DOCKED: ENDBRANCH  10  13
DOCKED: ENDBRANCH   4  11
DOCKED: ENDBRANCH   3   7
DOCKED: ENDBRANCH   1   3
DOCKED: BRANCH   1  17
DOCKED: ATOM     17  C   UNL     1      27.939 -14.741  -3.304 -0.24 -0.00    +0.000 C 
DOCKED: BRANCH  17  18
DOCKED: ATOM     18  C   UNL     1      27.411 -15.778  -4.306 -0.16 -0.00    +0.000 C 
DOCKED: BRANCH  18  19
DOCKED: ATOM     19  O   UNL     1      27.254 -15.208  -5.577 -1.07 +0.00    +0.000 OA
DOCKED: ATOM     20  H   UNL     1      27.868 -15.629  -6.198 -0.06 +0.00    +0.000 HD
DOCKED: ENDBRANCH  18  19
DOCKED: ENDBRANCH  17  18
DOCKED: ENDBRANCH   1  17
DOCKED: BRANCH   1  21
DOCKED: ATOM     21  C   UNL     1      29.099 -16.753  -2.467 -0.26 -0.00    +0.000 C 
DOCKED: BRANCH  21  22
DOCKED: ATOM     22  C   UNL     1      30.536 -16.710  -2.998 -0.16 -0.00    +0.000 C 
DOCKED: BRANCH  22  23
DOCKED: ATOM     23  C   UNL     1      30.749 -17.758  -4.051 -0.20 -0.00    +0.000 A 
DOCKED: ATOM     24  C   UNL     1      30.789 -19.135  -3.847 +0.03 -0.00    +0.000 A 
DOCKED: ATOM     25  N   UNL     1      30.862 -19.787  -5.030 -0.29 -0.00    +0.000 N 
DOCKED: ATOM     26  C   UNL     1      30.854 -18.836  -5.979 -0.31 -0.00    +0.000 A 
DOCKED: ATOM     27  C   UNL     1      30.782 -17.585  -5.422 -0.25 -0.00    +0.000 A 
DOCKED: ATOM     28  C   UNL     1      30.725 -16.433  -6.209 -0.25 -0.00    +0.000 A 
DOCKED: ATOM     29  C   UNL     1      30.747 -16.592  -7.607 -0.25 -0.00    +0.000 A 
DOCKED: ATOM     30  C   UNL     1      30.822 -17.881  -8.179 -0.24 -0.00    +0.000 A 
DOCKED: ATOM     31  C   UNL     1      30.874 -19.023  -7.360 -0.35 -0.00    +0.000 A 
DOCKED: ATOM     32  H   UNL     1      30.911 -20.761  -5.165 -0.01 -0.00    +0.000 HD
DOCKED: ENDBRANCH  22  23
DOCKED: ENDBRANCH  21  22
DOCKED: ENDBRANCH   1  21
DOCKED: TORSDOF 10
DOCKED: TER
DOCKED: ENDMDL
________________________________________________________________________________


	BEGINNING GENETIC ALGORITHM DOCKING 82 of 100
Run: 82 Seed: 1338925271 2015455068 [ Run 82 of 100 GA/GALS ]
Beginning LAMARCKIAN GENETIC ALGORITHM (LGA), with a maximum of 2500000 energy evaluations.

Final-Value: -16.756


	FINAL GENETIC ALGORITHM DOCKED STATE
	_______________________________________________


Detailed state:  trans 27.806 -16.204 -1.382 quatxyzw 0.770303 -0.481378 0.418018 0.013031 center 0.285 0.077 -0.044 ntor 10 -110.6133 -53.8158 27.6237 -52.1299 -177.2761 128.7421 125.3679 18.9286 -174.9929 -89.0552
State:	 27.806 -16.204  -1.382   0.770 -0.481  0.418 178.507   -110.61  -53.82   27.62  -52.13 -177.28  128.74  125.37   18.93 -174.99  -89.06

DOCKED: MODEL       82
DOCKED: USER    Run = 82
DOCKED: USER    DPF = ligand_dock.biased.dpf
DOCKED: USER  
DOCKED: USER    Estimated Free Energy of Binding    =  -11.76 kcal/mol  [=(1)+(2)+(3)-(4)]
DOCKED: USER    Estimated Inhibition Constant, Ki   =    2.38 nM (nanomolar)  [Temperature = 298.15 K]
DOCKED: USER    
DOCKED: USER    (1) Final Intermolecular Energy     =  -14.75 kcal/mol
DOCKED: USER        vdW + Hbond + desolv Energy     =  -14.75 kcal/mol
DOCKED: USER        Electrostatic Energy            =   +0.00 kcal/mol
DOCKED: USER    (2) Final Total Internal Energy     =   -2.01 kcal/mol
DOCKED: USER    (3) Torsional Free Energy           =   +2.98 kcal/mol
DOCKED: USER    (4) Unbound System's Energy  [=(2)] =   -2.01 kcal/mol
DOCKED: USER    
DOCKED: USER    
DOCKED: USER    NEWDPF move ligand.pdbqt
DOCKED: USER    NEWDPF about 0.285000 0.077000 -0.044000
DOCKED: USER    NEWDPF tran0 27.805559 -16.203944 -1.382474
DOCKED: USER    NEWDPF quaternion0 0.770303 -0.481378 0.418018 0.013031
DOCKED: USER    NEWDPF axisangle0 0.770368 -0.481419 0.418054 178.506695
DOCKED: USER    NEWDPF quat0 0.770368 -0.481419 0.418054 178.506695
DOCKED: USER    NEWDPF dihe0 -110.61 -53.82 27.62 -52.13 -177.28 128.74 125.37 18.93 -174.99 -89.06 
DOCKED: USER  keepresnum = 1 
DOCKED: USER  
DOCKED: REMARK  Name = 
DOCKED: REMARK  10 active torsions:
DOCKED: REMARK  status: ('A' for Active; 'I' for Inactive)
DOCKED: REMARK    1  A    between atoms: C_2  and  C_5
DOCKED: REMARK    2  A    between atoms: C_6  and  C_7
DOCKED: REMARK    3  A    between atoms: C_10  and  C_11
DOCKED: REMARK    4  A    between atoms: C_11  and  N_12
DOCKED: REMARK    5  A    between atoms: N_12  and  C_13
DOCKED: REMARK    6  A    between atoms: N_12  and  C_16
DOCKED: REMARK    7  A    between atoms: C_13  and  C_14
DOCKED: REMARK    8  A    between atoms: C_14  and  O_15
DOCKED: REMARK    9  A    between atoms: C_16  and  C_17
DOCKED: REMARK   10  A    between atoms: C_17  and  C_18
DOCKED: REMARK                            x       y       z     vdW  Elec       q    Type
DOCKED: REMARK                         _______ _______ _______ _____ _____    ______ ____
DOCKED: USER                              x       y       z     vdW  Elec       q    Type
DOCKED: USER                           _______ _______ _______ _____ _____    ______ ____
DOCKED: ROOT
DOCKED: ATOM      1  N   UNL     1      27.739 -15.044  -2.043 -0.20 -0.00    +0.000 N 
DOCKED: ATOM      2  H   UNL     1      27.169 -14.210  -2.182 +0.00 -0.00    +0.000 HD
DOCKED: ENDROOT
DOCKED: BRANCH   1   3
DOCKED: ATOM      3  C   UNL     1      27.292 -15.558  -0.722 -0.34 -0.00    +0.000 C 
DOCKED: BRANCH   3   7
DOCKED: ATOM      4  C   UNL     1      23.805 -18.139  -0.941 -0.71 -0.00    +0.000 A 
DOCKED: ATOM      5  C   UNL     1      23.664 -16.743  -0.936 -0.47 -0.00    +0.000 A 
DOCKED: ATOM      6  C   UNL     1      24.785 -15.913  -0.868 -0.15 -0.00    +0.000 A 
DOCKED: ATOM      7  C   UNL     1      26.074 -16.461  -0.774 -0.45 -0.00    +0.000 A 
DOCKED: ATOM      8  C   UNL     1      26.220 -17.857  -0.793 -0.53 -0.00    +0.000 A 
DOCKED: ATOM      9  C   UNL     1      25.100 -18.690  -0.861 -0.36 -0.00    +0.000 A 
DOCKED: BRANCH   4  11
DOCKED: ATOM     10  C   UNL     1      21.354 -18.528  -0.706 -0.86 -0.00    +0.000 C 
DOCKED: ATOM     11  C   UNL     1      22.582 -18.978  -1.001 -0.82 -0.00    +0.000 C 
DOCKED: BRANCH  10  13
DOCKED: ATOM     12  O   UNL     1      19.897 -20.050  -1.814 -2.10 -0.00    +0.000 OA
DOCKED: ATOM     13  C   UNL     1      20.163 -19.397  -0.768 -0.89 -0.00    +0.000 C 
DOCKED: ATOM     14  N   UNL     1      19.300 -19.501   0.366 -0.72 -0.00    +0.000 N 
DOCKED: ATOM     15  O   UNL     1      18.203 -20.293   0.324 -0.83 -0.00    +0.000 OA
DOCKED: ATOM     16  H   UNL     1      19.505 -18.992   1.184 -0.30 -0.00    +0.000 HD
DOCKED: ENDBRANCH  10  13
DOCKED: ENDBRANCH   4  11
DOCKED: ENDBRANCH   3   7
DOCKED: ENDBRANCH   1   3
DOCKED: BRANCH   1  17
DOCKED: ATOM     17  C   UNL     1      27.407 -15.912  -3.195 -0.30 -0.00    +0.000 C 
DOCKED: BRANCH  17  18
DOCKED: ATOM     18  C   UNL     1      26.128 -15.446  -3.906 -0.56 -0.00    +0.000 C 
DOCKED: BRANCH  18  19
DOCKED: ATOM     19  O   UNL     1      25.565 -14.344  -3.247 -0.53 -0.00    +0.000 OA
DOCKED: ATOM     20  H   UNL     1      24.692 -14.153  -3.626 -0.07 -0.00    +0.000 HD
DOCKED: ENDBRANCH  18  19
DOCKED: ENDBRANCH  17  18
DOCKED: ENDBRANCH   1  17
DOCKED: BRANCH   1  21
DOCKED: ATOM     21  C   UNL     1      29.148 -14.586  -2.053 -0.11 -0.00    +0.000 C 
DOCKED: BRANCH  21  22
DOCKED: ATOM     22  C   UNL     1      29.302 -13.310  -1.220 -0.06 -0.00    +0.000 C 
DOCKED: BRANCH  22  23
DOCKED: ATOM     23  C   UNL     1      28.999 -13.574   0.226 -0.10 -0.00    +0.000 A 
DOCKED: ATOM     24  C   UNL     1      29.492 -14.627   0.992 -0.13 -0.00    +0.000 A 
DOCKED: ATOM     25  N   UNL     1      29.124 -14.483   2.286 -0.21 -0.00    +0.000 N 
DOCKED: ATOM     26  C   UNL     1      28.417 -13.342   2.346 -0.22 -0.00    +0.000 A 
DOCKED: ATOM     27  C   UNL     1      28.321 -12.756   1.111 -0.13 -0.00    +0.000 A 
DOCKED: ATOM     28  C   UNL     1      27.661 -11.539   0.924 -0.15 -0.00    +0.000 A 
DOCKED: ATOM     29  C   UNL     1      27.087 -10.925   2.052 -0.26 +0.00    +0.000 A 
DOCKED: ATOM     30  C   UNL     1      27.185 -11.530   3.324 -0.18 +0.00    +0.000 A 
DOCKED: ATOM     31  C   UNL     1      27.859 -12.755   3.481 -0.30 -0.00    +0.000 A 
DOCKED: ATOM     32  H   UNL     1      29.333 -15.092   3.030 -1.72 -0.00    +0.000 HD
DOCKED: ENDBRANCH  22  23
DOCKED: ENDBRANCH  21  22
DOCKED: ENDBRANCH   1  21
DOCKED: TORSDOF 10
DOCKED: TER
DOCKED: ENDMDL
________________________________________________________________________________


	BEGINNING GENETIC ALGORITHM DOCKING 83 of 100
Run: 83 Seed: 1049216644 1339976261 [ Run 83 of 100 GA/GALS ]
Beginning LAMARCKIAN GENETIC ALGORITHM (LGA), with a maximum of 2500000 energy evaluations.

Final-Value: -17.084


	FINAL GENETIC ALGORITHM DOCKED STATE
	_______________________________________________


Detailed state:  trans 28.405 -14.897 -1.206 quatxyzw -0.096782 0.631799 0.275906 -0.717872 center 0.285 0.077 -0.044 ntor 10 14.6954 32.6705 45.5699 -79.5707 -6.2159 15.2770 -28.2222 158.0862 -153.7223 -179.9287
State:	 28.405 -14.897  -1.206  -0.139  0.908  0.396 -88.242     14.70   32.67   45.57  -79.57   -6.22   15.28  -28.22  158.09 -153.72 -179.93

DOCKED: MODEL       83
DOCKED: USER    Run = 83
DOCKED: USER    DPF = ligand_dock.biased.dpf
DOCKED: USER  
DOCKED: USER    Estimated Free Energy of Binding    =  -12.11 kcal/mol  [=(1)+(2)+(3)-(4)]
DOCKED: USER    Estimated Inhibition Constant, Ki   =    1.32 nM (nanomolar)  [Temperature = 298.15 K]
DOCKED: USER    
DOCKED: USER    (1) Final Intermolecular Energy     =  -15.10 kcal/mol
DOCKED: USER        vdW + Hbond + desolv Energy     =  -15.10 kcal/mol
DOCKED: USER        Electrostatic Energy            =   +0.00 kcal/mol
DOCKED: USER    (2) Final Total Internal Energy     =   -1.99 kcal/mol
DOCKED: USER    (3) Torsional Free Energy           =   +2.98 kcal/mol
DOCKED: USER    (4) Unbound System's Energy  [=(2)] =   -1.99 kcal/mol
DOCKED: USER    
DOCKED: USER    
DOCKED: USER    NEWDPF move ligand.pdbqt
DOCKED: USER    NEWDPF about 0.285000 0.077000 -0.044000
DOCKED: USER    NEWDPF tran0 28.404507 -14.896903 -1.206200
DOCKED: USER    NEWDPF quaternion0 -0.096782 0.631799 0.275906 -0.717872
DOCKED: USER    NEWDPF axisangle0 -0.139019 0.907528 0.396317 -88.241922
DOCKED: USER    NEWDPF quat0 -0.139019 0.907528 0.396317 -88.241922
DOCKED: USER    NEWDPF dihe0 14.70 32.67 45.57 -79.57 -6.22 15.28 -28.22 158.09 -153.72 -179.93 
DOCKED: USER  keepresnum = 1 
DOCKED: USER  
DOCKED: REMARK  Name = 
DOCKED: REMARK  10 active torsions:
DOCKED: REMARK  status: ('A' for Active; 'I' for Inactive)
DOCKED: REMARK    1  A    between atoms: C_2  and  C_5
DOCKED: REMARK    2  A    between atoms: C_6  and  C_7
DOCKED: REMARK    3  A    between atoms: C_10  and  C_11
DOCKED: REMARK    4  A    between atoms: C_11  and  N_12
DOCKED: REMARK    5  A    between atoms: N_12  and  C_13
DOCKED: REMARK    6  A    between atoms: N_12  and  C_16
DOCKED: REMARK    7  A    between atoms: C_13  and  C_14
DOCKED: REMARK    8  A    between atoms: C_14  and  O_15
DOCKED: REMARK    9  A    between atoms: C_16  and  C_17
DOCKED: REMARK   10  A    between atoms: C_17  and  C_18
DOCKED: REMARK                            x       y       z     vdW  Elec       q    Type
DOCKED: REMARK                         _______ _______ _______ _____ _____    ______ ____
DOCKED: USER                              x       y       z     vdW  Elec       q    Type
DOCKED: USER                           _______ _______ _______ _____ _____    ______ ____
DOCKED: ROOT
DOCKED: ATOM      1  N   UNL     1      28.443 -15.525  -0.028 -0.24 -0.00    +0.000 N 
DOCKED: ATOM      2  H   UNL     1      27.873 -16.021   0.657 -0.27 -0.00    +0.000 HD
DOCKED: ENDROOT
DOCKED: BRANCH   1   3
DOCKED: ATOM      3  C   UNL     1      27.660 -15.644  -1.286 -0.30 -0.00    +0.000 C 
DOCKED: BRANCH   3   7
DOCKED: ATOM      4  C   UNL     1      24.109 -18.116  -0.912 -0.70 -0.00    +0.000 A 
DOCKED: ATOM      5  C   UNL     1      25.384 -18.656  -0.686 -0.47 -0.00    +0.000 A 
DOCKED: ATOM      6  C   UNL     1      26.526 -17.860  -0.803 -0.49 -0.00    +0.000 A 
DOCKED: ATOM      7  C   UNL     1      26.420 -16.511  -1.179 -0.44 -0.00    +0.000 A 
DOCKED: ATOM      8  C   UNL     1      25.145 -15.965  -1.393 -0.45 -0.00    +0.000 A 
DOCKED: ATOM      9  C   UNL     1      24.001 -16.759  -1.275 -0.52 -0.00    +0.000 A 
DOCKED: BRANCH   4  11
DOCKED: ATOM     10  C   UNL     1      21.700 -18.575  -0.462 -0.84 -0.00    +0.000 C 
DOCKED: ATOM     11  C   UNL     1      22.928 -19.006  -0.787 -0.82 -0.00    +0.000 C 
DOCKED: BRANCH  10  13
DOCKED: ATOM     12  O   UNL     1      19.929 -19.887  -1.360 -2.13 -0.00    +0.000 OA
DOCKED: ATOM     13  C   UNL     1      20.552 -19.493  -0.336 -0.87 -0.00    +0.000 C 
DOCKED: ATOM     14  N   UNL     1      20.139 -19.941   0.957 -0.69 -0.00    +0.000 N 
DOCKED: ATOM     15  O   UNL     1      19.087 -20.783   1.088 -0.76 -0.00    +0.000 OA
DOCKED: ATOM     16  H   UNL     1      20.623 -19.635   1.758 -0.31 -0.00    +0.000 HD
DOCKED: ENDBRANCH  10  13
DOCKED: ENDBRANCH   4  11
DOCKED: ENDBRANCH   3   7
DOCKED: ENDBRANCH   1   3
DOCKED: BRANCH   1  17
DOCKED: ATOM     17  C   UNL     1      28.554 -14.152   0.512 -0.19 -0.00    +0.000 C 
DOCKED: BRANCH  17  18
DOCKED: ATOM     18  C   UNL     1      27.856 -14.019   1.873 -0.30 -0.00    +0.000 C 
DOCKED: BRANCH  18  19
DOCKED: ATOM     19  O   UNL     1      28.703 -14.433   2.910 -0.35 -0.00    +0.000 OA
DOCKED: ATOM     20  H   UNL     1      29.125 -15.272   2.668 -2.00 -0.00    +0.000 HD
DOCKED: ENDBRANCH  18  19
DOCKED: ENDBRANCH  17  18
DOCKED: ENDBRANCH   1  17
DOCKED: BRANCH   1  21
DOCKED: ATOM     21  C   UNL     1      29.744 -16.234  -0.071 -0.14 -0.00    +0.000 C 
DOCKED: BRANCH  21  22
DOCKED: ATOM     22  C   UNL     1      30.711 -15.520  -1.021 -0.09 -0.00    +0.000 C 
DOCKED: BRANCH  22  23
DOCKED: ATOM     23  C   UNL     1      30.572 -16.044  -2.421 -0.09 -0.00    +0.000 A 
DOCKED: ATOM     24  C   UNL     1      30.881 -17.331  -2.853 -0.14 -0.00    +0.000 A 
DOCKED: ATOM     25  N   UNL     1      30.507 -17.499  -4.142 -0.22 -0.00    +0.000 N 
DOCKED: ATOM     26  C   UNL     1      29.953 -16.336  -4.523 -0.23 -0.00    +0.000 A 
DOCKED: ATOM     27  C   UNL     1      29.971 -15.423  -3.500 -0.12 -0.00    +0.000 A 
DOCKED: ATOM     28  C   UNL     1      29.418 -14.149  -3.643 -0.09 -0.00    +0.000 A 
DOCKED: ATOM     29  C   UNL     1      28.839 -13.821  -4.882 -0.17 -0.00    +0.000 A 
DOCKED: ATOM     30  C   UNL     1      28.822 -14.760  -5.936 -0.34 -0.00    +0.000 A 
DOCKED: ATOM     31  C   UNL     1      29.384 -16.039  -5.760 -0.31 -0.00    +0.000 A 
DOCKED: ATOM     32  H   UNL     1      30.620 -18.310  -4.689 -0.01 -0.00    +0.000 HD
DOCKED: ENDBRANCH  22  23
DOCKED: ENDBRANCH  21  22
DOCKED: ENDBRANCH   1  21
DOCKED: TORSDOF 10
DOCKED: TER
DOCKED: ENDMDL
________________________________________________________________________________


	BEGINNING GENETIC ALGORITHM DOCKING 84 of 100
Run: 84 Seed: 2017671317 1637876546 [ Run 84 of 100 GA/GALS ]
Beginning LAMARCKIAN GENETIC ALGORITHM (LGA), with a maximum of 2500000 energy evaluations.

Final-Value: -15.683


	FINAL GENETIC ALGORITHM DOCKED STATE
	_______________________________________________


Detailed state:  trans 29.469 -13.840 -3.731 quatxyzw -0.407534 0.644585 0.033557 -0.645988 center 0.285 0.077 -0.044 ntor 10 -63.3839 -22.8758 -12.6134 -44.2589 -99.1779 177.4421 126.0790 -62.6027 67.7429 -172.8912
State:	 29.469 -13.840  -3.731  -0.534  0.844  0.044 -99.520    -63.38  -22.88  -12.61  -44.26  -99.18  177.44  126.08  -62.60   67.74 -172.89

DOCKED: MODEL       84
DOCKED: USER    Run = 84
DOCKED: USER    DPF = ligand_dock.biased.dpf
DOCKED: USER  
DOCKED: USER    Estimated Free Energy of Binding    =   -9.39 kcal/mol  [=(1)+(2)+(3)-(4)]
DOCKED: USER    Estimated Inhibition Constant, Ki   =  131.62 nM (nanomolar)  [Temperature = 298.15 K]
DOCKED: USER    
DOCKED: USER    (1) Final Intermolecular Energy     =  -12.37 kcal/mol
DOCKED: USER        vdW + Hbond + desolv Energy     =  -12.37 kcal/mol
DOCKED: USER        Electrostatic Energy            =   +0.00 kcal/mol
DOCKED: USER    (2) Final Total Internal Energy     =   -3.31 kcal/mol
DOCKED: USER    (3) Torsional Free Energy           =   +2.98 kcal/mol
DOCKED: USER    (4) Unbound System's Energy  [=(2)] =   -3.31 kcal/mol
DOCKED: USER    
DOCKED: USER    
DOCKED: USER    NEWDPF move ligand.pdbqt
DOCKED: USER    NEWDPF about 0.285000 0.077000 -0.044000
DOCKED: USER    NEWDPF tran0 29.468687 -13.839528 -3.731244
DOCKED: USER    NEWDPF quaternion0 -0.407534 0.644585 0.033557 -0.645988
DOCKED: USER    NEWDPF axisangle0 -0.533877 0.844418 0.043961 -99.520378
DOCKED: USER    NEWDPF quat0 -0.533877 0.844418 0.043961 -99.520378
DOCKED: USER    NEWDPF dihe0 -63.38 -22.88 -12.61 -44.26 -99.18 177.44 126.08 -62.60 67.74 -172.89 
DOCKED: USER  keepresnum = 1 
DOCKED: USER  
DOCKED: REMARK  Name = 
DOCKED: REMARK  10 active torsions:
DOCKED: REMARK  status: ('A' for Active; 'I' for Inactive)
DOCKED: REMARK    1  A    between atoms: C_2  and  C_5
DOCKED: REMARK    2  A    between atoms: C_6  and  C_7
DOCKED: REMARK    3  A    between atoms: C_10  and  C_11
DOCKED: REMARK    4  A    between atoms: C_11  and  N_12
DOCKED: REMARK    5  A    between atoms: N_12  and  C_13
DOCKED: REMARK    6  A    between atoms: N_12  and  C_16
DOCKED: REMARK    7  A    between atoms: C_13  and  C_14
DOCKED: REMARK    8  A    between atoms: C_14  and  O_15
DOCKED: REMARK    9  A    between atoms: C_16  and  C_17
DOCKED: REMARK   10  A    between atoms: C_17  and  C_18
DOCKED: REMARK                            x       y       z     vdW  Elec       q    Type
DOCKED: REMARK                         _______ _______ _______ _____ _____    ______ ____
DOCKED: USER                              x       y       z     vdW  Elec       q    Type
DOCKED: USER                           _______ _______ _______ _____ _____    ______ ____
DOCKED: ROOT
DOCKED: ATOM      1  N   UNL     1      29.372 -13.441  -2.460 -0.05 -0.00    +0.000 N 
DOCKED: ATOM      2  H   UNL     1      28.733 -13.369  -1.668 +0.01 -0.00    +0.000 HD
DOCKED: ENDROOT
DOCKED: BRANCH   1   3
DOCKED: ATOM      3  C   UNL     1      28.767 -14.504  -3.303 -0.16 -0.00    +0.000 C 
DOCKED: BRANCH   3   7
DOCKED: ATOM      4  C   UNL     1      25.055 -16.166  -1.778 -0.49 -0.00    +0.000 A 
DOCKED: ATOM      5  C   UNL     1      25.404 -16.313  -3.129 -0.31 -0.00    +0.000 A 
DOCKED: ATOM      6  C   UNL     1      26.598 -15.781  -3.619 -0.31 -0.00    +0.000 A 
DOCKED: ATOM      7  C   UNL     1      27.460 -15.063  -2.773 -0.25 -0.00    +0.000 A 
DOCKED: ATOM      8  C   UNL     1      27.120 -14.926  -1.418 -0.26 -0.00    +0.000 A 
DOCKED: ATOM      9  C   UNL     1      25.925 -15.458  -0.926 -0.37 -0.00    +0.000 A 
DOCKED: BRANCH   4  11
DOCKED: ATOM     10  C   UNL     1      23.461 -18.042  -1.382 -0.75 -0.00    +0.000 C 
DOCKED: ATOM     11  C   UNL     1      23.769 -16.738  -1.309 -0.50 -0.00    +0.000 C 
DOCKED: BRANCH  10  13
DOCKED: ATOM     12  O   UNL     1      21.686 -18.211   0.195 -1.13 -0.00    +0.000 OA
DOCKED: ATOM     13  C   UNL     1      22.166 -18.572  -0.914 -0.83 -0.00    +0.000 C 
DOCKED: ATOM     14  N   UNL     1      21.447 -19.504  -1.724 -0.58 -0.00    +0.000 N 
DOCKED: ATOM     15  O   UNL     1      20.258 -20.000  -1.308 -2.10 -0.00    +0.000 OA
DOCKED: ATOM     16  H   UNL     1      21.819 -19.788  -2.590 -0.51 -0.00    +0.000 HD
DOCKED: ENDBRANCH  10  13
DOCKED: ENDBRANCH   4  11
DOCKED: ENDBRANCH   3   7
DOCKED: ENDBRANCH   1   3
DOCKED: BRANCH   1  17
DOCKED: ATOM     17  C   UNL     1      29.365 -12.088  -3.060 -0.04 -0.00    +0.000 C 
DOCKED: BRANCH  17  18
DOCKED: ATOM     18  C   UNL     1      27.943 -11.635  -3.421 -0.11 -0.00    +0.000 C 
DOCKED: BRANCH  18  19
DOCKED: ATOM     19  O   UNL     1      26.999 -12.234  -2.575 -0.18 -0.00    +0.000 OA
DOCKED: ATOM     20  H   UNL     1      26.342 -12.709  -3.109 -0.01 -0.00    +0.000 HD
DOCKED: ENDBRANCH  18  19
DOCKED: ENDBRANCH  17  18
DOCKED: ENDBRANCH   1  17
DOCKED: BRANCH   1  21
DOCKED: ATOM     21  C   UNL     1      30.690 -13.813  -1.893 -0.03 -0.00    +0.000 C 
DOCKED: BRANCH  21  22
DOCKED: ATOM     22  C   UNL     1      30.919 -13.100  -0.557 -0.02 -0.00    +0.000 C 
DOCKED: BRANCH  22  23
DOCKED: ATOM     23  C   UNL     1      29.933 -13.564   0.475 -0.07 -0.00    +0.000 A 
DOCKED: ATOM     24  C   UNL     1      30.148 -14.549   1.436 -0.12 -0.00    +0.000 A 
DOCKED: ATOM     25  N   UNL     1      29.099 -14.618   2.286 -0.09 -0.00    +0.000 N 
DOCKED: ATOM     26  C   UNL     1      28.230 -13.677   1.880 -0.22 -0.00    +0.000 A 
DOCKED: ATOM     27  C   UNL     1      28.704 -13.010   0.780 -0.10 -0.00    +0.000 A 
DOCKED: ATOM     28  C   UNL     1      27.993 -11.961   0.194 -0.10 -0.00    +0.000 A 
DOCKED: ATOM     29  C   UNL     1      26.759 -11.604   0.767 -0.24 +0.00    +0.000 A 
DOCKED: ATOM     30  C   UNL     1      26.270 -12.292   1.900 -0.28 +0.00    +0.000 A 
DOCKED: ATOM     31  C   UNL     1      27.012 -13.343   2.470 -0.32 -0.00    +0.000 A 
DOCKED: ATOM     32  H   UNL     1      28.994 -15.233   3.047 -1.86 -0.00    +0.000 HD
DOCKED: ENDBRANCH  22  23
DOCKED: ENDBRANCH  21  22
DOCKED: ENDBRANCH   1  21
DOCKED: TORSDOF 10
DOCKED: TER
DOCKED: ENDMDL
________________________________________________________________________________


	BEGINNING GENETIC ALGORITHM DOCKING 85 of 100
Run: 85 Seed: 1874981477 381552518 [ Run 85 of 100 GA/GALS ]
Beginning LAMARCKIAN GENETIC ALGORITHM (LGA), with a maximum of 2500000 energy evaluations.

Final-Value: -17.713


	FINAL GENETIC ALGORITHM DOCKED STATE
	_______________________________________________


Detailed state:  trans 28.830 -15.265 -2.550 quatxyzw 0.786475 -0.065937 0.352718 0.502693 center 0.285 0.077 -0.044 ntor 10 117.4410 -26.1303 7.7264 -110.7767 1.9791 -163.7623 -47.2543 134.9079 95.6691 174.4468
State:	 28.830 -15.265  -2.550   0.910 -0.076  0.408 119.643    117.44  -26.13    7.73 -110.78    1.98 -163.76  -47.25  134.91   95.67  174.45

DOCKED: MODEL       85
DOCKED: USER    Run = 85
DOCKED: USER    DPF = ligand_dock.biased.dpf
DOCKED: USER  
DOCKED: USER    Estimated Free Energy of Binding    =  -12.31 kcal/mol  [=(1)+(2)+(3)-(4)]
DOCKED: USER    Estimated Inhibition Constant, Ki   =  939.90 pM (picomolar)  [Temperature = 298.15 K]
DOCKED: USER    
DOCKED: USER    (1) Final Intermolecular Energy     =  -15.30 kcal/mol
DOCKED: USER        vdW + Hbond + desolv Energy     =  -15.30 kcal/mol
DOCKED: USER        Electrostatic Energy            =   +0.00 kcal/mol
DOCKED: USER    (2) Final Total Internal Energy     =   -2.41 kcal/mol
DOCKED: USER    (3) Torsional Free Energy           =   +2.98 kcal/mol
DOCKED: USER    (4) Unbound System's Energy  [=(2)] =   -2.41 kcal/mol
DOCKED: USER    
DOCKED: USER    
DOCKED: USER    NEWDPF move ligand.pdbqt
DOCKED: USER    NEWDPF about 0.285000 0.077000 -0.044000
DOCKED: USER    NEWDPF tran0 28.830089 -15.265078 -2.550055
DOCKED: USER    NEWDPF quaternion0 0.786475 -0.065937 0.352718 0.502693
DOCKED: USER    NEWDPF axisangle0 0.909782 -0.076275 0.408019 119.643388
DOCKED: USER    NEWDPF quat0 0.909782 -0.076275 0.408019 119.643388
DOCKED: USER    NEWDPF dihe0 117.44 -26.13 7.73 -110.78 1.98 -163.76 -47.25 134.91 95.67 174.45 
DOCKED: USER  keepresnum = 1 
DOCKED: USER  
DOCKED: REMARK  Name = 
DOCKED: REMARK  10 active torsions:
DOCKED: REMARK  status: ('A' for Active; 'I' for Inactive)
DOCKED: REMARK    1  A    between atoms: C_2  and  C_5
DOCKED: REMARK    2  A    between atoms: C_6  and  C_7
DOCKED: REMARK    3  A    between atoms: C_10  and  C_11
DOCKED: REMARK    4  A    between atoms: C_11  and  N_12
DOCKED: REMARK    5  A    between atoms: N_12  and  C_13
DOCKED: REMARK    6  A    between atoms: N_12  and  C_16
DOCKED: REMARK    7  A    between atoms: C_13  and  C_14
DOCKED: REMARK    8  A    between atoms: C_14  and  O_15
DOCKED: REMARK    9  A    between atoms: C_16  and  C_17
DOCKED: REMARK   10  A    between atoms: C_17  and  C_18
DOCKED: REMARK                            x       y       z     vdW  Elec       q    Type
DOCKED: REMARK                         _______ _______ _______ _____ _____    ______ ____
DOCKED: USER                              x       y       z     vdW  Elec       q    Type
DOCKED: USER                           _______ _______ _______ _____ _____    ______ ____
DOCKED: ROOT
DOCKED: ATOM      1  N   UNL     1      27.754 -14.569  -2.926 -0.19 -0.00    +0.000 N 
DOCKED: ATOM      2  H   UNL     1      26.776 -14.654  -3.203 -0.00 -0.00    +0.000 HD
DOCKED: ENDROOT
DOCKED: BRANCH   1   3
DOCKED: ATOM      3  C   UNL     1      28.015 -15.823  -2.172 -0.28 -0.00    +0.000 C 
DOCKED: BRANCH   3   7
DOCKED: ATOM      4  C   UNL     1      24.458 -18.111  -1.184 -0.65 -0.00    +0.000 A 
DOCKED: ATOM      5  C   UNL     1      25.706 -18.461  -0.648 -0.52 -0.00    +0.000 A 
DOCKED: ATOM      6  C   UNL     1      26.850 -17.724  -0.963 -0.42 -0.00    +0.000 A 
DOCKED: ATOM      7  C   UNL     1      26.776 -16.635  -1.847 -0.39 -0.00    +0.000 A 
DOCKED: ATOM      8  C   UNL     1      25.526 -16.273  -2.374 -0.50 -0.00    +0.000 A 
DOCKED: ATOM      9  C   UNL     1      24.380 -17.010  -2.060 -0.35 -0.00    +0.000 A 
DOCKED: BRANCH   4  11
DOCKED: ATOM     10  C   UNL     1      22.008 -18.516  -0.963 -0.82 -0.00    +0.000 C 
DOCKED: ATOM     11  C   UNL     1      23.275 -18.934  -0.828 -0.81 -0.00    +0.000 C 
DOCKED: BRANCH  10  13
DOCKED: ATOM     12  O   UNL     1      20.077 -19.812  -1.468 -2.23 -0.00    +0.000 OA
DOCKED: ATOM     13  C   UNL     1      20.858 -19.361  -0.587 -0.88 -0.00    +0.000 C 
DOCKED: ATOM     14  N   UNL     1      20.624 -19.670   0.789 -0.66 -0.00    +0.000 N 
DOCKED: ATOM     15  O   UNL     1      19.573 -20.443   1.149 -0.75 -0.00    +0.000 OA
DOCKED: ATOM     16  H   UNL     1      21.232 -19.319   1.479 -0.40 -0.00    +0.000 HD
DOCKED: ENDBRANCH  10  13
DOCKED: ENDBRANCH   4  11
DOCKED: ENDBRANCH   3   7
DOCKED: ENDBRANCH   1   3
DOCKED: BRANCH   1  17
DOCKED: ATOM     17  C   UNL     1      28.488 -14.444  -4.205 -0.23 -0.00    +0.000 C 
DOCKED: BRANCH  17  18
DOCKED: ATOM     18  C   UNL     1      27.844 -15.290  -5.313 -0.41 -0.00    +0.000 C 
DOCKED: BRANCH  18  19
DOCKED: ATOM     19  O   UNL     1      26.482 -15.498  -5.053 -1.04 +0.00    +0.000 OA
DOCKED: ATOM     20  H   UNL     1      26.036 -14.642  -4.958 -0.04 -0.00    +0.000 HD
DOCKED: ENDBRANCH  18  19
DOCKED: ENDBRANCH  17  18
DOCKED: ENDBRANCH   1  17
DOCKED: BRANCH   1  21
DOCKED: ATOM     21  C   UNL     1      27.840 -13.347  -2.091 -0.15 -0.00    +0.000 C 
DOCKED: BRANCH  21  22
DOCKED: ATOM     22  C   UNL     1      29.103 -13.379  -1.225 -0.07 -0.00    +0.000 C 
DOCKED: BRANCH  22  23
DOCKED: ATOM     23  C   UNL     1      28.760 -13.614   0.217 -0.11 -0.00    +0.000 A 
DOCKED: ATOM     24  C   UNL     1      29.111 -14.727   0.976 -0.13 -0.00    +0.000 A 
DOCKED: ATOM     25  N   UNL     1      28.756 -14.548   2.269 -0.18 -0.00    +0.000 N 
DOCKED: ATOM     26  C   UNL     1      28.198 -13.328   2.336 -0.23 -0.00    +0.000 A 
DOCKED: ATOM     27  C   UNL     1      28.185 -12.724   1.105 -0.14 -0.00    +0.000 A 
DOCKED: ATOM     28  C   UNL     1      27.685 -11.433   0.926 -0.15 +0.00    +0.000 A 
DOCKED: ATOM     29  C   UNL     1      27.185 -10.760   2.056 -0.24 +0.00    +0.000 A 
DOCKED: ATOM     30  C   UNL     1      27.198 -11.383   3.323 -0.20 +0.00    +0.000 A 
DOCKED: ATOM     31  C   UNL     1      27.712 -12.684   3.473 -0.30 -0.00    +0.000 A 
DOCKED: ATOM     32  H   UNL     1      28.882 -15.185   3.010 -1.82 -0.00    +0.000 HD
DOCKED: ENDBRANCH  22  23
DOCKED: ENDBRANCH  21  22
DOCKED: ENDBRANCH   1  21
DOCKED: TORSDOF 10
DOCKED: TER
DOCKED: ENDMDL
________________________________________________________________________________


	BEGINNING GENETIC ALGORITHM DOCKING 86 of 100
Run: 86 Seed: 1004748599 1166199491 [ Run 86 of 100 GA/GALS ]
Beginning LAMARCKIAN GENETIC ALGORITHM (LGA), with a maximum of 2500000 energy evaluations.

Final-Value: -16.992


	FINAL GENETIC ALGORITHM DOCKED STATE
	_______________________________________________


Detailed state:  trans 28.280 -16.177 -3.055 quatxyzw -0.704536 0.556247 -0.031353 -0.439585 center 0.285 0.077 -0.044 ntor 10 104.5462 -84.5904 46.5124 166.2894 -131.8458 103.1021 144.0300 -56.3461 -18.8732 -148.7931
State:	 28.280 -16.177  -3.055  -0.784  0.619 -0.035 -127.845    104.55  -84.59   46.51  166.29 -131.85  103.10  144.03  -56.35  -18.87 -148.79

DOCKED: MODEL       86
DOCKED: USER    Run = 86
DOCKED: USER    DPF = ligand_dock.biased.dpf
DOCKED: USER  
DOCKED: USER    Estimated Free Energy of Binding    =  -11.39 kcal/mol  [=(1)+(2)+(3)-(4)]
DOCKED: USER    Estimated Inhibition Constant, Ki   =    4.51 nM (nanomolar)  [Temperature = 298.15 K]
DOCKED: USER    
DOCKED: USER    (1) Final Intermolecular Energy     =  -14.37 kcal/mol
DOCKED: USER        vdW + Hbond + desolv Energy     =  -14.37 kcal/mol
DOCKED: USER        Electrostatic Energy            =   +0.00 kcal/mol
DOCKED: USER    (2) Final Total Internal Energy     =   -2.62 kcal/mol
DOCKED: USER    (3) Torsional Free Energy           =   +2.98 kcal/mol
DOCKED: USER    (4) Unbound System's Energy  [=(2)] =   -2.62 kcal/mol
DOCKED: USER    
DOCKED: USER    
DOCKED: USER    NEWDPF move ligand.pdbqt
DOCKED: USER    NEWDPF about 0.285000 0.077000 -0.044000
DOCKED: USER    NEWDPF tran0 28.279871 -16.176995 -3.054689
DOCKED: USER    NEWDPF quaternion0 -0.704536 0.556247 -0.031353 -0.439585
DOCKED: USER    NEWDPF axisangle0 -0.784386 0.619290 -0.034906 -127.845171
DOCKED: USER    NEWDPF quat0 -0.784386 0.619290 -0.034906 -127.845171
DOCKED: USER    NEWDPF dihe0 104.55 -84.59 46.51 166.29 -131.85 103.10 144.03 -56.35 -18.87 -148.79 
DOCKED: USER  keepresnum = 1 
DOCKED: USER  
DOCKED: REMARK  Name = 
DOCKED: REMARK  10 active torsions:
DOCKED: REMARK  status: ('A' for Active; 'I' for Inactive)
DOCKED: REMARK    1  A    between atoms: C_2  and  C_5
DOCKED: REMARK    2  A    between atoms: C_6  and  C_7
DOCKED: REMARK    3  A    between atoms: C_10  and  C_11
DOCKED: REMARK    4  A    between atoms: C_11  and  N_12
DOCKED: REMARK    5  A    between atoms: N_12  and  C_13
DOCKED: REMARK    6  A    between atoms: N_12  and  C_16
DOCKED: REMARK    7  A    between atoms: C_13  and  C_14
DOCKED: REMARK    8  A    between atoms: C_14  and  O_15
DOCKED: REMARK    9  A    between atoms: C_16  and  C_17
DOCKED: REMARK   10  A    between atoms: C_17  and  C_18
DOCKED: REMARK                            x       y       z     vdW  Elec       q    Type
DOCKED: REMARK                         _______ _______ _______ _____ _____    ______ ____
DOCKED: USER                              x       y       z     vdW  Elec       q    Type
DOCKED: USER                           _______ _______ _______ _____ _____    ______ ____
DOCKED: ROOT
DOCKED: ATOM      1  N   UNL     1      27.978 -15.156  -2.248 -0.20 -0.00    +0.000 N 
DOCKED: ATOM      2  H   UNL     1      27.323 -14.841  -1.532 +0.00 -0.00    +0.000 HD
DOCKED: ENDROOT
DOCKED: BRANCH   1   3
DOCKED: ATOM      3  C   UNL     1      27.866 -16.637  -2.198 -0.32 -0.00    +0.000 C 
DOCKED: BRANCH   3   7
DOCKED: ATOM      4  C   UNL     1      24.066 -18.175  -0.761 -0.71 -0.00    +0.000 A 
DOCKED: ATOM      5  C   UNL     1      24.172 -17.610  -2.040 -0.32 -0.00    +0.000 A 
DOCKED: ATOM      6  C   UNL     1      25.394 -17.117  -2.504 -0.32 -0.00    +0.000 A 
DOCKED: ATOM      7  C   UNL     1      26.535 -17.153  -1.685 -0.37 -0.00    +0.000 A 
DOCKED: ATOM      8  C   UNL     1      26.435 -17.731  -0.409 -0.54 -0.00    +0.000 A 
DOCKED: ATOM      9  C   UNL     1      25.213 -18.225   0.056 -0.58 -0.00    +0.000 A 
DOCKED: BRANCH   4  11
DOCKED: ATOM     10  C   UNL     1      21.787 -19.111  -1.143 -0.79 -0.00    +0.000 C 
DOCKED: ATOM     11  C   UNL     1      22.743 -18.673  -0.311 -0.81 -0.00    +0.000 C 
DOCKED: BRANCH  10  13
DOCKED: ATOM     12  O   UNL     1      19.509 -19.728  -1.452 -2.09 -0.00    +0.000 OA
DOCKED: ATOM     13  C   UNL     1      20.478 -19.588  -0.657 -0.87 -0.00    +0.000 C 
DOCKED: ATOM     14  N   UNL     1      20.304 -19.895   0.728 -0.69 -0.00    +0.000 N 
DOCKED: ATOM     15  O   UNL     1      19.110 -20.333   1.189 -0.77 -0.00    +0.000 OA
DOCKED: ATOM     16  H   UNL     1      21.059 -19.786   1.351 -0.50 -0.00    +0.000 HD
DOCKED: ENDBRANCH  10  13
DOCKED: ENDBRANCH   4  11
DOCKED: ENDBRANCH   3   7
DOCKED: ENDBRANCH   1   3
DOCKED: BRANCH   1  17
DOCKED: ATOM     17  C   UNL     1      27.482 -14.534  -3.496 -0.29 -0.00    +0.000 C 
DOCKED: BRANCH  17  18
DOCKED: ATOM     18  C   UNL     1      26.279 -13.618  -3.235 -0.32 -0.00    +0.000 C 
DOCKED: BRANCH  18  19
DOCKED: ATOM     19  O   UNL     1      25.497 -14.110  -2.181 -0.28 -0.00    +0.000 OA
DOCKED: ATOM     20  H   UNL     1      26.074 -14.398  -1.456 -0.01 -0.00    +0.000 HD
DOCKED: ENDBRANCH  18  19
DOCKED: ENDBRANCH  17  18
DOCKED: ENDBRANCH   1  17
DOCKED: BRANCH   1  21
DOCKED: ATOM     21  C   UNL     1      29.309 -14.649  -1.840 -0.10 -0.00    +0.000 C 
DOCKED: BRANCH  21  22
DOCKED: ATOM     22  C   UNL     1      29.169 -13.323  -1.085 -0.07 -0.00    +0.000 C 
DOCKED: BRANCH  22  23
DOCKED: ATOM     23  C   UNL     1      28.847 -13.562   0.362 -0.11 -0.00    +0.000 A 
DOCKED: ATOM     24  C   UNL     1      29.101 -14.727   1.080 -0.11 -0.00    +0.000 A 
DOCKED: ATOM     25  N   UNL     1      28.809 -14.549   2.389 -0.18 -0.00    +0.000 N 
DOCKED: ATOM     26  C   UNL     1      28.388 -13.279   2.506 -0.22 -0.00    +0.000 A 
DOCKED: ATOM     27  C   UNL     1      28.400 -12.642   1.292 -0.13 -0.00    +0.000 A 
DOCKED: ATOM     28  C   UNL     1      28.036 -11.300   1.162 -0.12 +0.00    +0.000 A 
DOCKED: ATOM     29  C   UNL     1      27.648 -10.611   2.326 -0.20 +0.00    +0.000 A 
DOCKED: ATOM     30  C   UNL     1      27.634 -11.268   3.576 -0.26 +0.00    +0.000 A 
DOCKED: ATOM     31  C   UNL     1      28.010 -12.620   3.675 -0.28 -0.00    +0.000 A 
DOCKED: ATOM     32  H   UNL     1      28.889 -15.217   3.108 -1.78 -0.00    +0.000 HD
DOCKED: ENDBRANCH  22  23
DOCKED: ENDBRANCH  21  22
DOCKED: ENDBRANCH   1  21
DOCKED: TORSDOF 10
DOCKED: TER
DOCKED: ENDMDL
________________________________________________________________________________


	BEGINNING GENETIC ALGORITHM DOCKING 87 of 100
Run: 87 Seed: 192589050 1285249065 [ Run 87 of 100 GA/GALS ]
Beginning LAMARCKIAN GENETIC ALGORITHM (LGA), with a maximum of 2500000 energy evaluations.

Final-Value: -16.933


	FINAL GENETIC ALGORITHM DOCKED STATE
	_______________________________________________


Detailed state:  trans 28.729 -15.313 -0.603 quatxyzw 0.344731 -0.240017 0.412354 0.808404 center 0.285 0.077 -0.044 ntor 10 131.1878 -43.5544 57.4728 -160.6980 29.3781 174.3973 -139.9331 -159.2426 171.5881 129.8837
State:	 28.729 -15.313  -0.603   0.586 -0.408  0.701 72.119    131.19  -43.55   57.47 -160.70   29.38  174.40 -139.93 -159.24  171.59  129.88

DOCKED: MODEL       87
DOCKED: USER    Run = 87
DOCKED: USER    DPF = ligand_dock.biased.dpf
DOCKED: USER  
DOCKED: USER    Estimated Free Energy of Binding    =  -11.72 kcal/mol  [=(1)+(2)+(3)-(4)]
DOCKED: USER    Estimated Inhibition Constant, Ki   =    2.58 nM (nanomolar)  [Temperature = 298.15 K]
DOCKED: USER    
DOCKED: USER    (1) Final Intermolecular Energy     =  -14.70 kcal/mol
DOCKED: USER        vdW + Hbond + desolv Energy     =  -14.70 kcal/mol
DOCKED: USER        Electrostatic Energy            =   +0.00 kcal/mol
DOCKED: USER    (2) Final Total Internal Energy     =   -2.23 kcal/mol
DOCKED: USER    (3) Torsional Free Energy           =   +2.98 kcal/mol
DOCKED: USER    (4) Unbound System's Energy  [=(2)] =   -2.23 kcal/mol
DOCKED: USER    
DOCKED: USER    
DOCKED: USER    NEWDPF move ligand.pdbqt
DOCKED: USER    NEWDPF about 0.285000 0.077000 -0.044000
DOCKED: USER    NEWDPF tran0 28.729221 -15.312779 -0.603054
DOCKED: USER    NEWDPF quaternion0 0.344731 -0.240017 0.412354 0.808404
DOCKED: USER    NEWDPF axisangle0 0.585651 -0.407756 0.700534 72.119479
DOCKED: USER    NEWDPF quat0 0.585651 -0.407756 0.700534 72.119479
DOCKED: USER    NEWDPF dihe0 131.19 -43.55 57.47 -160.70 29.38 174.40 -139.93 -159.24 171.59 129.88 
DOCKED: USER  keepresnum = 1 
DOCKED: USER  
DOCKED: REMARK  Name = 
DOCKED: REMARK  10 active torsions:
DOCKED: REMARK  status: ('A' for Active; 'I' for Inactive)
DOCKED: REMARK    1  A    between atoms: C_2  and  C_5
DOCKED: REMARK    2  A    between atoms: C_6  and  C_7
DOCKED: REMARK    3  A    between atoms: C_10  and  C_11
DOCKED: REMARK    4  A    between atoms: C_11  and  N_12
DOCKED: REMARK    5  A    between atoms: N_12  and  C_13
DOCKED: REMARK    6  A    between atoms: N_12  and  C_16
DOCKED: REMARK    7  A    between atoms: C_13  and  C_14
DOCKED: REMARK    8  A    between atoms: C_14  and  O_15
DOCKED: REMARK    9  A    between atoms: C_16  and  C_17
DOCKED: REMARK   10  A    between atoms: C_17  and  C_18
DOCKED: REMARK                            x       y       z     vdW  Elec       q    Type
DOCKED: REMARK                         _______ _______ _______ _____ _____    ______ ____
DOCKED: USER                              x       y       z     vdW  Elec       q    Type
DOCKED: USER                           _______ _______ _______ _____ _____    ______ ____
DOCKED: ROOT
DOCKED: ATOM      1  N   UNL     1      27.834 -14.374  -0.283 -0.19 -0.00    +0.000 N 
DOCKED: ATOM      2  H   UNL     1      26.994 -13.895  -0.609 -0.00 -0.00    +0.000 HD
DOCKED: ENDROOT
DOCKED: BRANCH   1   3
DOCKED: ATOM      3  C   UNL     1      27.832 -15.645  -1.053 -0.29 -0.00    +0.000 C 
DOCKED: BRANCH   3   7
DOCKED: ATOM      4  C   UNL     1      24.179 -17.952  -0.611 -0.68 -0.00    +0.000 A 
DOCKED: ATOM      5  C   UNL     1      25.300 -18.227   0.186 -0.51 -0.00    +0.000 A 
DOCKED: ATOM      6  C   UNL     1      26.474 -17.484   0.046 -0.47 -0.00    +0.000 A 
DOCKED: ATOM      7  C   UNL     1      26.563 -16.465  -0.917 -0.43 -0.00    +0.000 A 
DOCKED: ATOM      8  C   UNL     1      25.439 -16.179  -1.707 -0.50 -0.00    +0.000 A 
DOCKED: ATOM      9  C   UNL     1      24.263 -16.921  -1.568 -0.54 -0.00    +0.000 A 
DOCKED: BRANCH   4  11
DOCKED: ATOM     10  C   UNL     1      21.893 -18.720  -1.243 -0.69 -0.00    +0.000 C 
DOCKED: ATOM     11  C   UNL     1      22.959 -18.779  -0.432 -0.80 -0.00    +0.000 C 
DOCKED: BRANCH  10  13
DOCKED: ATOM     12  O   UNL     1      19.862 -19.737  -1.956 -2.36 -0.00    +0.000 OA
DOCKED: ATOM     13  C   UNL     1      20.693 -19.552  -1.026 -0.86 -0.00    +0.000 C 
DOCKED: ATOM     14  N   UNL     1      20.468 -20.152   0.252 -0.70 -0.00    +0.000 N 
DOCKED: ATOM     15  O   UNL     1      19.372 -20.917   0.467 -0.90 -0.00    +0.000 OA
DOCKED: ATOM     16  H   UNL     1      21.115 -20.009   0.980 -0.51 -0.00    +0.000 HD
DOCKED: ENDBRANCH  10  13
DOCKED: ENDBRANCH   4  11
DOCKED: ENDBRANCH   3   7
DOCKED: ENDBRANCH   1   3
DOCKED: BRANCH   1  17
DOCKED: ATOM     17  C   UNL     1      28.938 -13.445  -0.613 -0.09 -0.00    +0.000 C 
DOCKED: BRANCH  17  18
DOCKED: ATOM     18  C   UNL     1      28.417 -12.042  -0.953 -0.08 -0.00    +0.000 C 
DOCKED: BRANCH  18  19
DOCKED: ATOM     19  O   UNL     1      27.042 -11.945  -0.695 -0.18 -0.00    +0.000 OA
DOCKED: ATOM     20  H   UNL     1      26.892 -11.955   0.263 -0.00 -0.00    +0.000 HD
DOCKED: ENDBRANCH  18  19
DOCKED: ENDBRANCH  17  18
DOCKED: ENDBRANCH   1  17
DOCKED: BRANCH   1  21
DOCKED: ATOM     21  C   UNL     1      27.658 -14.566   1.176 -0.28 -0.00    +0.000 C 
DOCKED: BRANCH  21  22
DOCKED: ATOM     22  C   UNL     1      28.937 -14.179   1.925 -0.21 -0.00    +0.000 C 
DOCKED: BRANCH  22  23
DOCKED: ATOM     23  C   UNL     1      28.644 -13.877   3.365 -0.31 -0.00    +0.000 A 
DOCKED: ATOM     24  C   UNL     1      28.721 -14.775   4.427 -0.44 -0.00    +0.000 A 
DOCKED: ATOM     25  N   UNL     1      28.524 -14.135   5.602 -0.48 -0.00    +0.000 N 
DOCKED: ATOM     26  C   UNL     1      28.338 -12.840   5.294 -0.39 -0.00    +0.000 A 
DOCKED: ATOM     27  C   UNL     1      28.408 -12.642   3.939 -0.26 -0.00    +0.000 A 
DOCKED: ATOM     28  C   UNL     1      28.281 -11.370   3.375 -0.19 +0.00    +0.000 A 
DOCKED: ATOM     29  C   UNL     1      28.072 -10.286   4.246 -0.24 +0.00    +0.000 A 
DOCKED: ATOM     30  C   UNL     1      27.999 -10.491   5.641 -0.33 +0.00    +0.000 A 
DOCKED: ATOM     31  C   UNL     1      28.135 -11.783   6.180 -0.33 +0.00    +0.000 A 
DOCKED: ATOM     32  H   UNL     1      28.518 -14.538   6.500 -0.42 -0.00    +0.000 HD
DOCKED: ENDBRANCH  22  23
DOCKED: ENDBRANCH  21  22
DOCKED: ENDBRANCH   1  21
DOCKED: TORSDOF 10
DOCKED: TER
DOCKED: ENDMDL
________________________________________________________________________________


	BEGINNING GENETIC ALGORITHM DOCKING 88 of 100
Run: 88 Seed: 1904843855 925719647 [ Run 88 of 100 GA/GALS ]
Beginning LAMARCKIAN GENETIC ALGORITHM (LGA), with a maximum of 2500000 energy evaluations.

Final-Value: -17.409


	FINAL GENETIC ALGORITHM DOCKED STATE
	_______________________________________________


Detailed state:  trans 27.698 -15.329 -1.595 quatxyzw 0.423514 -0.570349 -0.625159 0.323286 center 0.285 0.077 -0.044 ntor 10 -80.5433 -42.3890 66.5774 -159.2937 19.0072 152.4761 159.9679 123.6272 -154.7648 -91.4945
State:	 27.698 -15.329  -1.595   0.448 -0.603 -0.661 142.276    -80.54  -42.39   66.58 -159.29   19.01  152.48  159.97  123.63 -154.76  -91.49

DOCKED: MODEL       88
DOCKED: USER    Run = 88
DOCKED: USER    DPF = ligand_dock.biased.dpf
DOCKED: USER  
DOCKED: USER    Estimated Free Energy of Binding    =  -11.81 kcal/mol  [=(1)+(2)+(3)-(4)]
DOCKED: USER    Estimated Inhibition Constant, Ki   =    2.21 nM (nanomolar)  [Temperature = 298.15 K]
DOCKED: USER    
DOCKED: USER    (1) Final Intermolecular Energy     =  -14.79 kcal/mol
DOCKED: USER        vdW + Hbond + desolv Energy     =  -14.79 kcal/mol
DOCKED: USER        Electrostatic Energy            =   +0.00 kcal/mol
DOCKED: USER    (2) Final Total Internal Energy     =   -2.62 kcal/mol
DOCKED: USER    (3) Torsional Free Energy           =   +2.98 kcal/mol
DOCKED: USER    (4) Unbound System's Energy  [=(2)] =   -2.62 kcal/mol
DOCKED: USER    
DOCKED: USER    
DOCKED: USER    NEWDPF move ligand.pdbqt
DOCKED: USER    NEWDPF about 0.285000 0.077000 -0.044000
DOCKED: USER    NEWDPF tran0 27.697513 -15.328505 -1.595080
DOCKED: USER    NEWDPF quaternion0 0.423514 -0.570349 -0.625159 0.323286
DOCKED: USER    NEWDPF axisangle0 0.447546 -0.602714 -0.660635 142.276445
DOCKED: USER    NEWDPF quat0 0.447546 -0.602714 -0.660635 142.276445
DOCKED: USER    NEWDPF dihe0 -80.54 -42.39 66.58 -159.29 19.01 152.48 159.97 123.63 -154.76 -91.49 
DOCKED: USER  keepresnum = 1 
DOCKED: USER  
DOCKED: REMARK  Name = 
DOCKED: REMARK  10 active torsions:
DOCKED: REMARK  status: ('A' for Active; 'I' for Inactive)
DOCKED: REMARK    1  A    between atoms: C_2  and  C_5
DOCKED: REMARK    2  A    between atoms: C_6  and  C_7
DOCKED: REMARK    3  A    between atoms: C_10  and  C_11
DOCKED: REMARK    4  A    between atoms: C_11  and  N_12
DOCKED: REMARK    5  A    between atoms: N_12  and  C_13
DOCKED: REMARK    6  A    between atoms: N_12  and  C_16
DOCKED: REMARK    7  A    between atoms: C_13  and  C_14
DOCKED: REMARK    8  A    between atoms: C_14  and  O_15
DOCKED: REMARK    9  A    between atoms: C_16  and  C_17
DOCKED: REMARK   10  A    between atoms: C_17  and  C_18
DOCKED: REMARK                            x       y       z     vdW  Elec       q    Type
DOCKED: REMARK                         _______ _______ _______ _____ _____    ______ ____
DOCKED: USER                              x       y       z     vdW  Elec       q    Type
DOCKED: USER                           _______ _______ _______ _____ _____    ______ ____
DOCKED: ROOT
DOCKED: ATOM      1  N   UNL     1      28.530 -15.242  -0.554 -0.19 -0.00    +0.000 N 
DOCKED: ATOM      2  H   UNL     1      28.958 -15.776   0.202 -0.15 -0.00    +0.000 HD
DOCKED: ENDROOT
DOCKED: BRANCH   1   3
DOCKED: ATOM      3  C   UNL     1      28.154 -16.281  -1.547 -0.32 -0.00    +0.000 C 
DOCKED: BRANCH   3   7
DOCKED: ATOM      4  C   UNL     1      24.338 -18.186  -0.726 -0.70 -0.00    +0.000 A 
DOCKED: ATOM      5  C   UNL     1      25.401 -18.292   0.183 -0.49 -0.00    +0.000 A 
DOCKED: ATOM      6  C   UNL     1      26.628 -17.677  -0.080 -0.50 -0.00    +0.000 A 
DOCKED: ATOM      7  C   UNL     1      26.828 -16.965  -1.274 -0.43 -0.00    +0.000 A 
DOCKED: ATOM      8  C   UNL     1      25.761 -16.846  -2.179 -0.45 -0.00    +0.000 A 
DOCKED: ATOM      9  C   UNL     1      24.533 -17.459  -1.917 -0.54 -0.00    +0.000 A 
DOCKED: BRANCH   4  11
DOCKED: ATOM     10  C   UNL     1      21.967 -18.807  -1.183 -0.76 -0.00    +0.000 C 
DOCKED: ATOM     11  C   UNL     1      23.059 -18.867  -0.407 -0.78 -0.00    +0.000 C 
DOCKED: BRANCH  10  13
DOCKED: ATOM     12  O   UNL     1      19.835 -19.730  -1.703 -2.32 -0.00    +0.000 OA
DOCKED: ATOM     13  C   UNL     1      20.708 -19.490  -0.825 -0.87 -0.00    +0.000 C 
DOCKED: ATOM     14  N   UNL     1      20.475 -19.884   0.529 -0.69 -0.00    +0.000 N 
DOCKED: ATOM     15  O   UNL     1      19.326 -20.511   0.873 -0.80 -0.00    +0.000 OA
DOCKED: ATOM     16  H   UNL     1      21.155 -19.698   1.216 -0.47 -0.00    +0.000 HD
DOCKED: ENDBRANCH  10  13
DOCKED: ENDBRANCH   4  11
DOCKED: ENDBRANCH   3   7
DOCKED: ENDBRANCH   1   3
DOCKED: BRANCH   1  17
DOCKED: ATOM     17  C   UNL     1      27.391 -14.547   0.086 -0.29 -0.00    +0.000 C 
DOCKED: BRANCH  17  18
DOCKED: ATOM     18  C   UNL     1      27.601 -14.386   1.598 -0.27 -0.00    +0.000 C 
DOCKED: BRANCH  18  19
DOCKED: ATOM     19  O   UNL     1      28.904 -14.753   1.962 -0.19 -0.00    +0.000 OA
DOCKED: ATOM     20  H   UNL     1      28.882 -15.226   2.809 -1.93 -0.00    +0.000 HD
DOCKED: ENDBRANCH  18  19
DOCKED: ENDBRANCH  17  18
DOCKED: ENDBRANCH   1  17
DOCKED: BRANCH   1  21
DOCKED: ATOM     21  C   UNL     1      29.575 -14.309  -1.040 -0.08 -0.00    +0.000 C 
DOCKED: BRANCH  21  22
DOCKED: ATOM     22  C   UNL     1      29.397 -14.040  -2.538 -0.08 -0.00    +0.000 C 
DOCKED: BRANCH  22  23
DOCKED: ATOM     23  C   UNL     1      28.684 -12.739  -2.768 -0.07 -0.00    +0.000 A 
DOCKED: ATOM     24  C   UNL     1      29.208 -11.466  -2.562 -0.03 -0.00    +0.000 A 
DOCKED: ATOM     25  N   UNL     1      28.343 -10.522  -2.998 -0.05 -0.00    +0.000 N 
DOCKED: ATOM     26  C   UNL     1      27.285 -11.188  -3.491 -0.12 -0.00    +0.000 A 
DOCKED: ATOM     27  C   UNL     1      27.456 -12.543  -3.372 -0.15 -0.00    +0.000 A 
DOCKED: ATOM     28  C   UNL     1      26.505 -13.448  -3.846 -0.31 -0.00    +0.000 A 
DOCKED: ATOM     29  C   UNL     1      25.348 -12.925  -4.453 -0.29 -0.00    +0.000 A 
DOCKED: ATOM     30  C   UNL     1      25.172 -11.530  -4.574 -0.28 -0.00    +0.000 A 
DOCKED: ATOM     31  C   UNL     1      26.150 -10.642  -4.090 -0.20 -0.00    +0.000 A 
DOCKED: ATOM     32  H   UNL     1      28.465  -9.546  -2.961 +0.00 -0.00    +0.000 HD
DOCKED: ENDBRANCH  22  23
DOCKED: ENDBRANCH  21  22
DOCKED: ENDBRANCH   1  21
DOCKED: TORSDOF 10
DOCKED: TER
DOCKED: ENDMDL
________________________________________________________________________________


	BEGINNING GENETIC ALGORITHM DOCKING 89 of 100
Run: 89 Seed: 416069646 1549432297 [ Run 89 of 100 GA/GALS ]
Beginning LAMARCKIAN GENETIC ALGORITHM (LGA), with a maximum of 2500000 energy evaluations.

Final-Value: -16.828


	FINAL GENETIC ALGORITHM DOCKED STATE
	_______________________________________________


Detailed state:  trans 28.095 -15.148 0.114 quatxyzw 0.446864 -0.435610 -0.767804 0.145027 center 0.285 0.077 -0.044 ntor 10 168.5213 180.0000 76.9224 -76.4253 -151.0913 136.1002 158.0437 71.4416 171.5865 -36.2871
State:	 28.095 -15.148   0.114   0.452 -0.440 -0.776 163.322    168.52  180.00   76.92  -76.43 -151.09  136.10  158.04   71.44  171.59  -36.29

DOCKED: MODEL       89
DOCKED: USER    Run = 89
DOCKED: USER    DPF = ligand_dock.biased.dpf
DOCKED: USER  
DOCKED: USER    Estimated Free Energy of Binding    =  -11.67 kcal/mol  [=(1)+(2)+(3)-(4)]
DOCKED: USER    Estimated Inhibition Constant, Ki   =    2.81 nM (nanomolar)  [Temperature = 298.15 K]
DOCKED: USER    
DOCKED: USER    (1) Final Intermolecular Energy     =  -14.65 kcal/mol
DOCKED: USER        vdW + Hbond + desolv Energy     =  -14.65 kcal/mol
DOCKED: USER        Electrostatic Energy            =   +0.00 kcal/mol
DOCKED: USER    (2) Final Total Internal Energy     =   -2.18 kcal/mol
DOCKED: USER    (3) Torsional Free Energy           =   +2.98 kcal/mol
DOCKED: USER    (4) Unbound System's Energy  [=(2)] =   -2.18 kcal/mol
DOCKED: USER    
DOCKED: USER    
DOCKED: USER    NEWDPF move ligand.pdbqt
DOCKED: USER    NEWDPF about 0.285000 0.077000 -0.044000
DOCKED: USER    NEWDPF tran0 28.094659 -15.147902 0.114033
DOCKED: USER    NEWDPF quaternion0 0.446864 -0.435610 -0.767804 0.145027
DOCKED: USER    NEWDPF axisangle0 0.451639 -0.440265 -0.776008 163.322286
DOCKED: USER    NEWDPF quat0 0.451639 -0.440265 -0.776008 163.322286
DOCKED: USER    NEWDPF dihe0 168.52 180.00 76.92 -76.43 -151.09 136.10 158.04 71.44 171.59 -36.29 
DOCKED: USER  keepresnum = 1 
DOCKED: USER  
DOCKED: REMARK  Name = 
DOCKED: REMARK  10 active torsions:
DOCKED: REMARK  status: ('A' for Active; 'I' for Inactive)
DOCKED: REMARK    1  A    between atoms: C_2  and  C_5
DOCKED: REMARK    2  A    between atoms: C_6  and  C_7
DOCKED: REMARK    3  A    between atoms: C_10  and  C_11
DOCKED: REMARK    4  A    between atoms: C_11  and  N_12
DOCKED: REMARK    5  A    between atoms: N_12  and  C_13
DOCKED: REMARK    6  A    between atoms: N_12  and  C_16
DOCKED: REMARK    7  A    between atoms: C_13  and  C_14
DOCKED: REMARK    8  A    between atoms: C_14  and  O_15
DOCKED: REMARK    9  A    between atoms: C_16  and  C_17
DOCKED: REMARK   10  A    between atoms: C_17  and  C_18
DOCKED: REMARK                            x       y       z     vdW  Elec       q    Type
DOCKED: REMARK                         _______ _______ _______ _____ _____    ______ ____
DOCKED: USER                              x       y       z     vdW  Elec       q    Type
DOCKED: USER                           _______ _______ _______ _____ _____    ______ ____
DOCKED: ROOT
DOCKED: ATOM      1  N   UNL     1      29.034 -14.807   1.001 -0.18 -0.00    +0.000 N 
DOCKED: ATOM      2  H   UNL     1      29.814 -15.168   1.550 -0.83 -0.00    +0.000 HD
DOCKED: ENDROOT
DOCKED: BRANCH   1   3
DOCKED: ATOM      3  C   UNL     1      28.908 -15.786  -0.111 -0.21 -0.00    +0.000 C 
DOCKED: BRANCH   3   7
DOCKED: ATOM      4  C   UNL     1      24.799 -16.808  -1.079 -0.57 -0.00    +0.000 A 
DOCKED: ATOM      5  C   UNL     1      25.553 -17.615  -0.215 -0.53 -0.00    +0.000 A 
DOCKED: ATOM      6  C   UNL     1      26.873 -17.286   0.099 -0.39 -0.00    +0.000 A 
DOCKED: ATOM      7  C   UNL     1      27.480 -16.153  -0.469 -0.33 -0.00    +0.000 A 
DOCKED: ATOM      8  C   UNL     1      26.724 -15.336  -1.323 -0.32 -0.00    +0.000 A 
DOCKED: ATOM      9  C   UNL     1      25.402 -15.664  -1.638 -0.41 -0.00    +0.000 A 
DOCKED: BRANCH   4  11
DOCKED: ATOM     10  C   UNL     1      22.761 -18.211  -0.776 -0.83 -0.00    +0.000 C 
DOCKED: ATOM     11  C   UNL     1      23.404 -17.208  -1.391 -0.53 -0.00    +0.000 C 
DOCKED: BRANCH  10  13
DOCKED: ATOM     12  O   UNL     1      20.402 -17.903  -0.706 -2.26 +0.00    +0.000 OA
DOCKED: ATOM     13  C   UNL     1      21.376 -18.587  -1.122 -0.72 -0.00    +0.000 C 
DOCKED: ATOM     14  N   UNL     1      21.134 -19.737  -1.936 -0.51 -0.00    +0.000 N 
DOCKED: ATOM     15  O   UNL     1      19.870 -20.094  -2.261 -2.12 -0.00    +0.000 OA
DOCKED: ATOM     16  H   UNL     1      21.893 -20.273  -2.262 -0.53 -0.00    +0.000 HD
DOCKED: ENDBRANCH  10  13
DOCKED: ENDBRANCH   4  11
DOCKED: ENDBRANCH   3   7
DOCKED: ENDBRANCH   1   3
DOCKED: BRANCH   1  17
DOCKED: ATOM     17  C   UNL     1      27.896 -14.786   1.947 -0.07 -0.00    +0.000 C 
DOCKED: BRANCH  17  18
DOCKED: ATOM     18  C   UNL     1      28.353 -14.462   3.376 -0.39 -0.00    +0.000 C 
DOCKED: BRANCH  18  19
DOCKED: ATOM     19  O   UNL     1      27.863 -15.411   4.284 -0.64 -0.00    +0.000 OA
DOCKED: ATOM     20  H   UNL     1      28.591 -15.977   4.585 -0.54 -0.00    +0.000 HD
DOCKED: ENDBRANCH  18  19
DOCKED: ENDBRANCH  17  18
DOCKED: ENDBRANCH   1  17
DOCKED: BRANCH   1  21
DOCKED: ATOM     21  C   UNL     1      29.438 -13.453   0.554 -0.10 -0.00    +0.000 C 
DOCKED: BRANCH  21  22
DOCKED: ATOM     22  C   UNL     1      30.015 -13.507  -0.864 -0.04 -0.00    +0.000 C 
DOCKED: BRANCH  22  23
DOCKED: ATOM     23  C   UNL     1      28.971 -13.150  -1.882 -0.05 -0.00    +0.000 A 
DOCKED: ATOM     24  C   UNL     1      28.209 -11.985  -1.906 -0.08 -0.00    +0.000 A 
DOCKED: ATOM     25  N   UNL     1      27.466 -11.930  -3.035 -0.13 -0.00    +0.000 N 
DOCKED: ATOM     26  C   UNL     1      27.763 -13.041  -3.730 -0.16 -0.00    +0.000 A 
DOCKED: ATOM     27  C   UNL     1      28.680 -13.810  -3.061 -0.10 -0.00    +0.000 A 
DOCKED: ATOM     28  C   UNL     1      29.173 -15.000  -3.600 -0.15 -0.00    +0.000 A 
DOCKED: ATOM     29  C   UNL     1      28.694 -15.397  -4.861 -0.30 -0.00    +0.000 A 
DOCKED: ATOM     30  C   UNL     1      27.748 -14.605  -5.549 -0.36 -0.00    +0.000 A 
DOCKED: ATOM     31  C   UNL     1      27.273 -13.408  -4.982 -0.26 -0.00    +0.000 A 
DOCKED: ATOM     32  H   UNL     1      26.835 -11.219  -3.293 -0.00 -0.00    +0.000 HD
DOCKED: ENDBRANCH  22  23
DOCKED: ENDBRANCH  21  22
DOCKED: ENDBRANCH   1  21
DOCKED: TORSDOF 10
DOCKED: TER
DOCKED: ENDMDL
________________________________________________________________________________


	BEGINNING GENETIC ALGORITHM DOCKING 90 of 100
Run: 90 Seed: 1812464097 406018615 [ Run 90 of 100 GA/GALS ]
Beginning LAMARCKIAN GENETIC ALGORITHM (LGA), with a maximum of 2500000 energy evaluations.

Final-Value: -16.725


	FINAL GENETIC ALGORITHM DOCKED STATE
	_______________________________________________


Detailed state:  trans 28.596 -15.165 -0.419 quatxyzw 0.647588 0.173411 0.563424 0.482817 center 0.285 0.077 -0.044 ntor 10 -7.5242 -25.7384 3.8786 -42.9492 -83.2512 128.4877 -170.6114 85.7738 81.0996 159.8630
State:	 28.596 -15.165  -0.419   0.739  0.198  0.643 122.261     -7.52  -25.74    3.88  -42.95  -83.25  128.49 -170.61   85.77   81.10  159.86

DOCKED: MODEL       90
DOCKED: USER    Run = 90
DOCKED: USER    DPF = ligand_dock.biased.dpf
DOCKED: USER  
DOCKED: USER    Estimated Free Energy of Binding    =  -11.48 kcal/mol  [=(1)+(2)+(3)-(4)]
DOCKED: USER    Estimated Inhibition Constant, Ki   =    3.86 nM (nanomolar)  [Temperature = 298.15 K]
DOCKED: USER    
DOCKED: USER    (1) Final Intermolecular Energy     =  -14.46 kcal/mol
DOCKED: USER        vdW + Hbond + desolv Energy     =  -14.46 kcal/mol
DOCKED: USER        Electrostatic Energy            =   +0.00 kcal/mol
DOCKED: USER    (2) Final Total Internal Energy     =   -2.26 kcal/mol
DOCKED: USER    (3) Torsional Free Energy           =   +2.98 kcal/mol
DOCKED: USER    (4) Unbound System's Energy  [=(2)] =   -2.26 kcal/mol
DOCKED: USER    
DOCKED: USER    
DOCKED: USER    NEWDPF move ligand.pdbqt
DOCKED: USER    NEWDPF about 0.285000 0.077000 -0.044000
DOCKED: USER    NEWDPF tran0 28.596075 -15.164503 -0.418534
DOCKED: USER    NEWDPF quaternion0 0.647588 0.173411 0.563424 0.482817
DOCKED: USER    NEWDPF axisangle0 0.739491 0.198020 0.643383 122.260857
DOCKED: USER    NEWDPF quat0 0.739491 0.198020 0.643383 122.260857
DOCKED: USER    NEWDPF dihe0 -7.52 -25.74 3.88 -42.95 -83.25 128.49 -170.61 85.77 81.10 159.86 
DOCKED: USER  keepresnum = 1 
DOCKED: USER  
DOCKED: REMARK  Name = 
DOCKED: REMARK  10 active torsions:
DOCKED: REMARK  status: ('A' for Active; 'I' for Inactive)
DOCKED: REMARK    1  A    between atoms: C_2  and  C_5
DOCKED: REMARK    2  A    between atoms: C_6  and  C_7
DOCKED: REMARK    3  A    between atoms: C_10  and  C_11
DOCKED: REMARK    4  A    between atoms: C_11  and  N_12
DOCKED: REMARK    5  A    between atoms: N_12  and  C_13
DOCKED: REMARK    6  A    between atoms: N_12  and  C_16
DOCKED: REMARK    7  A    between atoms: C_13  and  C_14
DOCKED: REMARK    8  A    between atoms: C_14  and  O_15
DOCKED: REMARK    9  A    between atoms: C_16  and  C_17
DOCKED: REMARK   10  A    between atoms: C_17  and  C_18
DOCKED: REMARK                            x       y       z     vdW  Elec       q    Type
DOCKED: REMARK                         _______ _______ _______ _____ _____    ______ ____
DOCKED: USER                              x       y       z     vdW  Elec       q    Type
DOCKED: USER                           _______ _______ _______ _____ _____    ______ ____
DOCKED: ROOT
DOCKED: ATOM      1  N   UNL     1      27.940 -14.657  -1.466 -0.17 -0.00    +0.000 N 
DOCKED: ATOM      2  H   UNL     1      27.372 -14.902  -2.277 +0.00 -0.00    +0.000 HD
DOCKED: ENDROOT
DOCKED: BRANCH   1   3
DOCKED: ATOM      3  C   UNL     1      27.783 -15.826  -0.562 -0.33 -0.00    +0.000 C 
DOCKED: BRANCH   3   7
DOCKED: ATOM      4  C   UNL     1      24.089 -18.050  -1.083 -0.70 -0.00    +0.000 A 
DOCKED: ATOM      5  C   UNL     1      25.085 -18.510  -0.209 -0.52 -0.00    +0.000 A 
DOCKED: ATOM      6  C   UNL     1      26.272 -17.794  -0.039 -0.54 -0.00    +0.000 A 
DOCKED: ATOM      7  C   UNL     1      26.503 -16.613  -0.763 -0.45 -0.00    +0.000 A 
DOCKED: ATOM      8  C   UNL     1      25.503 -16.142  -1.628 -0.49 -0.00    +0.000 A 
DOCKED: ATOM      9  C   UNL     1      24.314 -16.857  -1.799 -0.49 -0.00    +0.000 A 
DOCKED: BRANCH   4  11
DOCKED: ATOM     10  C   UNL     1      21.867 -18.889  -0.329 -0.83 -0.00    +0.000 C 
DOCKED: ATOM     11  C   UNL     1      22.851 -18.853  -1.238 -0.79 -0.00    +0.000 C 
DOCKED: BRANCH  10  13
DOCKED: ATOM     12  O   UNL     1      20.059 -19.736  -1.626 -2.32 -0.00    +0.000 OA
DOCKED: ATOM     13  C   UNL     1      20.654 -19.711  -0.514 -0.85 -0.00    +0.000 C 
DOCKED: ATOM     14  N   UNL     1      20.148 -20.484   0.576 -0.69 -0.00    +0.000 N 
DOCKED: ATOM     15  O   UNL     1      19.037 -21.242   0.421 -0.80 -0.00    +0.000 OA
DOCKED: ATOM     16  H   UNL     1      20.610 -20.466   1.445 -0.51 -0.00    +0.000 HD
DOCKED: ENDBRANCH  10  13
DOCKED: ENDBRANCH   4  11
DOCKED: ENDBRANCH   3   7
DOCKED: ENDBRANCH   1   3
DOCKED: BRANCH   1  17
DOCKED: ATOM     17  C   UNL     1      29.302 -14.471  -2.016 -0.10 -0.00    +0.000 C 
DOCKED: BRANCH  17  18
DOCKED: ATOM     18  C   UNL     1      29.623 -15.509  -3.100 -0.16 -0.00    +0.000 C 
DOCKED: BRANCH  18  19
DOCKED: ATOM     19  O   UNL     1      28.449 -15.975  -3.707 -0.32 -0.00    +0.000 OA
DOCKED: ATOM     20  H   UNL     1      27.941 -16.499  -3.069 -0.02 -0.00    +0.000 HD
DOCKED: ENDBRANCH  18  19
DOCKED: ENDBRANCH  17  18
DOCKED: ENDBRANCH   1  17
DOCKED: BRANCH   1  21
DOCKED: ATOM     21  C   UNL     1      27.362 -13.406  -0.922 -0.20 -0.00    +0.000 C 
DOCKED: BRANCH  21  22
DOCKED: ATOM     22  C   UNL     1      26.692 -13.669   0.431 -0.32 -0.00    +0.000 C 
DOCKED: BRANCH  22  23
DOCKED: ATOM     23  C   UNL     1      27.186 -12.705   1.470 -0.25 -0.00    +0.000 A 
DOCKED: ATOM     24  C   UNL     1      27.299 -11.325   1.325 -0.21 +0.00    +0.000 A 
DOCKED: ATOM     25  N   UNL     1      27.647 -10.753   2.500 -0.22 +0.00    +0.000 N 
DOCKED: ATOM     26  C   UNL     1      27.740 -11.757   3.389 -0.26 +0.00    +0.000 A 
DOCKED: ATOM     27  C   UNL     1      27.463 -12.963   2.799 -0.30 -0.00    +0.000 A 
DOCKED: ATOM     28  C   UNL     1      27.461 -14.154   3.529 -0.39 -0.00    +0.000 A 
DOCKED: ATOM     29  C   UNL     1      27.759 -14.082   4.901 -0.52 -0.00    +0.000 A 
DOCKED: ATOM     30  C   UNL     1      28.046 -12.840   5.508 -0.42 -0.00    +0.000 A 
DOCKED: ATOM     31  C   UNL     1      28.036 -11.656   4.747 -0.32 +0.00    +0.000 A 
DOCKED: ATOM     32  H   UNL     1      27.800  -9.795   2.669 -0.01 +0.00    +0.000 HD
DOCKED: ENDBRANCH  22  23
DOCKED: ENDBRANCH  21  22
DOCKED: ENDBRANCH   1  21
DOCKED: TORSDOF 10
DOCKED: TER
DOCKED: ENDMDL
________________________________________________________________________________


	BEGINNING GENETIC ALGORITHM DOCKING 91 of 100
Run: 91 Seed: 208183990 1555273360 [ Run 91 of 100 GA/GALS ]
Beginning LAMARCKIAN GENETIC ALGORITHM (LGA), with a maximum of 2500000 energy evaluations.

Final-Value: -16.536


	FINAL GENETIC ALGORITHM DOCKED STATE
	_______________________________________________


Detailed state:  trans 28.781 -15.625 -0.351 quatxyzw -0.502750 -0.716213 -0.409458 0.258117 center 0.285 0.077 -0.044 ntor 10 68.5321 -91.2129 94.1909 24.4011 75.2365 180.0000 -117.1551 150.2544 141.5386 132.6131
State:	 28.781 -15.625  -0.351  -0.520 -0.741 -0.424 150.083     68.53  -91.21   94.19   24.40   75.24  180.00 -117.16  150.25  141.54  132.61

DOCKED: MODEL       91
DOCKED: USER    Run = 91
DOCKED: USER    DPF = ligand_dock.biased.dpf
DOCKED: USER  
DOCKED: USER    Estimated Free Energy of Binding    =  -11.41 kcal/mol  [=(1)+(2)+(3)-(4)]
DOCKED: USER    Estimated Inhibition Constant, Ki   =    4.36 nM (nanomolar)  [Temperature = 298.15 K]
DOCKED: USER    
DOCKED: USER    (1) Final Intermolecular Energy     =  -14.39 kcal/mol
DOCKED: USER        vdW + Hbond + desolv Energy     =  -14.39 kcal/mol
DOCKED: USER        Electrostatic Energy            =   +0.00 kcal/mol
DOCKED: USER    (2) Final Total Internal Energy     =   -2.15 kcal/mol
DOCKED: USER    (3) Torsional Free Energy           =   +2.98 kcal/mol
DOCKED: USER    (4) Unbound System's Energy  [=(2)] =   -2.15 kcal/mol
DOCKED: USER    
DOCKED: USER    
DOCKED: USER    NEWDPF move ligand.pdbqt
DOCKED: USER    NEWDPF about 0.285000 0.077000 -0.044000
DOCKED: USER    NEWDPF tran0 28.781166 -15.624604 -0.350789
DOCKED: USER    NEWDPF quaternion0 -0.502750 -0.716213 -0.409458 0.258117
DOCKED: USER    NEWDPF axisangle0 -0.520384 -0.741334 -0.423820 150.083275
DOCKED: USER    NEWDPF quat0 -0.520384 -0.741334 -0.423820 150.083275
DOCKED: USER    NEWDPF dihe0 68.53 -91.21 94.19 24.40 75.24 180.00 -117.16 150.25 141.54 132.61 
DOCKED: USER  keepresnum = 1 
DOCKED: USER  
DOCKED: REMARK  Name = 
DOCKED: REMARK  10 active torsions:
DOCKED: REMARK  status: ('A' for Active; 'I' for Inactive)
DOCKED: REMARK    1  A    between atoms: C_2  and  C_5
DOCKED: REMARK    2  A    between atoms: C_6  and  C_7
DOCKED: REMARK    3  A    between atoms: C_10  and  C_11
DOCKED: REMARK    4  A    between atoms: C_11  and  N_12
DOCKED: REMARK    5  A    between atoms: N_12  and  C_13
DOCKED: REMARK    6  A    between atoms: N_12  and  C_16
DOCKED: REMARK    7  A    between atoms: C_13  and  C_14
DOCKED: REMARK    8  A    between atoms: C_14  and  O_15
DOCKED: REMARK    9  A    between atoms: C_16  and  C_17
DOCKED: REMARK   10  A    between atoms: C_17  and  C_18
DOCKED: REMARK                            x       y       z     vdW  Elec       q    Type
DOCKED: REMARK                         _______ _______ _______ _____ _____    ______ ____
DOCKED: USER                              x       y       z     vdW  Elec       q    Type
DOCKED: USER                           _______ _______ _______ _____ _____    ______ ____
DOCKED: ROOT
DOCKED: ATOM      1  N   UNL     1      29.057 -16.903  -0.623 -0.26 -0.00    +0.000 N 
DOCKED: ATOM      2  H   UNL     1      28.897 -17.862  -0.314 -0.50 -0.00    +0.000 HD
DOCKED: ENDROOT
DOCKED: BRANCH   1   3
DOCKED: ATOM      3  C   UNL     1      27.921 -16.150  -0.030 -0.31 -0.00    +0.000 C 
DOCKED: BRANCH   3   7
DOCKED: ATOM      4  C   UNL     1      24.021 -17.819  -0.961 -0.69 -0.00    +0.000 A 
DOCKED: ATOM      5  C   UNL     1      24.309 -16.475  -1.240 -0.42 -0.00    +0.000 A 
DOCKED: ATOM      6  C   UNL     1      25.564 -15.938  -0.943 -0.42 -0.00    +0.000 A 
DOCKED: ATOM      7  C   UNL     1      26.552 -16.729  -0.333 -0.44 -0.00    +0.000 A 
DOCKED: ATOM      8  C   UNL     1      26.271 -18.078  -0.066 -0.57 -0.00    +0.000 A 
DOCKED: ATOM      9  C   UNL     1      25.016 -18.616  -0.362 -0.54 -0.00    +0.000 A 
DOCKED: BRANCH   4  11
DOCKED: ATOM     10  C   UNL     1      21.872 -18.949  -0.395 -0.83 -0.00    +0.000 C 
DOCKED: ATOM     11  C   UNL     1      22.668 -18.338  -1.284 -0.71 -0.00    +0.000 C 
DOCKED: BRANCH  10  13
DOCKED: ATOM     12  O   UNL     1      20.259 -19.742  -1.956 -2.35 -0.00    +0.000 OA
DOCKED: ATOM     13  C   UNL     1      20.536 -19.462  -0.758 -0.89 -0.00    +0.000 C 
DOCKED: ATOM     14  N   UNL     1      19.546 -19.642   0.256 -0.74 -0.00    +0.000 N 
DOCKED: ATOM     15  O   UNL     1      18.316 -20.110  -0.061 -0.93 -0.00    +0.000 OA
DOCKED: ATOM     16  H   UNL     1      19.759 -19.423   1.192 -0.10 -0.00    +0.000 HD
DOCKED: ENDBRANCH  10  13
DOCKED: ENDBRANCH   4  11
DOCKED: ENDBRANCH   3   7
DOCKED: ENDBRANCH   1   3
DOCKED: BRANCH   1  17
DOCKED: ATOM     17  C   UNL     1      30.388 -16.558  -0.077 -0.15 -0.00    +0.000 C 
DOCKED: BRANCH  17  18
DOCKED: ATOM     18  C   UNL     1      31.439 -17.619  -0.433 -0.16 -0.00    +0.000 C 
DOCKED: BRANCH  18  19
DOCKED: ATOM     19  O   UNL     1      30.899 -18.909  -0.335 -0.24 -0.00    +0.000 OA
DOCKED: ATOM     20  H   UNL     1      29.943 -18.848  -0.184 -0.55 -0.00    +0.000 HD
DOCKED: ENDBRANCH  18  19
DOCKED: ENDBRANCH  17  18
DOCKED: ENDBRANCH   1  17
DOCKED: BRANCH   1  21
DOCKED: ATOM     21  C   UNL     1      29.033 -16.940  -2.105 -0.26 -0.00    +0.000 C 
DOCKED: BRANCH  21  22
DOCKED: ATOM     22  C   UNL     1      29.148 -15.523  -2.677 -0.19 -0.00    +0.000 C 
DOCKED: BRANCH  22  23
DOCKED: ATOM     23  C   UNL     1      29.081 -15.544  -4.177 -0.23 -0.00    +0.000 A 
DOCKED: ATOM     24  C   UNL     1      27.959 -15.271  -4.954 -0.37 -0.00    +0.000 A 
DOCKED: ATOM     25  N   UNL     1      28.287 -15.248  -6.266 -0.41 +0.00    +0.000 N 
DOCKED: ATOM     26  C   UNL     1      29.607 -15.488  -6.323 -0.33 -0.00    +0.000 A 
DOCKED: ATOM     27  C   UNL     1      30.129 -15.671  -5.069 -0.20 -0.00    +0.000 A 
DOCKED: ATOM     28  C   UNL     1      31.492 -15.901  -4.866 -0.08 -0.00    +0.000 A 
DOCKED: ATOM     29  C   UNL     1      32.324 -15.946  -5.999 -0.06 -0.00    +0.000 A 
DOCKED: ATOM     30  C   UNL     1      31.786 -15.759  -7.291 -0.17 -0.00    +0.000 A 
DOCKED: ATOM     31  C   UNL     1      30.409 -15.524  -7.463 -0.24 -0.00    +0.000 A 
DOCKED: ATOM     32  H   UNL     1      27.679 -15.087  -7.024 -0.05 +0.00    +0.000 HD
DOCKED: ENDBRANCH  22  23
DOCKED: ENDBRANCH  21  22
DOCKED: ENDBRANCH   1  21
DOCKED: TORSDOF 10
DOCKED: TER
DOCKED: ENDMDL
________________________________________________________________________________


	BEGINNING GENETIC ALGORITHM DOCKING 92 of 100
Run: 92 Seed: 161794077 612242050 [ Run 92 of 100 GA/GALS ]
Beginning LAMARCKIAN GENETIC ALGORITHM (LGA), with a maximum of 2500000 energy evaluations.

Final-Value: -17.625


	FINAL GENETIC ALGORITHM DOCKED STATE
	_______________________________________________


Detailed state:  trans 27.029 -15.660 -1.918 quatxyzw 0.310799 -0.917562 0.152624 -0.195420 center 0.285 0.077 -0.044 ntor 10 140.2533 180.0000 -161.7790 -100.1047 -177.0941 178.9026 -50.4697 -48.2313 -180.0000 4.0562
State:	 27.029 -15.660  -1.918   0.317 -0.936  0.156 -157.462    140.25  180.00 -161.78 -100.10 -177.09  178.90  -50.47  -48.23 -180.00    4.06

DOCKED: MODEL       92
DOCKED: USER    Run = 92
DOCKED: USER    DPF = ligand_dock.biased.dpf
DOCKED: USER  
DOCKED: USER    Estimated Free Energy of Binding    =  -12.80 kcal/mol  [=(1)+(2)+(3)-(4)]
DOCKED: USER    Estimated Inhibition Constant, Ki   =  416.83 pM (picomolar)  [Temperature = 298.15 K]
DOCKED: USER    
DOCKED: USER    (1) Final Intermolecular Energy     =  -15.78 kcal/mol
DOCKED: USER        vdW + Hbond + desolv Energy     =  -15.78 kcal/mol
DOCKED: USER        Electrostatic Energy            =   +0.00 kcal/mol
DOCKED: USER    (2) Final Total Internal Energy     =   -1.85 kcal/mol
DOCKED: USER    (3) Torsional Free Energy           =   +2.98 kcal/mol
DOCKED: USER    (4) Unbound System's Energy  [=(2)] =   -1.85 kcal/mol
DOCKED: USER    
DOCKED: USER    
DOCKED: USER    NEWDPF move ligand.pdbqt
DOCKED: USER    NEWDPF about 0.285000 0.077000 -0.044000
DOCKED: USER    NEWDPF tran0 27.028972 -15.659868 -1.917794
DOCKED: USER    NEWDPF quaternion0 0.310799 -0.917562 0.152624 -0.195420
DOCKED: USER    NEWDPF axisangle0 0.316910 -0.935601 0.155625 -157.461498
DOCKED: USER    NEWDPF quat0 0.316910 -0.935601 0.155625 -157.461498
DOCKED: USER    NEWDPF dihe0 140.25 180.00 -161.78 -100.10 -177.09 178.90 -50.47 -48.23 -180.00 4.06 
DOCKED: USER  keepresnum = 1 
DOCKED: USER  
DOCKED: REMARK  Name = 
DOCKED: REMARK  10 active torsions:
DOCKED: REMARK  status: ('A' for Active; 'I' for Inactive)
DOCKED: REMARK    1  A    between atoms: C_2  and  C_5
DOCKED: REMARK    2  A    between atoms: C_6  and  C_7
DOCKED: REMARK    3  A    between atoms: C_10  and  C_11
DOCKED: REMARK    4  A    between atoms: C_11  and  N_12
DOCKED: REMARK    5  A    between atoms: N_12  and  C_13
DOCKED: REMARK    6  A    between atoms: N_12  and  C_16
DOCKED: REMARK    7  A    between atoms: C_13  and  C_14
DOCKED: REMARK    8  A    between atoms: C_14  and  O_15
DOCKED: REMARK    9  A    between atoms: C_16  and  C_17
DOCKED: REMARK   10  A    between atoms: C_17  and  C_18
DOCKED: REMARK                            x       y       z     vdW  Elec       q    Type
DOCKED: REMARK                         _______ _______ _______ _____ _____    ______ ____
DOCKED: USER                              x       y       z     vdW  Elec       q    Type
DOCKED: USER                           _______ _______ _______ _____ _____    ______ ____
DOCKED: ROOT
DOCKED: ATOM      1  N   UNL     1      28.181 -15.195  -2.411 -0.19 -0.00    +0.000 N 
DOCKED: ATOM      2  H   UNL     1      28.922 -14.512  -2.259 +0.01 -0.00    +0.000 HD
DOCKED: ENDROOT
DOCKED: BRANCH   1   3
DOCKED: ATOM      3  C   UNL     1      27.574 -15.358  -1.064 -0.29 -0.00    +0.000 C 
DOCKED: BRANCH   3   7
DOCKED: ATOM      4  C   UNL     1      24.230 -18.128  -0.978 -0.69 -0.00    +0.000 A 
DOCKED: ATOM      5  C   UNL     1      24.029 -16.772  -1.278 -0.53 -0.00    +0.000 A 
DOCKED: ATOM      6  C   UNL     1      25.105 -15.882  -1.309 -0.39 -0.00    +0.000 A 
DOCKED: ATOM      7  C   UNL     1      26.405 -16.323  -1.010 -0.43 -0.00    +0.000 A 
DOCKED: ATOM      8  C   UNL     1      26.611 -17.681  -0.722 -0.50 -0.00    +0.000 A 
DOCKED: ATOM      9  C   UNL     1      25.535 -18.574  -0.692 -0.50 -0.00    +0.000 A 
DOCKED: BRANCH   4  11
DOCKED: ATOM     10  C   UNL     1      21.786 -18.602  -0.844 -0.84 -0.00    +0.000 C 
DOCKED: ATOM     11  C   UNL     1      23.052 -19.031  -0.946 -0.80 -0.00    +0.000 C 
DOCKED: BRANCH  10  13
DOCKED: ATOM     12  O   UNL     1      19.938 -19.731  -1.833 -2.40 -0.00    +0.000 OA
DOCKED: ATOM     13  C   UNL     1      20.641 -19.533  -0.805 -0.88 -0.00    +0.000 C 
DOCKED: ATOM     14  N   UNL     1      20.324 -20.218   0.410 -0.70 -0.00    +0.000 N 
DOCKED: ATOM     15  O   UNL     1      19.277 -21.074   0.461 -0.86 -0.00    +0.000 OA
DOCKED: ATOM     16  H   UNL     1      20.871 -20.065   1.214 -0.47 -0.00    +0.000 HD
DOCKED: ENDBRANCH  10  13
DOCKED: ENDBRANCH   4  11
DOCKED: ENDBRANCH   3   7
DOCKED: ENDBRANCH   1   3
DOCKED: BRANCH   1  17
DOCKED: ATOM     17  C   UNL     1      27.300 -14.563  -3.419 -0.31 -0.00    +0.000 C 
DOCKED: BRANCH  17  18
DOCKED: ATOM     18  C   UNL     1      26.507 -15.610  -4.214 -0.48 -0.00    +0.000 C 
DOCKED: BRANCH  18  19
DOCKED: ATOM     19  O   UNL     1      26.648 -15.401  -5.593 -1.18 +0.00    +0.000 OA
DOCKED: ATOM     20  H   UNL     1      27.498 -15.762  -5.889 -0.05 +0.00    +0.000 HD
DOCKED: ENDBRANCH  18  19
DOCKED: ENDBRANCH  17  18
DOCKED: ENDBRANCH   1  17
DOCKED: BRANCH   1  21
DOCKED: ATOM     21  C   UNL     1      28.846 -16.420  -2.913 -0.26 -0.00    +0.000 C 
DOCKED: BRANCH  21  22
DOCKED: ATOM     22  C   UNL     1      30.195 -16.074  -3.551 -0.17 -0.00    +0.000 C 
DOCKED: BRANCH  22  23
DOCKED: ATOM     23  C   UNL     1      30.159 -16.293  -5.035 -0.23 -0.00    +0.000 A 
DOCKED: ATOM     24  C   UNL     1      29.947 -15.319  -6.007 -0.26 -0.00    +0.000 A 
DOCKED: ATOM     25  N   UNL     1      30.114 -15.840  -7.244 -0.30 -0.00    +0.000 N 
DOCKED: ATOM     26  C   UNL     1      30.443 -17.130  -7.062 -0.27 -0.00    +0.000 A 
DOCKED: ATOM     27  C   UNL     1      30.484 -17.445  -5.728 -0.29 -0.00    +0.000 A 
DOCKED: ATOM     28  C   UNL     1      30.837 -18.721  -5.285 -0.28 -0.00    +0.000 A 
DOCKED: ATOM     29  C   UNL     1      31.150 -19.689  -6.256 -0.30 -0.00    +0.000 A 
DOCKED: ATOM     30  C   UNL     1      31.106 -19.364  -7.630 -0.33 -0.00    +0.000 A 
DOCKED: ATOM     31  C   UNL     1      30.750 -18.068  -8.046 -0.26 -0.00    +0.000 A 
DOCKED: ATOM     32  H   UNL     1      30.013 -15.368  -8.102 -0.33 -0.00    +0.000 HD
DOCKED: ENDBRANCH  22  23
DOCKED: ENDBRANCH  21  22
DOCKED: ENDBRANCH   1  21
DOCKED: TORSDOF 10
DOCKED: TER
DOCKED: ENDMDL
________________________________________________________________________________


	BEGINNING GENETIC ALGORITHM DOCKING 93 of 100
Run: 93 Seed: 56174405 300142743 [ Run 93 of 100 GA/GALS ]
Beginning LAMARCKIAN GENETIC ALGORITHM (LGA), with a maximum of 2500000 energy evaluations.

Final-Value: -16.969


	FINAL GENETIC ALGORITHM DOCKED STATE
	_______________________________________________


Detailed state:  trans 27.711 -16.208 -1.146 quatxyzw -0.348311 0.551243 0.729703 -0.205779 center 0.285 0.077 -0.044 ntor 10 96.2538 -167.8149 130.2693 108.5443 130.7552 -118.0342 -178.3819 55.5019 179.4419 -56.4295
State:	 27.711 -16.208  -1.146  -0.356  0.563  0.746 -156.250     96.25 -167.81  130.27  108.54  130.76 -118.03 -178.38   55.50  179.44  -56.43

DOCKED: MODEL       93
DOCKED: USER    Run = 93
DOCKED: USER    DPF = ligand_dock.biased.dpf
DOCKED: USER  
DOCKED: USER    Estimated Free Energy of Binding    =  -12.07 kcal/mol  [=(1)+(2)+(3)-(4)]
DOCKED: USER    Estimated Inhibition Constant, Ki   =    1.41 nM (nanomolar)  [Temperature = 298.15 K]
DOCKED: USER    
DOCKED: USER    (1) Final Intermolecular Energy     =  -15.06 kcal/mol
DOCKED: USER        vdW + Hbond + desolv Energy     =  -15.06 kcal/mol
DOCKED: USER        Electrostatic Energy            =   +0.00 kcal/mol
DOCKED: USER    (2) Final Total Internal Energy     =   -1.91 kcal/mol
DOCKED: USER    (3) Torsional Free Energy           =   +2.98 kcal/mol
DOCKED: USER    (4) Unbound System's Energy  [=(2)] =   -1.91 kcal/mol
DOCKED: USER    
DOCKED: USER    
DOCKED: USER    NEWDPF move ligand.pdbqt
DOCKED: USER    NEWDPF about 0.285000 0.077000 -0.044000
DOCKED: USER    NEWDPF tran0 27.710543 -16.208123 -1.146227
DOCKED: USER    NEWDPF quaternion0 -0.348311 0.551243 0.729703 -0.205779
DOCKED: USER    NEWDPF axisangle0 -0.355929 0.563298 0.745661 -156.249798
DOCKED: USER    NEWDPF quat0 -0.355929 0.563298 0.745661 -156.249798
DOCKED: USER    NEWDPF dihe0 96.25 -167.81 130.27 108.54 130.76 -118.03 -178.38 55.50 179.44 -56.43 
DOCKED: USER  keepresnum = 1 
DOCKED: USER  
DOCKED: REMARK  Name = 
DOCKED: REMARK  10 active torsions:
DOCKED: REMARK  status: ('A' for Active; 'I' for Inactive)
DOCKED: REMARK    1  A    between atoms: C_2  and  C_5
DOCKED: REMARK    2  A    between atoms: C_6  and  C_7
DOCKED: REMARK    3  A    between atoms: C_10  and  C_11
DOCKED: REMARK    4  A    between atoms: C_11  and  N_12
DOCKED: REMARK    5  A    between atoms: N_12  and  C_13
DOCKED: REMARK    6  A    between atoms: N_12  and  C_16
DOCKED: REMARK    7  A    between atoms: C_13  and  C_14
DOCKED: REMARK    8  A    between atoms: C_14  and  O_15
DOCKED: REMARK    9  A    between atoms: C_16  and  C_17
DOCKED: REMARK   10  A    between atoms: C_17  and  C_18
DOCKED: REMARK                            x       y       z     vdW  Elec       q    Type
DOCKED: REMARK                         _______ _______ _______ _____ _____    ______ ____
DOCKED: USER                              x       y       z     vdW  Elec       q    Type
DOCKED: USER                           _______ _______ _______ _____ _____    ______ ____
DOCKED: ROOT
DOCKED: ATOM      1  N   UNL     1      28.804 -16.064  -0.392 -0.23 -0.00    +0.000 N 
DOCKED: ATOM      2  H   UNL     1      29.507 -16.575   0.141 -0.22 -0.00    +0.000 HD
DOCKED: ENDROOT
DOCKED: BRANCH   1   3
DOCKED: ATOM      3  C   UNL     1      28.278 -17.079  -1.342 -0.35 -0.00    +0.000 C 
DOCKED: BRANCH   3   7
DOCKED: ATOM      4  C   UNL     1      24.043 -17.905  -0.847 -0.69 -0.00    +0.000 A 
DOCKED: ATOM      5  C   UNL     1      25.001 -18.612  -0.107 -0.42 -0.00    +0.000 A 
DOCKED: ATOM      6  C   UNL     1      26.364 -18.345  -0.264 -0.55 -0.00    +0.000 A 
DOCKED: ATOM      7  C   UNL     1      26.800 -17.382  -1.188 -0.43 -0.00    +0.000 A 
DOCKED: ATOM      8  C   UNL     1      25.842 -16.662  -1.920 -0.49 -0.00    +0.000 A 
DOCKED: ATOM      9  C   UNL     1      24.479 -16.928  -1.764 -0.54 -0.00    +0.000 A 
DOCKED: BRANCH   4  11
DOCKED: ATOM     10  C   UNL     1      22.045 -19.380  -1.062 -0.71 -0.00    +0.000 C 
DOCKED: ATOM     11  C   UNL     1      22.609 -18.234  -0.653 -0.84 -0.00    +0.000 C 
DOCKED: BRANCH  10  13
DOCKED: ATOM     12  O   UNL     1      19.808 -19.645  -1.832 -2.26 -0.00    +0.000 OA
DOCKED: ATOM     13  C   UNL     1      20.611 -19.667  -0.860 -0.86 -0.00    +0.000 C 
DOCKED: ATOM     14  N   UNL     1      20.126 -19.971   0.449 -0.72 -0.00    +0.000 N 
DOCKED: ATOM     15  O   UNL     1      18.814 -20.236   0.651 -0.84 -0.00    +0.000 OA
DOCKED: ATOM     16  H   UNL     1      20.751 -19.989   1.210 -0.40 -0.00    +0.000 HD
DOCKED: ENDBRANCH  10  13
DOCKED: ENDBRANCH   4  11
DOCKED: ENDBRANCH   3   7
DOCKED: ENDBRANCH   1   3
DOCKED: BRANCH   1  17
DOCKED: ATOM     17  C   UNL     1      27.835 -15.602   0.628 -0.18 -0.00    +0.000 C 
DOCKED: BRANCH  17  18
DOCKED: ATOM     18  C   UNL     1      28.248 -14.252   1.231 -0.25 -0.00    +0.000 C 
DOCKED: BRANCH  18  19
DOCKED: ATOM     19  O   UNL     1      28.519 -14.380   2.601 -0.33 -0.00    +0.000 OA
DOCKED: ATOM     20  H   UNL     1      28.931 -15.241   2.770 -1.95 -0.00    +0.000 HD
DOCKED: ENDBRANCH  18  19
DOCKED: ENDBRANCH  17  18
DOCKED: ENDBRANCH   1  17
DOCKED: BRANCH   1  21
DOCKED: ATOM     21  C   UNL     1      29.520 -14.948  -1.054 -0.12 -0.00    +0.000 C 
DOCKED: BRANCH  21  22
DOCKED: ATOM     22  C   UNL     1      30.231 -15.443  -2.318 -0.10 -0.00    +0.000 C 
DOCKED: BRANCH  22  23
DOCKED: ATOM     23  C   UNL     1      29.738 -14.710  -3.532 -0.09 -0.00    +0.000 A 
DOCKED: ATOM     24  C   UNL     1      30.388 -14.621  -4.760 -0.09 -0.00    +0.000 A 
DOCKED: ATOM     25  N   UNL     1      29.600 -14.002  -5.668 -0.16 -0.00    +0.000 N 
DOCKED: ATOM     26  C   UNL     1      28.454 -13.713  -5.030 -0.20 -0.00    +0.000 A 
DOCKED: ATOM     27  C   UNL     1      28.497 -14.132  -3.725 -0.15 -0.00    +0.000 A 
DOCKED: ATOM     28  C   UNL     1      27.408 -13.975  -2.866 -0.20 -0.00    +0.000 A 
DOCKED: ATOM     29  C   UNL     1      26.251 -13.362  -3.381 -0.26 -0.00    +0.000 A 
DOCKED: ATOM     30  C   UNL     1      26.207 -12.929  -4.724 -0.24 -0.00    +0.000 A 
DOCKED: ATOM     31  C   UNL     1      27.320 -13.105  -5.567 -0.19 -0.00    +0.000 A 
DOCKED: ATOM     32  H   UNL     1      29.824 -13.803  -6.606 -0.01 -0.00    +0.000 HD
DOCKED: ENDBRANCH  22  23
DOCKED: ENDBRANCH  21  22
DOCKED: ENDBRANCH   1  21
DOCKED: TORSDOF 10
DOCKED: TER
DOCKED: ENDMDL
________________________________________________________________________________


	BEGINNING GENETIC ALGORITHM DOCKING 94 of 100
Run: 94 Seed: 2111961763 109362459 [ Run 94 of 100 GA/GALS ]
Beginning LAMARCKIAN GENETIC ALGORITHM (LGA), with a maximum of 2500000 energy evaluations.

Final-Value: -18.063


	FINAL GENETIC ALGORITHM DOCKED STATE
	_______________________________________________


Detailed state:  trans 29.663 -14.938 -0.659 quatxyzw -0.435213 0.506508 0.344154 -0.659998 center 0.285 0.077 -0.044 ntor 10 103.1827 -37.2946 30.1144 -153.7563 -93.5675 -178.5202 175.8171 -129.8542 -155.3422 -123.7021
State:	 29.663 -14.938  -0.659  -0.579  0.674  0.458 -97.401    103.18  -37.29   30.11 -153.76  -93.57 -178.52  175.82 -129.85 -155.34 -123.70

DOCKED: MODEL       94
DOCKED: USER    Run = 94
DOCKED: USER    DPF = ligand_dock.biased.dpf
DOCKED: USER  
DOCKED: USER    Estimated Free Energy of Binding    =  -12.45 kcal/mol  [=(1)+(2)+(3)-(4)]
DOCKED: USER    Estimated Inhibition Constant, Ki   =  747.64 pM (picomolar)  [Temperature = 298.15 K]
DOCKED: USER    
DOCKED: USER    (1) Final Intermolecular Energy     =  -15.43 kcal/mol
DOCKED: USER        vdW + Hbond + desolv Energy     =  -15.43 kcal/mol
DOCKED: USER        Electrostatic Energy            =   +0.00 kcal/mol
DOCKED: USER    (2) Final Total Internal Energy     =   -2.63 kcal/mol
DOCKED: USER    (3) Torsional Free Energy           =   +2.98 kcal/mol
DOCKED: USER    (4) Unbound System's Energy  [=(2)] =   -2.63 kcal/mol
DOCKED: USER    
DOCKED: USER    
DOCKED: USER    NEWDPF move ligand.pdbqt
DOCKED: USER    NEWDPF about 0.285000 0.077000 -0.044000
DOCKED: USER    NEWDPF tran0 29.662700 -14.937929 -0.659389
DOCKED: USER    NEWDPF quaternion0 -0.435213 0.506508 0.344154 -0.659998
DOCKED: USER    NEWDPF axisangle0 -0.579305 0.674205 0.458098 -97.400571
DOCKED: USER    NEWDPF quat0 -0.579305 0.674205 0.458098 -97.400571
DOCKED: USER    NEWDPF dihe0 103.18 -37.29 30.11 -153.76 -93.57 -178.52 175.82 -129.85 -155.34 -123.70 
DOCKED: USER  keepresnum = 1 
DOCKED: USER  
DOCKED: REMARK  Name = 
DOCKED: REMARK  10 active torsions:
DOCKED: REMARK  status: ('A' for Active; 'I' for Inactive)
DOCKED: REMARK    1  A    between atoms: C_2  and  C_5
DOCKED: REMARK    2  A    between atoms: C_6  and  C_7
DOCKED: REMARK    3  A    between atoms: C_10  and  C_11
DOCKED: REMARK    4  A    between atoms: C_11  and  N_12
DOCKED: REMARK    5  A    between atoms: N_12  and  C_13
DOCKED: REMARK    6  A    between atoms: N_12  and  C_16
DOCKED: REMARK    7  A    between atoms: C_13  and  C_14
DOCKED: REMARK    8  A    between atoms: C_14  and  O_15
DOCKED: REMARK    9  A    between atoms: C_16  and  C_17
DOCKED: REMARK   10  A    between atoms: C_17  and  C_18
DOCKED: REMARK                            x       y       z     vdW  Elec       q    Type
DOCKED: REMARK                         _______ _______ _______ _____ _____    ______ ____
DOCKED: USER                              x       y       z     vdW  Elec       q    Type
DOCKED: USER                           _______ _______ _______ _____ _____    ______ ____
DOCKED: ROOT
DOCKED: ATOM      1  N   UNL     1      29.579 -15.122   0.661 -0.16 -0.00    +0.000 N 
DOCKED: ATOM      2  H   UNL     1      29.126 -15.679   1.386 -1.06 -0.00    +0.000 HD
DOCKED: ENDROOT
DOCKED: BRANCH   1   3
DOCKED: ATOM      3  C   UNL     1      29.471 -15.972  -0.553 -0.20 -0.00    +0.000 C 
DOCKED: BRANCH   3   7
DOCKED: ATOM      4  C   UNL     1      25.440 -17.378  -1.353 -0.56 -0.00    +0.000 A 
DOCKED: ATOM      5  C   UNL     1      26.109 -17.754  -0.179 -0.55 -0.00    +0.000 A 
DOCKED: ATOM      6  C   UNL     1      27.405 -17.300   0.080 -0.18 -0.00    +0.000 A 
DOCKED: ATOM      7  C   UNL     1      28.072 -16.481  -0.845 -0.31 -0.00    +0.000 A 
DOCKED: ATOM      8  C   UNL     1      27.400 -16.092  -2.015 -0.31 -0.00    +0.000 A 
DOCKED: ATOM      9  C   UNL     1      26.104 -16.545  -2.275 -0.42 -0.00    +0.000 A 
DOCKED: BRANCH   4  11
DOCKED: ATOM     10  C   UNL     1      23.011 -17.579  -0.828 -0.76 -0.00    +0.000 C 
DOCKED: ATOM     11  C   UNL     1      24.070 -17.897  -1.587 -0.71 -0.00    +0.000 C 
DOCKED: BRANCH  10  13
DOCKED: ATOM     12  O   UNL     1      20.635 -17.503  -0.709 -2.10 +0.00    +0.000 OA
DOCKED: ATOM     13  C   UNL     1      21.665 -18.125  -1.087 -0.65 -0.00    +0.000 C 
DOCKED: ATOM     14  N   UNL     1      21.524 -19.372  -1.772 -0.62 -0.00    +0.000 N 
DOCKED: ATOM     15  O   UNL     1      20.296 -19.886  -2.016 -2.29 -0.00    +0.000 OA
DOCKED: ATOM     16  H   UNL     1      22.327 -19.860  -2.068 -0.47 -0.00    +0.000 HD
DOCKED: ENDBRANCH  10  13
DOCKED: ENDBRANCH   4  11
DOCKED: ENDBRANCH   3   7
DOCKED: ENDBRANCH   1   3
DOCKED: BRANCH   1  17
DOCKED: ATOM     17  C   UNL     1      28.793 -13.868   0.617 -0.16 -0.00    +0.000 C 
DOCKED: BRANCH  17  18
DOCKED: ATOM     18  C   UNL     1      27.475 -13.997   1.393 -0.30 -0.00    +0.000 C 
DOCKED: BRANCH  18  19
DOCKED: ATOM     19  O   UNL     1      27.484 -15.140   2.205 +0.04 -0.00    +0.000 OA
DOCKED: ATOM     20  H   UNL     1      28.347 -15.220   2.640 -1.48 -0.00    +0.000 HD
DOCKED: ENDBRANCH  18  19
DOCKED: ENDBRANCH  17  18
DOCKED: ENDBRANCH   1  17
DOCKED: BRANCH   1  21
DOCKED: ATOM     21  C   UNL     1      30.974 -14.913   1.115 -0.12 -0.00    +0.000 C 
DOCKED: BRANCH  21  22
DOCKED: ATOM     22  C   UNL     1      31.162 -13.481   1.627 -0.07 -0.00    +0.000 C 
DOCKED: BRANCH  22  23
DOCKED: ATOM     23  C   UNL     1      31.467 -13.472   3.097 -0.10 -0.00    +0.000 A 
DOCKED: ATOM     24  C   UNL     1      32.724 -13.325   3.676 -0.09 -0.00    +0.000 A 
DOCKED: ATOM     25  N   UNL     1      32.617 -13.227   5.020 -0.13 -0.00    +0.000 N 
DOCKED: ATOM     26  C   UNL     1      31.304 -13.296   5.294 -0.17 -0.00    +0.000 A 
DOCKED: ATOM     27  C   UNL     1      30.568 -13.443   4.147 -0.19 -0.00    +0.000 A 
DOCKED: ATOM     28  C   UNL     1      29.173 -13.503   4.171 -0.29 -0.00    +0.000 A 
DOCKED: ATOM     29  C   UNL     1      28.535 -13.413   5.421 -0.42 -0.00    +0.000 A 
DOCKED: ATOM     30  C   UNL     1      29.293 -13.263   6.603 -0.36 -0.00    +0.000 A 
DOCKED: ATOM     31  C   UNL     1      30.697 -13.201   6.546 -0.23 -0.00    +0.000 A 
DOCKED: ATOM     32  H   UNL     1      33.354 -13.126   5.666 -0.01 -0.00    +0.000 HD
DOCKED: ENDBRANCH  22  23
DOCKED: ENDBRANCH  21  22
DOCKED: ENDBRANCH   1  21
DOCKED: TORSDOF 10
DOCKED: TER
DOCKED: ENDMDL
________________________________________________________________________________


	BEGINNING GENETIC ALGORITHM DOCKING 95 of 100
Run: 95 Seed: 47461231 1569076264 [ Run 95 of 100 GA/GALS ]
Beginning LAMARCKIAN GENETIC ALGORITHM (LGA), with a maximum of 2500000 energy evaluations.

Final-Value: -16.298


	FINAL GENETIC ALGORITHM DOCKED STATE
	_______________________________________________


Detailed state:  trans 29.383 -15.233 -1.717 quatxyzw 0.595047 0.540740 0.539198 -0.250569 center 0.285 0.077 -0.044 ntor 10 -66.6480 -10.8510 -3.1668 -157.5913 146.3810 -1.9915 171.0060 27.2756 164.9898 -180.0000
State:	 29.383 -15.233  -1.717   0.615  0.559  0.557 -150.978    -66.65  -10.85   -3.17 -157.59  146.38   -1.99  171.01   27.28  164.99 -180.00

DOCKED: MODEL       95
DOCKED: USER    Run = 95
DOCKED: USER    DPF = ligand_dock.biased.dpf
DOCKED: USER  
DOCKED: USER    Estimated Free Energy of Binding    =  -10.97 kcal/mol  [=(1)+(2)+(3)-(4)]
DOCKED: USER    Estimated Inhibition Constant, Ki   =    9.08 nM (nanomolar)  [Temperature = 298.15 K]
DOCKED: USER    
DOCKED: USER    (1) Final Intermolecular Energy     =  -13.95 kcal/mol
DOCKED: USER        vdW + Hbond + desolv Energy     =  -13.95 kcal/mol
DOCKED: USER        Electrostatic Energy            =   +0.00 kcal/mol
DOCKED: USER    (2) Final Total Internal Energy     =   -2.34 kcal/mol
DOCKED: USER    (3) Torsional Free Energy           =   +2.98 kcal/mol
DOCKED: USER    (4) Unbound System's Energy  [=(2)] =   -2.34 kcal/mol
DOCKED: USER    
DOCKED: USER    
DOCKED: USER    NEWDPF move ligand.pdbqt
DOCKED: USER    NEWDPF about 0.285000 0.077000 -0.044000
DOCKED: USER    NEWDPF tran0 29.382689 -15.232505 -1.717089
DOCKED: USER    NEWDPF quaternion0 0.595047 0.540740 0.539198 -0.250569
DOCKED: USER    NEWDPF axisangle0 0.614655 0.558559 0.556966 -150.977620
DOCKED: USER    NEWDPF quat0 0.614655 0.558559 0.556966 -150.977620
DOCKED: USER    NEWDPF dihe0 -66.65 -10.85 -3.17 -157.59 146.38 -1.99 171.01 27.28 164.99 -180.00 
DOCKED: USER  keepresnum = 1 
DOCKED: USER  
DOCKED: REMARK  Name = 
DOCKED: REMARK  10 active torsions:
DOCKED: REMARK  status: ('A' for Active; 'I' for Inactive)
DOCKED: REMARK    1  A    between atoms: C_2  and  C_5
DOCKED: REMARK    2  A    between atoms: C_6  and  C_7
DOCKED: REMARK    3  A    between atoms: C_10  and  C_11
DOCKED: REMARK    4  A    between atoms: C_11  and  N_12
DOCKED: REMARK    5  A    between atoms: N_12  and  C_13
DOCKED: REMARK    6  A    between atoms: N_12  and  C_16
DOCKED: REMARK    7  A    between atoms: C_13  and  C_14
DOCKED: REMARK    8  A    between atoms: C_14  and  O_15
DOCKED: REMARK    9  A    between atoms: C_16  and  C_17
DOCKED: REMARK   10  A    between atoms: C_17  and  C_18
DOCKED: REMARK                            x       y       z     vdW  Elec       q    Type
DOCKED: REMARK                         _______ _______ _______ _____ _____    ______ ____
DOCKED: USER                              x       y       z     vdW  Elec       q    Type
DOCKED: USER                           _______ _______ _______ _____ _____    ______ ____
DOCKED: ROOT
DOCKED: ATOM      1  N   UNL     1      29.436 -16.354  -2.442 -0.20 -0.00    +0.000 N 
DOCKED: ATOM      2  H   UNL     1      29.033 -17.285  -2.545 -0.02 -0.00    +0.000 HD
DOCKED: ENDROOT
DOCKED: BRANCH   1   3
DOCKED: ATOM      3  C   UNL     1      28.391 -15.600  -1.702 -0.24 -0.00    +0.000 C 
DOCKED: BRANCH   3   7
DOCKED: ATOM      4  C   UNL     1      24.720 -17.840  -1.091 -0.65 -0.00    +0.000 A 
DOCKED: ATOM      5  C   UNL     1      24.802 -16.856  -2.088 -0.51 -0.00    +0.000 A 
DOCKED: ATOM      6  C   UNL     1      25.983 -16.137  -2.286 -0.46 -0.00    +0.000 A 
DOCKED: ATOM      7  C   UNL     1      27.103 -16.367  -1.471 -0.36 -0.00    +0.000 A 
DOCKED: ATOM      8  C   UNL     1      27.030 -17.360  -0.482 -0.46 -0.00    +0.000 A 
DOCKED: ATOM      9  C   UNL     1      25.849 -18.081  -0.282 -0.60 -0.00    +0.000 A 
DOCKED: BRANCH   4  11
DOCKED: ATOM     10  C   UNL     1      22.260 -17.962  -0.709 -0.82 -0.00    +0.000 C 
DOCKED: ATOM     11  C   UNL     1      23.439 -18.567  -0.912 -0.82 -0.00    +0.000 C 
DOCKED: BRANCH  10  13
DOCKED: ATOM     12  O   UNL     1      19.889 -18.176  -0.730 -1.89 -0.00    +0.000 OA
DOCKED: ATOM     13  C   UNL     1      21.008 -18.721  -0.524 -0.81 -0.00    +0.000 C 
DOCKED: ATOM     14  N   UNL     1      21.061 -20.088  -0.108 -0.62 -0.00    +0.000 N 
DOCKED: ATOM     15  O   UNL     1      19.922 -20.797   0.066 -1.07 -0.00    +0.000 OA
DOCKED: ATOM     16  H   UNL     1      21.933 -20.516   0.053 -0.58 -0.00    +0.000 HD
DOCKED: ENDBRANCH  10  13
DOCKED: ENDBRANCH   4  11
DOCKED: ENDBRANCH   3   7
DOCKED: ENDBRANCH   1   3
DOCKED: BRANCH   1  17
DOCKED: ATOM     17  C   UNL     1      30.693 -16.579  -1.692 -0.14 -0.00    +0.000 C 
DOCKED: BRANCH  17  18
DOCKED: ATOM     18  C   UNL     1      30.479 -17.515  -0.495 -0.18 -0.00    +0.000 C 
DOCKED: BRANCH  18  19
DOCKED: ATOM     19  O   UNL     1      29.618 -18.569  -0.833 -0.24 -0.00    +0.000 OA
DOCKED: ATOM     20  H   UNL     1      28.896 -18.616  -0.188 -0.61 -0.00    +0.000 HD
DOCKED: ENDBRANCH  18  19
DOCKED: ENDBRANCH  17  18
DOCKED: ENDBRANCH   1  17
DOCKED: BRANCH   1  21
DOCKED: ATOM     21  C   UNL     1      29.668 -15.850  -3.816 -0.21 -0.00    +0.000 C 
DOCKED: BRANCH  21  22
DOCKED: ATOM     22  C   UNL     1      28.387 -15.964  -4.651 -0.27 -0.00    +0.000 C 
DOCKED: BRANCH  22  23
DOCKED: ATOM     23  C   UNL     1      27.812 -14.608  -4.937 -0.34 -0.00    +0.000 A 
DOCKED: ATOM     24  C   UNL     1      26.995 -13.864  -4.089 -0.30 -0.00    +0.000 A 
DOCKED: ATOM     25  N   UNL     1      26.772 -12.635  -4.606 -0.25 -0.00    +0.000 N 
DOCKED: ATOM     26  C   UNL     1      27.452 -12.590  -5.764 -0.19 -0.00    +0.000 A 
DOCKED: ATOM     27  C   UNL     1      28.102 -13.773  -6.000 -0.27 -0.00    +0.000 A 
DOCKED: ATOM     28  C   UNL     1      28.906 -13.958  -7.127 -0.30 -0.00    +0.000 A 
DOCKED: ATOM     29  C   UNL     1      29.028 -12.885  -8.028 -0.22 -0.00    +0.000 A 
DOCKED: ATOM     30  C   UNL     1      28.357 -11.667  -7.785 -0.17 -0.00    +0.000 A 
DOCKED: ATOM     31  C   UNL     1      27.558 -11.509  -6.638 -0.16 -0.00    +0.000 A 
DOCKED: ATOM     32  H   UNL     1      26.222 -11.919  -4.213 -0.01 -0.00    +0.000 HD
DOCKED: ENDBRANCH  22  23
DOCKED: ENDBRANCH  21  22
DOCKED: ENDBRANCH   1  21
DOCKED: TORSDOF 10
DOCKED: TER
DOCKED: ENDMDL
________________________________________________________________________________


	BEGINNING GENETIC ALGORITHM DOCKING 96 of 100
Run: 96 Seed: 841518880 1534659463 [ Run 96 of 100 GA/GALS ]
Beginning LAMARCKIAN GENETIC ALGORITHM (LGA), with a maximum of 2500000 energy evaluations.

Final-Value: -16.471


	FINAL GENETIC ALGORITHM DOCKED STATE
	_______________________________________________


Detailed state:  trans 28.744 -15.490 -1.596 quatxyzw 0.483985 0.737832 0.355257 -0.308471 center 0.285 0.077 -0.044 ntor 10 55.7714 -88.9185 80.1268 -124.4116 -173.8494 62.9171 -33.8622 160.8110 160.0270 153.5533
State:	 28.744 -15.490  -1.596   0.509  0.776  0.373 -144.066     55.77  -88.92   80.13 -124.41 -173.85   62.92  -33.86  160.81  160.03  153.55

DOCKED: MODEL       96
DOCKED: USER    Run = 96
DOCKED: USER    DPF = ligand_dock.biased.dpf
DOCKED: USER  
DOCKED: USER    Estimated Free Energy of Binding    =  -11.00 kcal/mol  [=(1)+(2)+(3)-(4)]
DOCKED: USER    Estimated Inhibition Constant, Ki   =    8.59 nM (nanomolar)  [Temperature = 298.15 K]
DOCKED: USER    
DOCKED: USER    (1) Final Intermolecular Energy     =  -13.99 kcal/mol
DOCKED: USER        vdW + Hbond + desolv Energy     =  -13.99 kcal/mol
DOCKED: USER        Electrostatic Energy            =   +0.00 kcal/mol
DOCKED: USER    (2) Final Total Internal Energy     =   -2.48 kcal/mol
DOCKED: USER    (3) Torsional Free Energy           =   +2.98 kcal/mol
DOCKED: USER    (4) Unbound System's Energy  [=(2)] =   -2.48 kcal/mol
DOCKED: USER    
DOCKED: USER    
DOCKED: USER    NEWDPF move ligand.pdbqt
DOCKED: USER    NEWDPF about 0.285000 0.077000 -0.044000
DOCKED: USER    NEWDPF tran0 28.743811 -15.489773 -1.595914
DOCKED: USER    NEWDPF quaternion0 0.483985 0.737832 0.355257 -0.308471
DOCKED: USER    NEWDPF axisangle0 0.508797 0.775658 0.373470 -144.065785
DOCKED: USER    NEWDPF quat0 0.508797 0.775658 0.373470 -144.065785
DOCKED: USER    NEWDPF dihe0 55.77 -88.92 80.13 -124.41 -173.85 62.92 -33.86 160.81 160.03 153.55 
DOCKED: USER  keepresnum = 1 
DOCKED: USER  
DOCKED: REMARK  Name = 
DOCKED: REMARK  10 active torsions:
DOCKED: REMARK  status: ('A' for Active; 'I' for Inactive)
DOCKED: REMARK    1  A    between atoms: C_2  and  C_5
DOCKED: REMARK    2  A    between atoms: C_6  and  C_7
DOCKED: REMARK    3  A    between atoms: C_10  and  C_11
DOCKED: REMARK    4  A    between atoms: C_11  and  N_12
DOCKED: REMARK    5  A    between atoms: N_12  and  C_13
DOCKED: REMARK    6  A    between atoms: N_12  and  C_16
DOCKED: REMARK    7  A    between atoms: C_13  and  C_14
DOCKED: REMARK    8  A    between atoms: C_14  and  O_15
DOCKED: REMARK    9  A    between atoms: C_16  and  C_17
DOCKED: REMARK   10  A    between atoms: C_17  and  C_18
DOCKED: REMARK                            x       y       z     vdW  Elec       q    Type
DOCKED: REMARK                         _______ _______ _______ _____ _____    ______ ____
DOCKED: USER                              x       y       z     vdW  Elec       q    Type
DOCKED: USER                           _______ _______ _______ _____ _____    ______ ____
DOCKED: ROOT
DOCKED: ATOM      1  N   UNL     1      28.996 -16.800  -1.661 -0.26 -0.00    +0.000 N 
DOCKED: ATOM      2  H   UNL     1      28.809 -17.696  -1.210 -0.06 -0.00    +0.000 HD
DOCKED: ENDROOT
DOCKED: BRANCH   1   3
DOCKED: ATOM      3  C   UNL     1      27.866 -15.942  -1.218 -0.32 -0.00    +0.000 C 
DOCKED: BRANCH   3   7
DOCKED: ATOM      4  C   UNL     1      24.157 -18.115  -0.595 -0.69 -0.00    +0.000 A 
DOCKED: ATOM      5  C   UNL     1      24.315 -17.272  -1.705 -0.57 -0.00    +0.000 A 
DOCKED: ATOM      6  C   UNL     1      25.509 -16.575  -1.907 -0.52 -0.00    +0.000 A 
DOCKED: ATOM      7  C   UNL     1      26.563 -16.684  -0.986 -0.44 -0.00    +0.000 A 
DOCKED: ATOM      8  C   UNL     1      26.414 -17.538   0.118 -0.42 -0.00    +0.000 A 
DOCKED: ATOM      9  C   UNL     1      25.220 -18.237   0.321 -0.43 -0.00    +0.000 A 
DOCKED: BRANCH   4  11
DOCKED: ATOM     10  C   UNL     1      21.744 -18.507  -1.081 -0.78 -0.00    +0.000 C 
DOCKED: ATOM     11  C   UNL     1      22.865 -18.824  -0.419 -0.80 -0.00    +0.000 C 
DOCKED: BRANCH  10  13
DOCKED: ATOM     12  O   UNL     1      19.855 -19.739  -1.843 -2.38 -0.00    +0.000 OA
DOCKED: ATOM     13  C   UNL     1      20.474 -19.229  -0.870 -0.90 -0.00    +0.000 C 
DOCKED: ATOM     14  N   UNL     1      19.939 -19.352   0.450 -0.69 -0.00    +0.000 N 
DOCKED: ATOM     15  O   UNL     1      18.775 -20.011   0.659 -0.82 -0.00    +0.000 OA
DOCKED: ATOM     16  H   UNL     1      20.419 -18.954   1.211 -0.22 -0.00    +0.000 HD
DOCKED: ENDBRANCH  10  13
DOCKED: ENDBRANCH   4  11
DOCKED: ENDBRANCH   3   7
DOCKED: ENDBRANCH   1   3
DOCKED: BRANCH   1  17
DOCKED: ATOM     17  C   UNL     1      30.324 -16.400  -1.143 -0.17 -0.00    +0.000 C 
DOCKED: BRANCH  17  18
DOCKED: ATOM     18  C   UNL     1      31.258 -17.608  -0.982 -0.16 -0.00    +0.000 C 
DOCKED: BRANCH  18  19
DOCKED: ATOM     19  O   UNL     1      30.549 -18.729  -0.530 -0.24 -0.00    +0.000 OA
DOCKED: ATOM     20  H   UNL     1      29.631 -18.477  -0.342 -0.59 -0.00    +0.000 HD
DOCKED: ENDBRANCH  18  19
DOCKED: ENDBRANCH  17  18
DOCKED: ENDBRANCH   1  17
DOCKED: BRANCH   1  21
DOCKED: ATOM     21  C   UNL     1      29.002 -17.066  -3.118 -0.07 -0.00    +0.000 C 
DOCKED: BRANCH  21  22
DOCKED: ATOM     22  C   UNL     1      29.419 -15.810  -3.890 -0.23 -0.00    +0.000 C 
DOCKED: BRANCH  22  23
DOCKED: ATOM     23  C   UNL     1      28.216 -15.033  -4.340 -0.28 -0.00    +0.000 A 
DOCKED: ATOM     24  C   UNL     1      26.912 -15.514  -4.431 -0.39 -0.00    +0.000 A 
DOCKED: ATOM     25  N   UNL     1      26.059 -14.511  -4.740 -0.46 -0.00    +0.000 N 
DOCKED: ATOM     26  C   UNL     1      26.809 -13.400  -4.830 -0.28 -0.00    +0.000 A 
DOCKED: ATOM     27  C   UNL     1      28.130 -13.677  -4.590 -0.20 -0.00    +0.000 A 
DOCKED: ATOM     28  C   UNL     1      29.103 -12.675  -4.592 -0.08 -0.00    +0.000 A 
DOCKED: ATOM     29  C   UNL     1      28.686 -11.357  -4.856 -0.06 -0.00    +0.000 A 
DOCKED: ATOM     30  C   UNL     1      27.325 -11.073  -5.104 -0.13 -0.00    +0.000 A 
DOCKED: ATOM     31  C   UNL     1      26.367 -12.104  -5.091 -0.23 -0.00    +0.000 A 
DOCKED: ATOM     32  H   UNL     1      25.086 -14.583  -4.872 -0.11 -0.00    +0.000 HD
DOCKED: ENDBRANCH  22  23
DOCKED: ENDBRANCH  21  22
DOCKED: ENDBRANCH   1  21
DOCKED: TORSDOF 10
DOCKED: TER
DOCKED: ENDMDL
________________________________________________________________________________


	BEGINNING GENETIC ALGORITHM DOCKING 97 of 100
Run: 97 Seed: 331987043 1939274654 [ Run 97 of 100 GA/GALS ]
Beginning LAMARCKIAN GENETIC ALGORITHM (LGA), with a maximum of 2500000 energy evaluations.

Final-Value: -16.335


	FINAL GENETIC ALGORITHM DOCKED STATE
	_______________________________________________


Detailed state:  trans 27.884 -15.347 -1.366 quatxyzw 0.333344 -0.526417 -0.741467 -0.248988 center 0.285 0.077 -0.044 ntor 10 -155.4982 135.4057 3.5568 -119.4881 -67.8976 -154.6218 -105.0813 63.7629 161.6226 -6.7705
State:	 27.884 -15.347  -1.366   0.344 -0.544 -0.766 -151.165   -155.50  135.41    3.56 -119.49  -67.90 -154.62 -105.08   63.76  161.62   -6.77

DOCKED: MODEL       97
DOCKED: USER    Run = 97
DOCKED: USER    DPF = ligand_dock.biased.dpf
DOCKED: USER  
DOCKED: USER    Estimated Free Energy of Binding    =  -11.79 kcal/mol  [=(1)+(2)+(3)-(4)]
DOCKED: USER    Estimated Inhibition Constant, Ki   =    2.26 nM (nanomolar)  [Temperature = 298.15 K]
DOCKED: USER    
DOCKED: USER    (1) Final Intermolecular Energy     =  -14.78 kcal/mol
DOCKED: USER        vdW + Hbond + desolv Energy     =  -14.78 kcal/mol
DOCKED: USER        Electrostatic Energy            =   +0.00 kcal/mol
DOCKED: USER    (2) Final Total Internal Energy     =   -1.56 kcal/mol
DOCKED: USER    (3) Torsional Free Energy           =   +2.98 kcal/mol
DOCKED: USER    (4) Unbound System's Energy  [=(2)] =   -1.56 kcal/mol
DOCKED: USER    
DOCKED: USER    
DOCKED: USER    NEWDPF move ligand.pdbqt
DOCKED: USER    NEWDPF about 0.285000 0.077000 -0.044000
DOCKED: USER    NEWDPF tran0 27.884405 -15.347323 -1.365812
DOCKED: USER    NEWDPF quaternion0 0.333344 -0.526417 -0.741467 -0.248988
DOCKED: USER    NEWDPF axisangle0 0.344183 -0.543534 -0.765577 -151.164784
DOCKED: USER    NEWDPF quat0 0.344183 -0.543534 -0.765577 -151.164784
DOCKED: USER    NEWDPF dihe0 -155.50 135.41 3.56 -119.49 -67.90 -154.62 -105.08 63.76 161.62 -6.77 
DOCKED: USER  keepresnum = 1 
DOCKED: USER  
DOCKED: REMARK  Name = 
DOCKED: REMARK  10 active torsions:
DOCKED: REMARK  status: ('A' for Active; 'I' for Inactive)
DOCKED: REMARK    1  A    between atoms: C_2  and  C_5
DOCKED: REMARK    2  A    between atoms: C_6  and  C_7
DOCKED: REMARK    3  A    between atoms: C_10  and  C_11
DOCKED: REMARK    4  A    between atoms: C_11  and  N_12
DOCKED: REMARK    5  A    between atoms: N_12  and  C_13
DOCKED: REMARK    6  A    between atoms: N_12  and  C_16
DOCKED: REMARK    7  A    between atoms: C_13  and  C_14
DOCKED: REMARK    8  A    between atoms: C_14  and  O_15
DOCKED: REMARK    9  A    between atoms: C_16  and  C_17
DOCKED: REMARK   10  A    between atoms: C_17  and  C_18
DOCKED: REMARK                            x       y       z     vdW  Elec       q    Type
DOCKED: REMARK                         _______ _______ _______ _____ _____    ______ ____
DOCKED: USER                              x       y       z     vdW  Elec       q    Type
DOCKED: USER                           _______ _______ _______ _____ _____    ______ ____
DOCKED: ROOT
DOCKED: ATOM      1  N   UNL     1      28.774 -14.351  -1.355 -0.10 -0.00    +0.000 N 
DOCKED: ATOM      2  H   UNL     1      29.768 -14.138  -1.272 +0.00 -0.00    +0.000 HD
DOCKED: ENDROOT
DOCKED: BRANCH   1   3
DOCKED: ATOM      3  C   UNL     1      28.755 -15.771  -1.791 -0.22 -0.00    +0.000 C 
DOCKED: BRANCH   3   7
DOCKED: ATOM      4  C   UNL     1      24.834 -17.625  -1.546 -0.59 -0.00    +0.000 A 
DOCKED: ATOM      5  C   UNL     1      25.832 -17.933  -0.609 -0.58 -0.00    +0.000 A 
DOCKED: ATOM      6  C   UNL     1      27.092 -17.336  -0.686 -0.45 -0.00    +0.000 A 
DOCKED: ATOM      7  C   UNL     1      27.393 -16.435  -1.721 -0.33 -0.00    +0.000 A 
DOCKED: ATOM      8  C   UNL     1      26.392 -16.113  -2.651 -0.39 -0.00    +0.000 A 
DOCKED: ATOM      9  C   UNL     1      25.130 -16.710  -2.576 -0.45 -0.00    +0.000 A 
DOCKED: BRANCH   4  11
DOCKED: ATOM     10  C   UNL     1      22.484 -17.797  -0.733 -0.80 -0.00    +0.000 C 
DOCKED: ATOM     11  C   UNL     1      23.516 -18.296  -1.428 -0.77 -0.00    +0.000 C 
DOCKED: BRANCH  10  13
DOCKED: ATOM     12  O   UNL     1      20.128 -17.955  -1.034 -2.04 -0.00    +0.000 OA
DOCKED: ATOM     13  C   UNL     1      21.191 -18.500  -0.630 -0.79 -0.00    +0.000 C 
DOCKED: ATOM     14  N   UNL     1      21.140 -19.813  -0.066 -0.67 -0.00    +0.000 N 
DOCKED: ATOM     15  O   UNL     1      19.961 -20.470   0.036 -1.18 -0.00    +0.000 OA
DOCKED: ATOM     16  H   UNL     1      21.968 -20.241   0.251 -0.55 -0.00    +0.000 HD
DOCKED: ENDBRANCH  10  13
DOCKED: ENDBRANCH   4  11
DOCKED: ENDBRANCH   3   7
DOCKED: ENDBRANCH   1   3
DOCKED: BRANCH   1  17
DOCKED: ATOM     17  C   UNL     1      28.233 -14.106   0.001 -0.19 -0.00    +0.000 C 
DOCKED: BRANCH  17  18
DOCKED: ATOM     18  C   UNL     1      29.198 -14.590   1.093 -0.16 -0.00    +0.000 C 
DOCKED: BRANCH  18  19
DOCKED: ATOM     19  O   UNL     1      28.607 -14.492   2.360 -0.31 -0.00    +0.000 OA
DOCKED: ATOM     20  H   UNL     1      28.892 -15.239   2.908 -1.90 -0.00    +0.000 HD
DOCKED: ENDBRANCH  18  19
DOCKED: ENDBRANCH  17  18
DOCKED: ENDBRANCH   1  17
DOCKED: BRANCH   1  21
DOCKED: ATOM     21  C   UNL     1      28.236 -13.413  -2.368 -0.12 -0.00    +0.000 C 
DOCKED: BRANCH  21  22
DOCKED: ATOM     22  C   UNL     1      28.358 -14.014  -3.772 -0.18 -0.00    +0.000 C 
DOCKED: BRANCH  22  23
DOCKED: ATOM     23  C   UNL     1      28.138 -12.967  -4.825 -0.16 -0.00    +0.000 A 
DOCKED: ATOM     24  C   UNL     1      29.015 -12.639  -5.856 -0.13 -0.00    +0.000 A 
DOCKED: ATOM     25  N   UNL     1      28.441 -11.750  -6.699 -0.14 -0.00    +0.000 N 
DOCKED: ATOM     26  C   UNL     1      27.207 -11.524  -6.218 -0.16 -0.00    +0.000 A 
DOCKED: ATOM     27  C   UNL     1      26.983 -12.251  -5.077 -0.21 -0.00    +0.000 A 
DOCKED: ATOM     28  C   UNL     1      25.757 -12.211  -4.410 -0.29 -0.00    +0.000 A 
DOCKED: ATOM     29  C   UNL     1      24.746 -11.392  -4.944 -0.36 -0.00    +0.000 A 
DOCKED: ATOM     30  C   UNL     1      24.978 -10.642  -6.118 -0.33 -0.00    +0.000 A 
DOCKED: ATOM     31  C   UNL     1      26.223 -10.706  -6.770 -0.19 -0.00    +0.000 A 
DOCKED: ATOM     32  H   UNL     1      28.848 -11.349  -7.501 +0.00 -0.00    +0.000 HD
DOCKED: ENDBRANCH  22  23
DOCKED: ENDBRANCH  21  22
DOCKED: ENDBRANCH   1  21
DOCKED: TORSDOF 10
DOCKED: TER
DOCKED: ENDMDL
________________________________________________________________________________


	BEGINNING GENETIC ALGORITHM DOCKING 98 of 100
Run: 98 Seed: 59445535 1702691571 [ Run 98 of 100 GA/GALS ]
Beginning LAMARCKIAN GENETIC ALGORITHM (LGA), with a maximum of 2500000 energy evaluations.

Final-Value: -17.162


	FINAL GENETIC ALGORITHM DOCKED STATE
	_______________________________________________


Detailed state:  trans 27.039 -15.568 -2.121 quatxyzw -0.225445 0.945302 -0.106023 0.210564 center 0.285 0.077 -0.044 ntor 10 -132.4085 52.8391 152.4373 -71.9505 160.8763 -179.8715 -59.3960 -39.5634 179.8472 14.5900
State:	 27.039 -15.568  -2.121  -0.231  0.967 -0.108 155.689   -132.41   52.84  152.44  -71.95  160.88 -179.87  -59.40  -39.56  179.85   14.59

DOCKED: MODEL       98
DOCKED: USER    Run = 98
DOCKED: USER    DPF = ligand_dock.biased.dpf
DOCKED: USER  
DOCKED: USER    Estimated Free Energy of Binding    =  -12.45 kcal/mol  [=(1)+(2)+(3)-(4)]
DOCKED: USER    Estimated Inhibition Constant, Ki   =  753.58 pM (picomolar)  [Temperature = 298.15 K]
DOCKED: USER    
DOCKED: USER    (1) Final Intermolecular Energy     =  -15.43 kcal/mol
DOCKED: USER        vdW + Hbond + desolv Energy     =  -15.43 kcal/mol
DOCKED: USER        Electrostatic Energy            =   +0.00 kcal/mol
DOCKED: USER    (2) Final Total Internal Energy     =   -1.73 kcal/mol
DOCKED: USER    (3) Torsional Free Energy           =   +2.98 kcal/mol
DOCKED: USER    (4) Unbound System's Energy  [=(2)] =   -1.73 kcal/mol
DOCKED: USER    
DOCKED: USER    
DOCKED: USER    NEWDPF move ligand.pdbqt
DOCKED: USER    NEWDPF about 0.285000 0.077000 -0.044000
DOCKED: USER    NEWDPF tran0 27.039317 -15.567654 -2.121111
DOCKED: USER    NEWDPF quaternion0 -0.225445 0.945302 -0.106023 0.210564
DOCKED: USER    NEWDPF axisangle0 -0.230615 0.966982 -0.108455 155.689233
DOCKED: USER    NEWDPF quat0 -0.230615 0.966982 -0.108455 155.689233
DOCKED: USER    NEWDPF dihe0 -132.41 52.84 152.44 -71.95 160.88 -179.87 -59.40 -39.56 179.85 14.59 
DOCKED: USER  keepresnum = 1 
DOCKED: USER  
DOCKED: REMARK  Name = 
DOCKED: REMARK  10 active torsions:
DOCKED: REMARK  status: ('A' for Active; 'I' for Inactive)
DOCKED: REMARK    1  A    between atoms: C_2  and  C_5
DOCKED: REMARK    2  A    between atoms: C_6  and  C_7
DOCKED: REMARK    3  A    between atoms: C_10  and  C_11
DOCKED: REMARK    4  A    between atoms: C_11  and  N_12
DOCKED: REMARK    5  A    between atoms: N_12  and  C_13
DOCKED: REMARK    6  A    between atoms: N_12  and  C_16
DOCKED: REMARK    7  A    between atoms: C_13  and  C_14
DOCKED: REMARK    8  A    between atoms: C_14  and  O_15
DOCKED: REMARK    9  A    between atoms: C_16  and  C_17
DOCKED: REMARK   10  A    between atoms: C_17  and  C_18
DOCKED: REMARK                            x       y       z     vdW  Elec       q    Type
DOCKED: REMARK                         _______ _______ _______ _____ _____    ______ ____
DOCKED: USER                              x       y       z     vdW  Elec       q    Type
DOCKED: USER                           _______ _______ _______ _____ _____    ______ ____
DOCKED: ROOT
DOCKED: ATOM      1  N   UNL     1      28.252 -15.311  -2.619 -0.20 -0.00    +0.000 N 
DOCKED: ATOM      2  H   UNL     1      29.116 -14.795  -2.453 +0.01 -0.00    +0.000 HD
DOCKED: ENDROOT
DOCKED: BRANCH   1   3
DOCKED: ATOM      3  C   UNL     1      27.646 -15.424  -1.267 -0.29 -0.00    +0.000 C 
DOCKED: BRANCH   3   7
DOCKED: ATOM      4  C   UNL     1      24.219 -18.089  -1.107 -0.69 -0.00    +0.000 A 
DOCKED: ATOM      5  C   UNL     1      24.059 -16.734  -1.436 -0.51 -0.00    +0.000 A 
DOCKED: ATOM      6  C   UNL     1      25.161 -15.878  -1.490 -0.42 -0.00    +0.000 A 
DOCKED: ATOM      7  C   UNL     1      26.448 -16.351  -1.187 -0.42 -0.00    +0.000 A 
DOCKED: ATOM      8  C   UNL     1      26.614 -17.708  -0.871 -0.48 -0.00    +0.000 A 
DOCKED: ATOM      9  C   UNL     1      25.512 -18.567  -0.817 -0.41 -0.00    +0.000 A 
DOCKED: BRANCH   4  11
DOCKED: ATOM     10  C   UNL     1      21.838 -18.564  -0.541 -0.85 -0.00    +0.000 C 
DOCKED: ATOM     11  C   UNL     1      23.016 -18.955  -1.051 -0.81 -0.00    +0.000 C 
DOCKED: BRANCH  10  13
DOCKED: ATOM     12  O   UNL     1      20.030 -19.742  -1.545 -2.29 -0.00    +0.000 OA
DOCKED: ATOM     13  C   UNL     1      20.666 -19.459  -0.493 -0.88 -0.00    +0.000 C 
DOCKED: ATOM     14  N   UNL     1      20.245 -20.011   0.756 -0.70 -0.00    +0.000 N 
DOCKED: ATOM     15  O   UNL     1      19.172 -20.833   0.816 -0.80 -0.00    +0.000 OA
DOCKED: ATOM     16  H   UNL     1      20.740 -19.792   1.579 -0.40 -0.00    +0.000 HD
DOCKED: ENDBRANCH  10  13
DOCKED: ENDBRANCH   4  11
DOCKED: ENDBRANCH   3   7
DOCKED: ENDBRANCH   1   3
DOCKED: BRANCH   1  17
DOCKED: ATOM     17  C   UNL     1      27.498 -14.467  -3.573 -0.29 -0.00    +0.000 C 
DOCKED: BRANCH  17  18
DOCKED: ATOM     18  C   UNL     1      27.437 -15.105  -4.968 -0.46 -0.00    +0.000 C 
DOCKED: BRANCH  18  19
DOCKED: ATOM     19  O   UNL     1      26.172 -15.659  -5.208 -1.17 +0.00    +0.000 OA
DOCKED: ATOM     20  H   UNL     1      26.084 -15.869  -6.151 -0.07 +0.00    +0.000 HD
DOCKED: ENDBRANCH  18  19
DOCKED: ENDBRANCH  17  18
DOCKED: ENDBRANCH   1  17
DOCKED: BRANCH   1  21
DOCKED: ATOM     21  C   UNL     1      28.657 -16.614  -3.197 -0.16 -0.00    +0.000 C 
DOCKED: BRANCH  21  22
DOCKED: ATOM     22  C   UNL     1      30.117 -16.566  -3.658 -0.21 -0.00    +0.000 C 
DOCKED: BRANCH  22  23
DOCKED: ATOM     23  C   UNL     1      30.226 -16.849  -5.128 -0.26 -0.00    +0.000 A 
DOCKED: ATOM     24  C   UNL     1      30.358 -15.903  -6.141 -0.26 -0.00    +0.000 A 
DOCKED: ATOM     25  N   UNL     1      30.565 -16.511  -7.331 -0.32 -0.00    +0.000 N 
DOCKED: ATOM     26  C   UNL     1      30.580 -17.830  -7.077 -0.28 -0.00    +0.000 A 
DOCKED: ATOM     27  C   UNL     1      30.379 -18.077  -5.743 -0.32 -0.00    +0.000 A 
DOCKED: ATOM     28  C   UNL     1      30.387 -19.374  -5.227 -0.30 -0.00    +0.000 A 
DOCKED: ATOM     29  C   UNL     1      30.605 -20.436  -6.124 -0.39 -0.00    +0.000 A 
DOCKED: ATOM     30  C   UNL     1      30.810 -20.181  -7.498 -0.36 -0.00    +0.000 A 
DOCKED: ATOM     31  C   UNL     1      30.800 -18.862  -7.988 -0.34 -0.00    +0.000 A 
DOCKED: ATOM     32  H   UNL     1      30.681 -16.074  -8.206 -0.08 -0.00    +0.000 HD
DOCKED: ENDBRANCH  22  23
DOCKED: ENDBRANCH  21  22
DOCKED: ENDBRANCH   1  21
DOCKED: TORSDOF 10
DOCKED: TER
DOCKED: ENDMDL
________________________________________________________________________________


	BEGINNING GENETIC ALGORITHM DOCKING 99 of 100
Run: 99 Seed: 150410132 641777778 [ Run 99 of 100 GA/GALS ]
Beginning LAMARCKIAN GENETIC ALGORITHM (LGA), with a maximum of 2500000 energy evaluations.

Final-Value: -18.068


	FINAL GENETIC ALGORITHM DOCKED STATE
	_______________________________________________


Detailed state:  trans 28.324 -15.609 -1.580 quatxyzw -0.844275 0.188281 -0.363375 -0.345990 center 0.285 0.077 -0.044 ntor 10 -129.8159 -86.5698 51.9364 -109.6063 16.3166 55.7895 154.1606 21.2474 46.2831 -149.8575
State:	 28.324 -15.609  -1.580  -0.900  0.201 -0.387 -139.516   -129.82  -86.57   51.94 -109.61   16.32   55.79  154.16   21.25   46.28 -149.86

DOCKED: MODEL       99
DOCKED: USER    Run = 99
DOCKED: USER    DPF = ligand_dock.biased.dpf
DOCKED: USER  
DOCKED: USER    Estimated Free Energy of Binding    =  -13.15 kcal/mol  [=(1)+(2)+(3)-(4)]
DOCKED: USER    Estimated Inhibition Constant, Ki   =  230.56 pM (picomolar)  [Temperature = 298.15 K]
DOCKED: USER    
DOCKED: USER    (1) Final Intermolecular Energy     =  -16.13 kcal/mol
DOCKED: USER        vdW + Hbond + desolv Energy     =  -16.13 kcal/mol
DOCKED: USER        Electrostatic Energy            =   +0.00 kcal/mol
DOCKED: USER    (2) Final Total Internal Energy     =   -1.94 kcal/mol
DOCKED: USER    (3) Torsional Free Energy           =   +2.98 kcal/mol
DOCKED: USER    (4) Unbound System's Energy  [=(2)] =   -1.94 kcal/mol
DOCKED: USER    
DOCKED: USER    
DOCKED: USER    NEWDPF move ligand.pdbqt
DOCKED: USER    NEWDPF about 0.285000 0.077000 -0.044000
DOCKED: USER    NEWDPF tran0 28.324220 -15.608518 -1.580357
DOCKED: USER    NEWDPF quaternion0 -0.844275 0.188281 -0.363375 -0.345990
DOCKED: USER    NEWDPF axisangle0 -0.899851 0.200675 -0.387295 -139.515560
DOCKED: USER    NEWDPF quat0 -0.899851 0.200675 -0.387295 -139.515560
DOCKED: USER    NEWDPF dihe0 -129.82 -86.57 51.94 -109.61 16.32 55.79 154.16 21.25 46.28 -149.86 
DOCKED: USER  keepresnum = 1 
DOCKED: USER  
DOCKED: REMARK  Name = 
DOCKED: REMARK  10 active torsions:
DOCKED: REMARK  status: ('A' for Active; 'I' for Inactive)
DOCKED: REMARK    1  A    between atoms: C_2  and  C_5
DOCKED: REMARK    2  A    between atoms: C_6  and  C_7
DOCKED: REMARK    3  A    between atoms: C_10  and  C_11
DOCKED: REMARK    4  A    between atoms: C_11  and  N_12
DOCKED: REMARK    5  A    between atoms: N_12  and  C_13
DOCKED: REMARK    6  A    between atoms: N_12  and  C_16
DOCKED: REMARK    7  A    between atoms: C_13  and  C_14
DOCKED: REMARK    8  A    between atoms: C_14  and  O_15
DOCKED: REMARK    9  A    between atoms: C_16  and  C_17
DOCKED: REMARK   10  A    between atoms: C_17  and  C_18
DOCKED: REMARK                            x       y       z     vdW  Elec       q    Type
DOCKED: REMARK                         _______ _______ _______ _____ _____    ______ ____
DOCKED: USER                              x       y       z     vdW  Elec       q    Type
DOCKED: USER                           _______ _______ _______ _____ _____    ______ ____
DOCKED: ROOT
DOCKED: ATOM      1  N   UNL     1      27.435 -14.690  -1.969 -0.21 -0.00    +0.000 N 
DOCKED: ATOM      2  H   UNL     1      26.438 -14.511  -2.087 -0.00 -0.00    +0.000 HD
DOCKED: ENDROOT
DOCKED: BRANCH   1   3
DOCKED: ATOM      3  C   UNL     1      27.477 -15.796  -0.976 -0.34 -0.00    +0.000 C 
DOCKED: BRANCH   3   7
DOCKED: ATOM      4  C   UNL     1      23.902 -18.256  -0.788 -0.72 -0.00    +0.000 A 
DOCKED: ATOM      5  C   UNL     1      25.176 -18.837  -0.710 -0.32 -0.00    +0.000 A 
DOCKED: ATOM      6  C   UNL     1      26.326 -18.046  -0.768 -0.49 -0.00    +0.000 A 
DOCKED: ATOM      7  C   UNL     1      26.228 -16.655  -0.935 -0.47 -0.00    +0.000 A 
DOCKED: ATOM      8  C   UNL     1      24.954 -16.069  -0.999 -0.38 -0.00    +0.000 A 
DOCKED: ATOM      9  C   UNL     1      23.802 -16.859  -0.941 -0.53 -0.00    +0.000 A 
DOCKED: BRANCH   4  11
DOCKED: ATOM     10  C   UNL     1      21.449 -18.692  -0.713 -0.87 -0.00    +0.000 C 
DOCKED: ATOM     11  C   UNL     1      22.712 -19.141  -0.734 -0.79 -0.00    +0.000 C 
DOCKED: BRANCH  10  13
DOCKED: ATOM     12  O   UNL     1      19.518 -19.734  -1.636 -2.12 -0.00    +0.000 OA
DOCKED: ATOM     13  C   UNL     1      20.291 -19.604  -0.648 -0.87 -0.00    +0.000 C 
DOCKED: ATOM     14  N   UNL     1      20.040 -20.349   0.546 -0.70 -0.00    +0.000 N 
DOCKED: ATOM     15  O   UNL     1      18.982 -21.189   0.621 -0.80 -0.00    +0.000 OA
DOCKED: ATOM     16  H   UNL     1      20.641 -20.250   1.319 -0.45 -0.00    +0.000 HD
DOCKED: ENDBRANCH  10  13
DOCKED: ENDBRANCH   4  11
DOCKED: ENDBRANCH   3   7
DOCKED: ENDBRANCH   1   3
DOCKED: BRANCH   1  17
DOCKED: ATOM     17  C   UNL     1      27.906 -15.050  -3.325 -0.27 -0.00    +0.000 C 
DOCKED: BRANCH  17  18
DOCKED: ATOM     18  C   UNL     1      26.823 -14.805  -4.385 -0.48 -0.00    +0.000 C 
DOCKED: BRANCH  18  19
DOCKED: ATOM     19  O   UNL     1      25.549 -15.082  -3.870 -0.73 -0.00    +0.000 OA
DOCKED: ATOM     20  H   UNL     1      24.874 -14.766  -4.492 -0.11 -0.00    +0.000 HD
DOCKED: ENDBRANCH  18  19
DOCKED: ENDBRANCH  17  18
DOCKED: ENDBRANCH   1  17
DOCKED: BRANCH   1  21
DOCKED: ATOM     21  C   UNL     1      28.024 -13.425  -1.471 -0.14 -0.00    +0.000 C 
DOCKED: BRANCH  21  22
DOCKED: ATOM     22  C   UNL     1      27.170 -12.847  -0.337 -0.21 -0.00    +0.000 C 
DOCKED: BRANCH  22  23
DOCKED: ATOM     23  C   UNL     1      27.675 -13.304   1.000 -0.21 -0.00    +0.000 A 
DOCKED: ATOM     24  C   UNL     1      28.401 -14.465   1.254 -0.21 -0.00    +0.000 A 
DOCKED: ATOM     25  N   UNL     1      28.808 -14.496   2.543 -0.24 -0.00    +0.000 N 
DOCKED: ATOM     26  C   UNL     1      28.360 -13.359   3.102 -0.27 -0.00    +0.000 A 
DOCKED: ATOM     27  C   UNL     1      27.666 -12.603   2.192 -0.23 -0.00    +0.000 A 
DOCKED: ATOM     28  C   UNL     1      27.131 -11.358   2.527 -0.27 +0.00    +0.000 A 
DOCKED: ATOM     29  C   UNL     1      27.321 -10.896   3.842 -0.22 +0.00    +0.000 A 
DOCKED: ATOM     30  C   UNL     1      28.034 -11.675   4.779 -0.32 +0.00    +0.000 A 
DOCKED: ATOM     31  C   UNL     1      28.565 -12.924   4.410 -0.31 -0.00    +0.000 A 
DOCKED: ATOM     32  H   UNL     1      29.328 -15.208   2.982 -1.85 -0.00    +0.000 HD
DOCKED: ENDBRANCH  22  23
DOCKED: ENDBRANCH  21  22
DOCKED: ENDBRANCH   1  21
DOCKED: TORSDOF 10
DOCKED: TER
DOCKED: ENDMDL
________________________________________________________________________________


	BEGINNING GENETIC ALGORITHM DOCKING 100 of 100
Run: 100 Seed: 477877211 679317889 [ Run 100 of 100 GA/GALS ]
Beginning LAMARCKIAN GENETIC ALGORITHM (LGA), with a maximum of 2500000 energy evaluations.

Final-Value: -18.402


	FINAL GENETIC ALGORITHM DOCKED STATE
	_______________________________________________


Detailed state:  trans 28.248 -14.444 -0.914 quatxyzw -0.106395 0.631007 0.308975 -0.703594 center 0.285 0.077 -0.044 ntor 10 84.9123 -14.1990 47.9224 -115.9587 -179.3252 22.8666 -26.0712 149.1743 45.2420 178.7678
State:	 28.248 -14.444  -0.914  -0.150  0.888  0.435 -90.568     84.91  -14.20   47.92 -115.96 -179.33   22.87  -26.07  149.17   45.24  178.77

DOCKED: MODEL      100
DOCKED: USER    Run = 100
DOCKED: USER    DPF = ligand_dock.biased.dpf
DOCKED: USER  
DOCKED: USER    Estimated Free Energy of Binding    =  -12.82 kcal/mol  [=(1)+(2)+(3)-(4)]
DOCKED: USER    Estimated Inhibition Constant, Ki   =  400.30 pM (picomolar)  [Temperature = 298.15 K]
DOCKED: USER    
DOCKED: USER    (1) Final Intermolecular Energy     =  -15.80 kcal/mol
DOCKED: USER        vdW + Hbond + desolv Energy     =  -15.80 kcal/mol
DOCKED: USER        Electrostatic Energy            =   +0.00 kcal/mol
DOCKED: USER    (2) Final Total Internal Energy     =   -2.60 kcal/mol
DOCKED: USER    (3) Torsional Free Energy           =   +2.98 kcal/mol
DOCKED: USER    (4) Unbound System's Energy  [=(2)] =   -2.60 kcal/mol
DOCKED: USER    
DOCKED: USER    
DOCKED: USER    NEWDPF move ligand.pdbqt
DOCKED: USER    NEWDPF about 0.285000 0.077000 -0.044000
DOCKED: USER    NEWDPF tran0 28.248206 -14.443702 -0.914006
DOCKED: USER    NEWDPF quaternion0 -0.106395 0.631007 0.308975 -0.703594
DOCKED: USER    NEWDPF axisangle0 -0.149725 0.887989 0.434807 -90.567918
DOCKED: USER    NEWDPF quat0 -0.149725 0.887989 0.434807 -90.567918
DOCKED: USER    NEWDPF dihe0 84.91 -14.20 47.92 -115.96 -179.33 22.87 -26.07 149.17 45.24 178.77 
DOCKED: USER  keepresnum = 1 
DOCKED: USER  
DOCKED: REMARK  Name = 
DOCKED: REMARK  10 active torsions:
DOCKED: REMARK  status: ('A' for Active; 'I' for Inactive)
DOCKED: REMARK    1  A    between atoms: C_2  and  C_5
DOCKED: REMARK    2  A    between atoms: C_6  and  C_7
DOCKED: REMARK    3  A    between atoms: C_10  and  C_11
DOCKED: REMARK    4  A    between atoms: C_11  and  N_12
DOCKED: REMARK    5  A    between atoms: N_12  and  C_13
DOCKED: REMARK    6  A    between atoms: N_12  and  C_16
DOCKED: REMARK    7  A    between atoms: C_13  and  C_14
DOCKED: REMARK    8  A    between atoms: C_14  and  O_15
DOCKED: REMARK    9  A    between atoms: C_16  and  C_17
DOCKED: REMARK   10  A    between atoms: C_17  and  C_18
DOCKED: REMARK                            x       y       z     vdW  Elec       q    Type
DOCKED: REMARK                         _______ _______ _______ _____ _____    ______ ____
DOCKED: USER                              x       y       z     vdW  Elec       q    Type
DOCKED: USER                           _______ _______ _______ _____ _____    ______ ____
DOCKED: ROOT
DOCKED: ATOM      1  N   UNL     1      28.351 -15.097   0.247 -0.23 -0.00    +0.000 N 
DOCKED: ATOM      2  H   UNL     1      27.829 -15.648   0.928 -0.29 -0.00    +0.000 HD
DOCKED: ENDROOT
DOCKED: BRANCH   1   3
DOCKED: ATOM      3  C   UNL     1      27.555 -15.237  -1.000 -0.28 -0.00    +0.000 C 
DOCKED: BRANCH   3   7
DOCKED: ATOM      4  C   UNL     1      24.255 -18.054  -0.788 -0.69 -0.00    +0.000 A 
DOCKED: ATOM      5  C   UNL     1      24.101 -16.818  -1.433 -0.53 -0.00    +0.000 A 
DOCKED: ATOM      6  C   UNL     1      25.162 -15.912  -1.503 -0.44 -0.00    +0.000 A 
DOCKED: ATOM      7  C   UNL     1      26.397 -16.213  -0.904 -0.42 -0.00    +0.000 A 
DOCKED: ATOM      8  C   UNL     1      26.559 -17.454  -0.271 -0.51 -0.00    +0.000 A 
DOCKED: ATOM      9  C   UNL     1      25.498 -18.362  -0.200 -0.57 -0.00    +0.000 A 
DOCKED: BRANCH   4  11
DOCKED: ATOM     10  C   UNL     1      21.822 -18.584  -0.894 -0.83 -0.00    +0.000 C 
DOCKED: ATOM     11  C   UNL     1      23.094 -18.976  -0.730 -0.82 -0.00    +0.000 C 
DOCKED: BRANCH  10  13
DOCKED: ATOM     12  O   UNL     1      19.955 -19.734  -1.821 -2.39 -0.00    +0.000 OA
DOCKED: ATOM     13  C   UNL     1      20.692 -19.530  -0.818 -0.87 -0.00    +0.000 C 
DOCKED: ATOM     14  N   UNL     1      20.426 -20.222   0.405 -0.69 -0.00    +0.000 N 
DOCKED: ATOM     15  O   UNL     1      19.393 -21.092   0.490 -0.85 -0.00    +0.000 OA
DOCKED: ATOM     16  H   UNL     1      20.999 -20.064   1.190 -0.53 -0.00    +0.000 HD
DOCKED: ENDBRANCH  10  13
DOCKED: ENDBRANCH   4  11
DOCKED: ENDBRANCH   3   7
DOCKED: ENDBRANCH   1   3
DOCKED: BRANCH   1  17
DOCKED: ATOM     17  C   UNL     1      28.379 -13.733   0.821 -0.20 -0.00    +0.000 C 
DOCKED: BRANCH  17  18
DOCKED: ATOM     18  C   UNL     1      27.752 -13.694   2.221 -0.32 -0.00    +0.000 C 
DOCKED: BRANCH  18  19
DOCKED: ATOM     19  O   UNL     1      28.065 -14.856   2.940 -0.38 -0.00    +0.000 OA
DOCKED: ATOM     20  H   UNL     1      28.882 -15.243   2.589 -1.96 -0.00    +0.000 HD
DOCKED: ENDBRANCH  18  19
DOCKED: ENDBRANCH  17  18
DOCKED: ENDBRANCH   1  17
DOCKED: BRANCH   1  21
DOCKED: ATOM     21  C   UNL     1      29.696 -15.715   0.162 -0.13 -0.00    +0.000 C 
DOCKED: BRANCH  21  22
DOCKED: ATOM     22  C   UNL     1      30.522 -15.051  -0.945 -0.08 -0.00    +0.000 C 
DOCKED: BRANCH  22  23
DOCKED: ATOM     23  C   UNL     1      30.269 -15.709  -2.270 -0.09 -0.00    +0.000 A 
DOCKED: ATOM     24  C   UNL     1      30.464 -17.054  -2.572 -0.16 -0.00    +0.000 A 
DOCKED: ATOM     25  N   UNL     1      30.008 -17.330  -3.815 -0.24 -0.00    +0.000 N 
DOCKED: ATOM     26  C   UNL     1      29.514 -16.177  -4.294 -0.24 -0.00    +0.000 A 
DOCKED: ATOM     27  C   UNL     1      29.652 -15.164  -3.380 -0.12 -0.00    +0.000 A 
DOCKED: ATOM     28  C   UNL     1      29.181 -13.874  -3.636 -0.09 -0.00    +0.000 A 
DOCKED: ATOM     29  C   UNL     1      28.557 -13.638  -4.874 -0.18 -0.00    +0.000 A 
DOCKED: ATOM     30  C   UNL     1      28.417 -14.681  -5.816 -0.35 -0.00    +0.000 A 
DOCKED: ATOM     31  C   UNL     1      28.898 -15.971  -5.528 -0.30 -0.00    +0.000 A 
DOCKED: ATOM     32  H   UNL     1      30.034 -18.201  -4.274 -0.03 -0.00    +0.000 HD
DOCKED: ENDBRANCH  22  23
DOCKED: ENDBRANCH  21  22
DOCKED: ENDBRANCH   1  21
DOCKED: TORSDOF 10
DOCKED: TER
DOCKED: ENDMDL
________________________________________________________________________________

DPF>                           # do this many hybrid GA-LS runs

DPF> analysis                             # perform a ranked cluster analysis


		CLUSTER ANALYSIS OF CONFORMATIONS
		_________________________________

Number of conformations = 100

RMSD cluster analysis will be performed using the ligand atoms only (32 / 32 total atoms).

Outputting structurally similar clusters, ranked in order of increasing energy.


________________________________________________________________________________

Number of distinct conformational clusters found = 18,  out of 100 runs,
Using an rmsd-tolerance of 2.0 A


	CLUSTERING HISTOGRAM
	____________________

________________________________________________________________________________
     |           |     |           |     |                                    
Clus | Lowest    | Run | Mean      | Num | Histogram                          
-ter | Binding   |     | Binding   | in  |                                    
Rank | Energy    |     | Energy    | Clus|    5    10   15   20   25   30   35
_____|___________|_____|___________|_____|____:____|____:____|____:____|____:___
   1 |    -13.34 |  38 |    -11.55 |  16 |################
   2 |    -13.33 |  23 |    -12.22 |  12 |############
   3 |    -13.09 |  74 |    -11.54 |   3 |###
   4 |    -13.06 |  52 |    -11.84 |   9 |#########
   5 |    -12.92 |  77 |    -12.20 |  27 |###########################
   6 |    -12.72 |   3 |    -12.03 |   3 |###
   7 |    -12.63 |  79 |    -11.30 |   6 |######
   8 |    -12.45 |  94 |    -11.88 |   2 |##
   9 |    -12.14 |  11 |    -11.31 |   7 |#######
  10 |    -12.13 |  46 |    -12.13 |   1 |#
  11 |    -11.59 |   7 |    -11.59 |   1 |#
  12 |    -11.54 |  42 |    -11.09 |   5 |#####
  13 |    -11.22 |  37 |    -11.22 |   1 |#
  14 |    -11.18 |  10 |    -11.18 |   1 |#
  15 |    -10.87 |  50 |    -10.70 |   3 |###
  16 |    -10.67 |  19 |    -10.67 |   1 |#
  17 |    -10.58 |  21 |    -10.58 |   1 |#
  18 |    -10.14 |  55 |    -10.14 |   1 |#
_____|___________|_____|___________|_____|______________________________________


Number of multi-member conformational clusters found = 11, out of 100 runs.

	RMSD TABLE
	__________

_____________________________________________________________________
     |      |      |           |         |                 |
Rank | Sub- | Run  | Binding   | Cluster | Reference       | Grep
     | Rank |      | Energy    | RMSD    | RMSD            | Pattern
_____|______|______|___________|_________|_________________|___________
   1      1     38      -13.34      0.00     26.27           RANKING
   1      2     99      -13.15      1.10     26.20           RANKING
   1      3     27      -12.45      1.51     26.63           RANKING
   1      4     85      -12.31      0.94     26.48           RANKING
   1      5     12      -12.20      1.64     26.01           RANKING
   1      6     45      -12.13      1.91     26.04           RANKING
   1      7     82      -11.76      0.90     26.18           RANKING
   1      8     86      -11.39      1.08     26.39           RANKING
   1      9     20      -11.30      1.75     26.49           RANKING
   1     10      5      -11.06      1.81     27.78           RANKING
   1     11     76      -11.06      1.66     26.64           RANKING
   1     12      8      -11.03      1.81     25.70           RANKING
   1     13     60      -11.00      1.74     26.55           RANKING
   1     14     31      -10.67      1.84     26.84           RANKING
   1     15     29      -10.62      1.79     26.92           RANKING
   1     16     84       -9.39      1.84     26.44           RANKING
   2      1     23      -13.33      0.00     25.94           RANKING
   2      2     62      -13.27      0.80     25.73           RANKING
   2      3     26      -13.24      1.87     26.94           RANKING
   2      4     13      -12.77      1.79     26.94           RANKING
   2      5     93      -12.07      1.99     27.07           RANKING
   2      6     43      -12.00      1.72     25.71           RANKING
   2      7     51      -11.83      1.80     26.62           RANKING
   2      8     88      -11.81      1.62     26.25           RANKING
   2      9     97      -11.79      1.90     26.33           RANKING
   2     10     63      -11.78      1.72     26.63           RANKING
   2     11     32      -11.72      1.13     25.86           RANKING
   2     12     96      -11.00      1.84     27.15           RANKING
   3      1     74      -13.09      0.00     25.58           RANKING
   3      2     71      -11.49      1.21     25.64           RANKING
   3      3     80      -10.04      2.00     26.46           RANKING
   4      1     52      -13.06      0.00     26.06           RANKING
   4      2     40      -12.74      0.95     26.49           RANKING
   4      3     57      -12.52      0.76     26.11           RANKING
   4      4     65      -12.03      1.87     26.10           RANKING
   4      5     87      -11.72      1.81     26.27           RANKING
   4      6     90      -11.48      1.48     26.29           RANKING
   4      7      2      -11.32      0.99     25.86           RANKING
   4      8     56      -10.86      1.91     26.63           RANKING
   4      9     33      -10.80      1.08     26.08           RANKING
   5      1     77      -12.92      0.00     28.60           RANKING
   5      2     17      -12.88      1.10     28.27           RANKING
   5      3    100      -12.82      1.69     27.49           RANKING
   5      4     92      -12.80      1.87     28.32           RANKING
   5      5     72      -12.59      1.25     27.78           RANKING
   5      6     44      -12.57      1.44     27.59           RANKING
   5      7     28      -12.50      1.90     28.18           RANKING
   5      8     36      -12.50      1.60     28.36           RANKING
   5      9     73      -12.47      1.49     28.10           RANKING
   5     10     98      -12.45      1.95     28.45           RANKING
   5     11     78      -12.40      1.66     28.47           RANKING
   5     12     15      -12.35      1.50     28.44           RANKING
   5     13      6      -12.33      1.17     28.42           RANKING
   5     14     61      -12.31      1.97     28.42           RANKING
   5     15     64      -12.25      1.50     28.05           RANKING
   5     16     58      -12.12      1.89     28.69           RANKING
   5     17     83      -12.11      1.53     27.70           RANKING
   5     18     68      -12.08      1.90     27.51           RANKING
   5     19     47      -12.07      1.32     28.93           RANKING
   5     20     69      -12.06      1.62     28.33           RANKING
   5     21     30      -11.87      2.00     28.51           RANKING
   5     22     41      -11.80      1.54     28.17           RANKING
   5     23     67      -11.78      1.58     29.31           RANKING
   5     24      9      -11.58      1.90     28.76           RANKING
   5     25     24      -11.52      1.54     28.89           RANKING
   5     26     91      -11.41      1.81     28.27           RANKING
   5     27     53      -10.98      1.71     28.70           RANKING
   6      1      3      -12.72      0.00     29.04           RANKING
   6      2     70      -12.28      1.45     28.19           RANKING
   6      3     75      -11.10      0.94     29.08           RANKING
   7      1     79      -12.63      0.00     26.70           RANKING
   7      2     89      -11.67      1.87     26.71           RANKING
   7      3     18      -11.27      1.99     27.38           RANKING
   7      4      1      -11.20      0.64     26.73           RANKING
   7      5     14      -10.88      1.40     26.50           RANKING
   7      6     54      -10.19      1.70     26.77           RANKING
   8      1     94      -12.45      0.00     27.73           RANKING
   8      2     25      -11.31      1.89     26.41           RANKING
   9      1     11      -12.14      0.00     29.22           RANKING
   9      2     34      -11.57      1.85     27.99           RANKING
   9      3     16      -11.44      1.45     29.42           RANKING
   9      4     81      -11.43      1.15     28.73           RANKING
   9      5     39      -11.39      1.16     28.85           RANKING
   9      6     48      -11.16      1.58     29.45           RANKING
   9      7     22      -10.03      1.60     28.78           RANKING
  10      1     46      -12.13      0.00     28.71           RANKING
  11      1      7      -11.59      0.00     27.17           RANKING
  12      1     42      -11.54      0.00     27.93           RANKING
  12      2     59      -11.53      1.56     27.38           RANKING
  12      3     95      -10.97      1.64     27.34           RANKING
  12      4     35      -10.88      1.55     27.04           RANKING
  12      5     66      -10.54      1.83     27.52           RANKING
  13      1     37      -11.22      0.00     28.34           RANKING
  14      1     10      -11.18      0.00     29.74           RANKING
  15      1     50      -10.87      0.00     26.50           RANKING
  15      2     49      -10.79      1.76     26.81           RANKING
  15      3      4      -10.46      1.52     27.25           RANKING
  16      1     19      -10.67      0.00     26.03           RANKING
  17      1     21      -10.58      0.00     27.51           RANKING
  18      1     55      -10.14      0.00     26.49           RANKING
_______________________________________________________________________



	INFORMATION ENTROPY ANALYSIS FOR THIS CLUSTERING
	________________________________________________


Information entropy for this clustering = 0.51  (rmstol = 2.00 Angstrom)

_______________________________________________________________________


	STATISTICAL MECHANICAL ANALYSIS
	_______________________________


Partition function, Q =   102.00            at Temperature, T = 298.15 K
Free energy,        A ~ -2740.22 kcal/mol   at Temperature, T = 298.15 K
Internal energy,    U =   -11.74 kcal/mol   at Temperature, T = 298.15 K
Entropy,            S =     9.15 kcal/mol/K at Temperature, T = 298.15 K

_______________________________________________________________________


	LOWEST ENERGY DOCKED CONFORMATION from EACH CLUSTER
	___________________________________________________



Keeping original residue number (specified in the input PDBQ file) for outputting.

MODEL       38
USER    Run = 38
USER    Cluster Rank = 1
USER    Number of conformations in this cluster = 16
USER  
USER    RMSD from reference structure       = 26.267 A
USER  
USER    Estimated Free Energy of Binding    =  -13.34 kcal/mol  [=(1)+(2)+(3)-(4)]
USER    Estimated Inhibition Constant, Ki   =  167.35 pM (picomolar)  [Temperature = 298.15 K]
USER    
USER    (1) Final Intermolecular Energy     =  -16.32 kcal/mol
USER        vdW + Hbond + desolv Energy     =  -16.32 kcal/mol
USER        Electrostatic Energy            =   +0.00 kcal/mol
USER    (2) Final Total Internal Energy     =   -1.77 kcal/mol
USER    (3) Torsional Free Energy           =   +2.98 kcal/mol
USER    (4) Unbound System's Energy  [=(2)] =   -1.77 kcal/mol
USER    
USER    
USER  
USER    DPF = ligand_dock.biased.dpf
USER    NEWDPF move	ligand.pdbqt
USER    NEWDPF about	0.285000 0.077000 -0.044000
USER    NEWDPF tran0	28.186098 -15.878915 -2.662486
USER    NEWDPF axisangle0	0.903560 -0.354746 0.240280 152.974315
USER    NEWDPF quaternion0	0.878547 -0.344926 0.233628 0.233663
USER    NEWDPF dihe0	-171.01 1.63 15.36 -153.94 59.89 -128.86 -6.97 98.90 58.29 -135.71 
USER  
USER                              x       y       z    vdW   Elec        q     RMS 
ATOM      1  N   UNL     1      27.449 -14.770  -2.774 -0.23 -0.00    +0.000    26.267
ATOM      2  H   UNL     1      26.554 -14.351  -2.523 -0.00 -0.00    +0.000    26.267
ATOM      3  C   UNL     1      27.623 -15.851  -1.768 -0.32 -0.00    +0.000    26.267
ATOM      4  C   UNL     1      23.994 -17.993  -0.717 -0.70 -0.00    +0.000    26.267
ATOM      5  C   UNL     1      25.245 -18.625  -0.645 -0.52 -0.00    +0.000    26.267
ATOM      6  C   UNL     1      26.412 -17.935  -0.980 -0.43 -0.00    +0.000    26.267
ATOM      7  C   UNL     1      26.352 -16.604  -1.424 -0.45 -0.00    +0.000    26.267
ATOM      8  C   UNL     1      25.104 -15.965  -1.484 -0.44 -0.00    +0.000    26.267
ATOM      9  C   UNL     1      23.934 -16.653  -1.148 -0.42 -0.00    +0.000    26.267
ATOM     10  C   UNL     1      21.616 -18.678  -1.015 -0.82 -0.00    +0.000    26.267
ATOM     11  C   UNL     1      22.782 -18.773  -0.361 -0.81 -0.00    +0.000    26.267
ATOM     12  O   UNL     1      19.527 -19.728  -1.466 -2.10 -0.00    +0.000    26.267
ATOM     13  C   UNL     1      20.429 -19.463  -0.624 -0.89 -0.00    +0.000    26.267
ATOM     14  N   UNL     1      20.296 -19.927   0.721 -0.69 -0.00    +0.000    26.267
ATOM     15  O   UNL     1      19.213 -20.648   1.095 -0.76 -0.00    +0.000    26.267
ATOM     16  H   UNL     1      20.998 -19.721   1.380 -0.49 -0.00    +0.000    26.267
ATOM     17  C   UNL     1      27.259 -15.237  -4.166 -0.44 -0.00    +0.000    26.267
ATOM     18  C   UNL     1      25.788 -15.565  -4.458 -0.57 -0.00    +0.000    26.267
ATOM     19  O   UNL     1      24.960 -14.484  -4.124 -1.03 -0.00    +0.000    26.267
ATOM     20  H   UNL     1      24.389 -14.269  -4.879 -0.44 -0.00    +0.000    26.267
ATOM     21  C   UNL     1      28.456 -13.689  -2.661 -0.12 -0.00    +0.000    26.267
ATOM     22  C   UNL     1      29.578 -14.100  -1.701 -0.07 -0.00    +0.000    26.267
ATOM     23  C   UNL     1      29.070 -14.193  -0.292 -0.11 -0.00    +0.000    26.267
ATOM     24  C   UNL     1      29.554 -15.039   0.703 -0.10 -0.00    +0.000    26.267
ATOM     25  N   UNL     1      28.960 -14.765   1.887 -0.06 -0.00    +0.000    26.267
ATOM     26  C   UNL     1      28.117 -13.745   1.652 -0.22 -0.00    +0.000    26.267
ATOM     27  C   UNL     1      28.158 -13.365   0.335 -0.14 -0.00    +0.000    26.267
ATOM     28  C   UNL     1      27.394 -12.300  -0.147 -0.15 -0.00    +0.000    26.267
ATOM     29  C   UNL     1      26.566 -11.622   0.766 -0.26 +0.00    +0.000    26.267
ATOM     30  C   UNL     1      26.524 -12.014   2.122 -0.27 +0.00    +0.000    26.267
ATOM     31  C   UNL     1      27.308 -13.089   2.579 -0.30 -0.00    +0.000    26.267
ATOM     32  H   UNL     1      29.114 -15.221   2.745 -1.98 -0.00    +0.000    26.267
TER
ENDMDL
MODEL       23
USER    Run = 23
USER    Cluster Rank = 2
USER    Number of conformations in this cluster = 12
USER  
USER    RMSD from reference structure       = 25.942 A
USER  
USER    Estimated Free Energy of Binding    =  -13.33 kcal/mol  [=(1)+(2)+(3)-(4)]
USER    Estimated Inhibition Constant, Ki   =  169.37 pM (picomolar)  [Temperature = 298.15 K]
USER    
USER    (1) Final Intermolecular Energy     =  -16.31 kcal/mol
USER        vdW + Hbond + desolv Energy     =  -16.31 kcal/mol
USER        Electrostatic Energy            =   +0.00 kcal/mol
USER    (2) Final Total Internal Energy     =   -2.41 kcal/mol
USER    (3) Torsional Free Energy           =   +2.98 kcal/mol
USER    (4) Unbound System's Energy  [=(2)] =   -2.41 kcal/mol
USER    
USER    
USER  
USER    DPF = ligand_dock.biased.dpf
USER    NEWDPF move	ligand.pdbqt
USER    NEWDPF about	0.285000 0.077000 -0.044000
USER    NEWDPF tran0	27.283649 -15.668047 -1.475841
USER    NEWDPF axisangle0	0.440181 -0.586650 -0.679767 -172.996591
USER    NEWDPF quaternion0	0.439359 -0.585554 -0.678498 -0.061078
USER    NEWDPF dihe0	-104.53 -2.63 8.19 -149.97 -167.56 -22.32 171.80 107.15 -5.23 -44.65 
USER  
USER                              x       y       z    vdW   Elec        q     RMS 
ATOM      1  N   UNL     1      28.239 -14.843  -1.038 -0.16 -0.00    +0.000    25.942
ATOM      2  H   UNL     1      29.128 -14.807  -0.540 +0.00 -0.00    +0.000    25.942
ATOM      3  C   UNL     1      28.169 -16.244  -1.529 -0.32 -0.00    +0.000    25.942
ATOM      4  C   UNL     1      24.452 -18.333  -0.699 -0.68 -0.00    +0.000    25.942
ATOM      5  C   UNL     1      24.593 -17.554  -1.858 -0.56 -0.00    +0.000    25.942
ATOM      6  C   UNL     1      25.789 -16.884  -2.126 -0.45 -0.00    +0.000    25.942
ATOM      7  C   UNL     1      26.864 -16.955  -1.225 -0.43 -0.00    +0.000    25.942
ATOM      8  C   UNL     1      26.731 -17.744  -0.072 -0.48 -0.00    +0.000    25.942
ATOM      9  C   UNL     1      25.535 -18.416   0.198 -0.42 -0.00    +0.000    25.942
ATOM     10  C   UNL     1      22.054 -18.807  -1.187 -0.77 -0.00    +0.000    25.942
ATOM     11  C   UNL     1      23.157 -19.014  -0.453 -0.73 -0.00    +0.000    25.942
ATOM     12  O   UNL     1      19.957 -19.733  -1.830 -2.40 -0.00    +0.000    25.942
ATOM     13  C   UNL     1      20.780 -19.497  -0.904 -0.86 -0.00    +0.000    25.942
ATOM     14  N   UNL     1      20.474 -19.902   0.433 -0.70 -0.00    +0.000    25.942
ATOM     15  O   UNL     1      19.309 -20.535   0.708 -0.84 -0.00    +0.000    25.942
ATOM     16  H   UNL     1      21.114 -19.719   1.158 -0.48 -0.00    +0.000    25.942
ATOM     17  C   UNL     1      27.230 -14.488  -0.014 -0.30 -0.00    +0.000    25.942
ATOM     18  C   UNL     1      27.616 -15.023   1.372 -0.04 -0.00    +0.000    25.942
ATOM     19  O   UNL     1      28.946 -14.703   1.677 -0.22 -0.00    +0.000    25.942
ATOM     20  H   UNL     1      29.242 -15.236   2.431 -1.98 -0.00    +0.000    25.942
ATOM     21  C   UNL     1      28.335 -13.840  -2.124 -0.13 -0.00    +0.000    25.942
ATOM     22  C   UNL     1      27.873 -14.444  -3.454 -0.24 -0.00    +0.000    25.942
ATOM     23  C   UNL     1      26.575 -13.834  -3.897 -0.34 -0.00    +0.000    25.942
ATOM     24  C   UNL     1      25.316 -14.421  -3.809 -0.47 -0.00    +0.000    25.942
ATOM     25  N   UNL     1      24.356 -13.541  -4.173 -0.38 -0.00    +0.000    25.942
ATOM     26  C   UNL     1      24.996 -12.399  -4.477 -0.22 -0.00    +0.000    25.942
ATOM     27  C   UNL     1      26.351 -12.536  -4.318 -0.28 -0.00    +0.000    25.942
ATOM     28  C   UNL     1      27.228 -11.472  -4.540 -0.15 -0.00    +0.000    25.942
ATOM     29  C   UNL     1      26.677 -10.242  -4.940 -0.14 -0.00    +0.000    25.942
ATOM     30  C   UNL     1      25.282 -10.101  -5.105 -0.29 -0.00    +0.000    25.942
ATOM     31  C   UNL     1      24.423 -11.190  -4.870 -0.29 -0.00    +0.000    25.942
ATOM     32  H   UNL     1      23.386 -13.705  -4.209 -0.57 -0.00    +0.000    25.942
TER
ENDMDL
MODEL       74
USER    Run = 74
USER    Cluster Rank = 3
USER    Number of conformations in this cluster = 3
USER  
USER    RMSD from reference structure       = 25.578 A
USER  
USER    Estimated Free Energy of Binding    =  -13.09 kcal/mol  [=(1)+(2)+(3)-(4)]
USER    Estimated Inhibition Constant, Ki   =  255.75 pM (picomolar)  [Temperature = 298.15 K]
USER    
USER    (1) Final Intermolecular Energy     =  -16.07 kcal/mol
USER        vdW + Hbond + desolv Energy     =  -16.07 kcal/mol
USER        Electrostatic Energy            =   +0.00 kcal/mol
USER    (2) Final Total Internal Energy     =   -2.20 kcal/mol
USER    (3) Torsional Free Energy           =   +2.98 kcal/mol
USER    (4) Unbound System's Energy  [=(2)] =   -2.20 kcal/mol
USER    
USER    
USER  
USER    DPF = ligand_dock.biased.dpf
USER    NEWDPF move	ligand.pdbqt
USER    NEWDPF about	0.285000 0.077000 -0.044000
USER    NEWDPF tran0	27.811996 -15.255392 0.241271
USER    NEWDPF axisangle0	-0.497639 0.467583 0.730562 -172.377577
USER    NEWDPF quaternion0	-0.496539 0.466549 0.728947 -0.066469
USER    NEWDPF dihe0	12.87 -60.39 58.83 -134.21 -93.58 17.59 168.85 153.46 161.58 -29.90 
USER  
USER                              x       y       z    vdW   Elec        q     RMS 
ATOM      1  N   UNL     1      28.664 -14.658   1.080 -0.21 -0.00    +0.000    25.578
ATOM      2  H   UNL     1      29.456 -14.823   1.700 -0.88 -0.00    +0.000    25.578
ATOM      3  C   UNL     1      28.705 -15.813   0.145 -0.14 -0.00    +0.000    25.578
ATOM      4  C   UNL     1      24.782 -17.224  -1.070 -0.61 -0.00    +0.000    25.578
ATOM      5  C   UNL     1      25.551 -17.952  -0.151 -0.58 -0.00    +0.000    25.578
ATOM      6  C   UNL     1      26.812 -17.497   0.243 -0.31 -0.00    +0.000    25.578
ATOM      7  C   UNL     1      27.345 -16.316  -0.299 -0.35 -0.00    +0.000    25.578
ATOM      8  C   UNL     1      26.572 -15.578  -1.209 -0.35 -0.00    +0.000    25.578
ATOM      9  C   UNL     1      25.310 -16.031  -1.603 -0.48 -0.00    +0.000    25.578
ATOM     10  C   UNL     1      22.417 -17.876  -0.623 -0.82 -0.00    +0.000    25.578
ATOM     11  C   UNL     1      23.454 -17.756  -1.465 -0.68 -0.00    +0.000    25.578
ATOM     12  O   UNL     1      20.039 -17.859  -0.708 -2.00 +0.00    +0.000    25.578
ATOM     13  C   UNL     1      21.114 -18.421  -1.051 -0.74 -0.00    +0.000    25.578
ATOM     14  N   UNL     1      21.069 -19.597  -1.862 -0.62 -0.00    +0.000    25.578
ATOM     15  O   UNL     1      19.881 -20.109  -2.262 -2.14 -0.00    +0.000    25.578
ATOM     16  H   UNL     1      21.907 -20.038  -2.130 -0.54 -0.00    +0.000    25.578
ATOM     17  C   UNL     1      27.491 -14.628   1.983 +0.01 -0.00    +0.000    25.578
ATOM     18  C   UNL     1      27.910 -14.452   3.450 -0.44 -0.00    +0.000    25.578
ATOM     19  O   UNL     1      29.300 -14.568   3.589 -0.38 -0.00    +0.000    25.578
ATOM     20  H   UNL     1      29.607 -15.356   3.116 -1.61 -0.00    +0.000    25.578
ATOM     21  C   UNL     1      28.918 -13.355   0.423 -0.12 -0.00    +0.000    25.578
ATOM     22  C   UNL     1      27.796 -13.026  -0.567 -0.15 -0.00    +0.000    25.578
ATOM     23  C   UNL     1      26.926 -11.921  -0.043 -0.15 -0.00    +0.000    25.578
ATOM     24  C   UNL     1      26.140 -11.966   1.105 -0.32 +0.00    +0.000    25.578
ATOM     25  N   UNL     1      25.595 -10.753   1.353 -0.43 +0.00    +0.000    25.578
ATOM     26  C   UNL     1      26.041  -9.940   0.381 -0.29 +0.00    +0.000    25.578
ATOM     27  C   UNL     1      26.859 -10.614  -0.489 -0.11 +0.00    +0.000    25.578
ATOM     28  C   UNL     1      27.475  -9.972  -1.565 -0.09 -0.00    +0.000    25.578
ATOM     29  C   UNL     1      27.226  -8.598  -1.738 -0.09 -0.00    +0.000    25.578
ATOM     30  C   UNL     1      26.383  -7.905  -0.843 -0.16 +0.00    +0.000    25.578
ATOM     31  C   UNL     1      25.780  -8.578   0.235 -0.23 +0.00    +0.000    25.578
ATOM     32  H   UNL     1      24.993 -10.517   2.095 -0.06 +0.00    +0.000    25.578
TER
ENDMDL
MODEL       52
USER    Run = 52
USER    Cluster Rank = 4
USER    Number of conformations in this cluster = 9
USER  
USER    RMSD from reference structure       = 26.058 A
USER  
USER    Estimated Free Energy of Binding    =  -13.06 kcal/mol  [=(1)+(2)+(3)-(4)]
USER    Estimated Inhibition Constant, Ki   =  265.82 pM (picomolar)  [Temperature = 298.15 K]
USER    
USER    (1) Final Intermolecular Energy     =  -16.05 kcal/mol
USER        vdW + Hbond + desolv Energy     =  -16.05 kcal/mol
USER        Electrostatic Energy            =   +0.00 kcal/mol
USER    (2) Final Total Internal Energy     =   -1.71 kcal/mol
USER    (3) Torsional Free Energy           =   +2.98 kcal/mol
USER    (4) Unbound System's Energy  [=(2)] =   -1.71 kcal/mol
USER    
USER    
USER  
USER    DPF = ligand_dock.biased.dpf
USER    NEWDPF move	ligand.pdbqt
USER    NEWDPF about	0.285000 0.077000 -0.044000
USER    NEWDPF tran0	28.264225 -15.690910 -0.689884
USER    NEWDPF axisangle0	-0.192332 -0.182930 -0.964129 -99.866069
USER    NEWDPF quaternion0	-0.147191 -0.139995 -0.737841 -0.643683
USER    NEWDPF dihe0	-180.00 -179.17 -107.34 169.11 -104.45 117.99 -179.57 178.22 -25.74 66.93 
USER  
USER                              x       y       z    vdW   Elec        q     RMS 
ATOM      1  N   UNL     1      28.137 -14.492  -1.266 -0.15 -0.00    +0.000    26.058
ATOM      2  H   UNL     1      28.248 -13.988  -2.145 +0.01 -0.00    +0.000    26.058
ATOM      3  C   UNL     1      28.000 -15.910  -1.690 -0.30 -0.00    +0.000    26.058
ATOM      4  C   UNL     1      24.220 -17.799  -0.684 -0.68 -0.00    +0.000    26.058
ATOM      5  C   UNL     1      24.272 -16.751  -1.616 -0.50 -0.00    +0.000    26.058
ATOM      6  C   UNL     1      25.488 -16.145  -1.942 -0.50 -0.00    +0.000    26.058
ATOM      7  C   UNL     1      26.678 -16.555  -1.320 -0.42 -0.00    +0.000    26.058
ATOM      8  C   UNL     1      26.632 -17.612  -0.397 -0.52 -0.00    +0.000    26.058
ATOM      9  C   UNL     1      25.417 -18.220  -0.071 -0.60 -0.00    +0.000    26.058
ATOM     10  C   UNL     1      22.067 -18.902  -1.285 -0.74 -0.00    +0.000    26.058
ATOM     11  C   UNL     1      22.903 -18.401  -0.364 -0.83 -0.00    +0.000    26.058
ATOM     12  O   UNL     1      19.903 -19.739  -1.817 -2.39 -0.00    +0.000    26.058
ATOM     13  C   UNL     1      20.759 -19.484  -0.927 -0.87 -0.00    +0.000    26.058
ATOM     14  N   UNL     1      20.456 -19.761   0.443 -0.71 -0.00    +0.000    26.058
ATOM     15  O   UNL     1      19.261 -20.294   0.787 -0.81 -0.00    +0.000    26.058
ATOM     16  H   UNL     1      21.122 -19.563   1.140 -0.41 -0.00    +0.000    26.058
ATOM     17  C   UNL     1      29.371 -14.184  -0.508 -0.10 -0.00    +0.000    26.058
ATOM     18  C   UNL     1      29.757 -15.329   0.438 -0.14 -0.00    +0.000    26.058
ATOM     19  O   UNL     1      29.954 -14.855   1.742 -0.19 -0.00    +0.000    26.058
ATOM     20  H   UNL     1      29.325 -15.287   2.341 -1.90 -0.00    +0.000    26.058
ATOM     21  C   UNL     1      26.917 -13.944  -0.628 -0.27 -0.00    +0.000    26.058
ATOM     22  C   UNL     1      26.954 -14.175   0.887 -0.24 -0.00    +0.000    26.058
ATOM     23  C   UNL     1      26.916 -12.871   1.629 -0.29 -0.00    +0.000    26.058
ATOM     24  C   UNL     1      26.188 -11.740   1.269 -0.33 +0.00    +0.000    26.058
ATOM     25  N   UNL     1      26.277 -10.795   2.233 -0.37 +0.00    +0.000    26.058
ATOM     26  C   UNL     1      27.042 -11.324   3.203 -0.20 +0.00    +0.000    26.058
ATOM     27  C   UNL     1      27.449 -12.591   2.873 -0.28 -0.00    +0.000    26.058
ATOM     28  C   UNL     1      28.227 -13.361   3.740 -0.34 -0.00    +0.000    26.058
ATOM     29  C   UNL     1      28.590 -12.794   4.974 -0.33 -0.00    +0.000    26.058
ATOM     30  C   UNL     1      28.172 -11.488   5.313 -0.35 +0.00    +0.000    26.058
ATOM     31  C   UNL     1      27.385 -10.737   4.420 -0.27 +0.00    +0.000    26.058
ATOM     32  H   UNL     1      25.865  -9.901   2.223 -0.04 +0.00    +0.000    26.058
TER
ENDMDL
MODEL       77
USER    Run = 77
USER    Cluster Rank = 5
USER    Number of conformations in this cluster = 27
USER  
USER    RMSD from reference structure       = 28.603 A
USER  
USER    Estimated Free Energy of Binding    =  -12.92 kcal/mol  [=(1)+(2)+(3)-(4)]
USER    Estimated Inhibition Constant, Ki   =  340.90 pM (picomolar)  [Temperature = 298.15 K]
USER    
USER    (1) Final Intermolecular Energy     =  -15.90 kcal/mol
USER        vdW + Hbond + desolv Energy     =  -15.90 kcal/mol
USER        Electrostatic Energy            =   +0.00 kcal/mol
USER    (2) Final Total Internal Energy     =   -1.39 kcal/mol
USER    (3) Torsional Free Energy           =   +2.98 kcal/mol
USER    (4) Unbound System's Energy  [=(2)] =   -1.39 kcal/mol
USER    
USER    
USER  
USER    DPF = ligand_dock.biased.dpf
USER    NEWDPF move	ligand.pdbqt
USER    NEWDPF about	0.285000 0.077000 -0.044000
USER    NEWDPF tran0	28.481981 -15.164423 -1.373150
USER    NEWDPF axisangle0	-0.291717 -0.632385 -0.717628 119.684171
USER    NEWDPF quaternion0	-0.252231 -0.546788 -0.620493 0.502385
USER    NEWDPF dihe0	16.00 130.53 -81.70 -135.46 38.08 94.31 -169.74 -11.60 -99.99 -149.38 
USER  
USER                              x       y       z    vdW   Elec        q     RMS 
ATOM      1  N   UNL     1      29.013 -16.390  -1.355 -0.23 -0.00    +0.000    28.603
ATOM      2  H   UNL     1      28.786 -17.383  -1.301 -0.04 -0.00    +0.000    28.603
ATOM      3  C   UNL     1      27.755 -15.770  -1.846 -0.30 -0.00    +0.000    28.603
ATOM      4  C   UNL     1      24.155 -17.992  -0.862 -0.69 -0.00    +0.000    28.603
ATOM      5  C   UNL     1      25.424 -18.534  -0.607 -0.53 -0.00    +0.000    28.603
ATOM      6  C   UNL     1      26.582 -17.819  -0.921 -0.46 -0.00    +0.000    28.603
ATOM      7  C   UNL     1      26.497 -16.554  -1.525 -0.43 -0.00    +0.000    28.603
ATOM      8  C   UNL     1      25.229 -16.002  -1.769 -0.48 -0.00    +0.000    28.603
ATOM      9  C   UNL     1      24.069 -16.717  -1.455 -0.49 -0.00    +0.000    28.603
ATOM     10  C   UNL     1      21.730 -18.552  -1.008 -0.81 -0.00    +0.000    28.603
ATOM     11  C   UNL     1      22.956 -18.797  -0.522 -0.81 -0.00    +0.000    28.603
ATOM     12  O   UNL     1      19.727 -19.736  -1.511 -2.21 -0.00    +0.000    28.603
ATOM     13  C   UNL     1      20.559 -19.370  -0.637 -0.90 -0.00    +0.000    28.603
ATOM     14  N   UNL     1      20.364 -19.752   0.727 -0.69 -0.00    +0.000    28.603
ATOM     15  O   UNL     1      19.294 -20.501   1.083 -0.77 -0.00    +0.000    28.603
ATOM     16  H   UNL     1      21.012 -19.468   1.412 -0.40 -0.00    +0.000    28.603
ATOM     17  C   UNL     1      29.393 -16.024   0.028 -0.15 -0.00    +0.000    28.603
ATOM     18  C   UNL     1      28.553 -14.852   0.554 -0.23 -0.00    +0.000    28.603
ATOM     19  O   UNL     1      28.955 -14.491   1.848 -0.26 -0.00    +0.000    28.603
ATOM     20  H   UNL     1      29.075 -15.291   2.384 -1.92 -0.00    +0.000    28.603
ATOM     21  C   UNL     1      30.140 -16.278  -2.311 -0.16 -0.00    +0.000    28.603
ATOM     22  C   UNL     1      30.314 -17.586  -3.090 -0.18 -0.00    +0.000    28.603
ATOM     23  C   UNL     1      30.375 -17.327  -4.567 -0.24 -0.00    +0.000    28.603
ATOM     24  C   UNL     1      30.550 -16.088  -5.179 -0.19 -0.00    +0.000    28.603
ATOM     25  N   UNL     1      30.694 -16.238  -6.515 -0.27 -0.00    +0.000    28.603
ATOM     26  C   UNL     1      30.626 -17.559  -6.751 -0.31 -0.00    +0.000    28.603
ATOM     27  C   UNL     1      30.436 -18.258  -5.587 -0.32 -0.00    +0.000    28.603
ATOM     28  C   UNL     1      30.368 -19.652  -5.570 -0.37 -0.00    +0.000    28.603
ATOM     29  C   UNL     1      30.498 -20.330  -6.796 -0.41 -0.00    +0.000    28.603
ATOM     30  C   UNL     1      30.692 -19.609  -7.995 -0.36 -0.00    +0.000    28.603
ATOM     31  C   UNL     1      30.760 -18.204  -7.979 -0.30 -0.00    +0.000    28.603
ATOM     32  H   UNL     1      30.821 -15.522  -7.179 -0.02 -0.00    +0.000    28.603
TER
ENDMDL
MODEL        3
USER    Run = 3
USER    Cluster Rank = 6
USER    Number of conformations in this cluster = 3
USER  
USER    RMSD from reference structure       = 29.044 A
USER  
USER    Estimated Free Energy of Binding    =  -12.72 kcal/mol  [=(1)+(2)+(3)-(4)]
USER    Estimated Inhibition Constant, Ki   =  474.45 pM (picomolar)  [Temperature = 298.15 K]
USER    
USER    (1) Final Intermolecular Energy     =  -15.70 kcal/mol
USER        vdW + Hbond + desolv Energy     =  -15.70 kcal/mol
USER        Electrostatic Energy            =   +0.00 kcal/mol
USER    (2) Final Total Internal Energy     =   -2.29 kcal/mol
USER    (3) Torsional Free Energy           =   +2.98 kcal/mol
USER    (4) Unbound System's Energy  [=(2)] =   -2.29 kcal/mol
USER    
USER    
USER  
USER    DPF = ligand_dock.biased.dpf
USER    NEWDPF move	ligand.pdbqt
USER    NEWDPF about	0.285000 0.077000 -0.044000
USER    NEWDPF tran0	28.876950 -15.798754 -1.094994
USER    NEWDPF axisangle0	-0.538596 0.728482 0.423355 -118.058921
USER    NEWDPF quaternion0	-0.461809 0.624623 0.362998 -0.514597
USER    NEWDPF dihe0	15.77 -8.99 46.33 -6.16 -170.52 -150.10 -21.89 73.87 175.06 -102.60 
USER  
USER                              x       y       z    vdW   Elec        q     RMS 
ATOM      1  N   UNL     1      29.196 -15.679   0.197 -0.18 -0.00    +0.000    29.044
ATOM      2  H   UNL     1      29.020 -16.063   1.125 -0.80 -0.00    +0.000    29.044
ATOM      3  C   UNL     1      28.810 -16.784  -0.718 -0.30 -0.00    +0.000    29.044
ATOM      4  C   UNL     1      24.523 -17.442  -0.954 -0.64 -0.00    +0.000    29.044
ATOM      5  C   UNL     1      25.306 -18.150  -0.030 -0.59 -0.00    +0.000    29.044
ATOM      6  C   UNL     1      26.685 -17.937   0.048 -0.48 -0.00    +0.000    29.044
ATOM      7  C   UNL     1      27.316 -17.030  -0.819 -0.41 -0.00    +0.000    29.044
ATOM      8  C   UNL     1      26.533 -16.309  -1.734 -0.41 -0.00    +0.000    29.044
ATOM      9  C   UNL     1      25.154 -16.521  -1.813 -0.54 -0.00    +0.000    29.044
ATOM     10  C   UNL     1      22.475 -18.744  -0.382 -0.82 -0.00    +0.000    29.044
ATOM     11  C   UNL     1      23.065 -17.714  -1.006 -0.76 -0.00    +0.000    29.044
ATOM     12  O   UNL     1      20.261 -18.148  -1.021 -2.13 -0.00    +0.000    29.044
ATOM     13  C   UNL     1      21.022 -18.987  -0.466 -0.87 -0.00    +0.000    29.044
ATOM     14  N   UNL     1      20.469 -20.184   0.086 -0.71 -0.00    +0.000    29.044
ATOM     15  O   UNL     1      19.139 -20.421   0.017 -1.10 -0.00    +0.000    29.044
ATOM     16  H   UNL     1      21.061 -20.841   0.520 -0.52 -0.00    +0.000    29.044
ATOM     17  C   UNL     1      28.331 -14.479   0.126 -0.21 -0.00    +0.000    29.044
ATOM     18  C   UNL     1      27.597 -14.231   1.451 -0.29 -0.00    +0.000    29.044
ATOM     19  O   UNL     1      28.454 -14.431   2.542 -0.34 -0.00    +0.000    29.044
ATOM     20  H   UNL     1      28.962 -15.247   2.408 -1.93 -0.00    +0.000    29.044
ATOM     21  C   UNL     1      30.640 -15.352   0.154 -0.12 -0.00    +0.000    29.044
ATOM     22  C   UNL     1      31.420 -16.464  -0.556 -0.12 -0.00    +0.000    29.044
ATOM     23  C   UNL     1      31.728 -17.589   0.388 -0.13 -0.00    +0.000    29.044
ATOM     24  C   UNL     1      31.475 -18.941   0.169 -0.11 -0.00    +0.000    29.044
ATOM     25  N   UNL     1      32.002 -19.688   1.165 -0.18 -0.00    +0.000    29.044
ATOM     26  C   UNL     1      32.599 -18.824   2.002 -0.17 -0.00    +0.000    29.044
ATOM     27  C   UNL     1      32.457 -17.533   1.562 -0.15 -0.00    +0.000    29.044
ATOM     28  C   UNL     1      33.023 -16.456   2.247 -0.14 -0.00    +0.000    29.044
ATOM     29  C   UNL     1      33.748 -16.734   3.420 -0.15 -0.00    +0.000    29.044
ATOM     30  C   UNL     1      33.893 -18.063   3.874 -0.21 -0.00    +0.000    29.044
ATOM     31  C   UNL     1      33.314 -19.128   3.159 -0.22 -0.00    +0.000    29.044
ATOM     32  H   UNL     1      31.957 -20.668   1.256 -0.00 -0.00    +0.000    29.044
TER
ENDMDL
MODEL       79
USER    Run = 79
USER    Cluster Rank = 7
USER    Number of conformations in this cluster = 6
USER  
USER    RMSD from reference structure       = 26.701 A
USER  
USER    Estimated Free Energy of Binding    =  -12.63 kcal/mol  [=(1)+(2)+(3)-(4)]
USER    Estimated Inhibition Constant, Ki   =  556.71 pM (picomolar)  [Temperature = 298.15 K]
USER    
USER    (1) Final Intermolecular Energy     =  -15.61 kcal/mol
USER        vdW + Hbond + desolv Energy     =  -15.61 kcal/mol
USER        Electrostatic Energy            =   +0.00 kcal/mol
USER    (2) Final Total Internal Energy     =   -1.71 kcal/mol
USER    (3) Torsional Free Energy           =   +2.98 kcal/mol
USER    (4) Unbound System's Energy  [=(2)] =   -1.71 kcal/mol
USER    
USER    
USER  
USER    DPF = ligand_dock.biased.dpf
USER    NEWDPF move	ligand.pdbqt
USER    NEWDPF about	0.285000 0.077000 -0.044000
USER    NEWDPF tran0	26.772666 -15.382965 -0.896386
USER    NEWDPF axisangle0	-0.366478 0.507637 0.779743 148.211431
USER    NEWDPF quaternion0	-0.352467 0.488229 0.749932 0.273863
USER    NEWDPF dihe0	-177.90 179.91 35.89 -148.89 -156.42 -177.79 -178.96 -14.05 -24.46 -16.21 
USER  
USER                              x       y       z    vdW   Elec        q     RMS 
ATOM      1  N   UNL     1      27.582 -14.322  -0.844 -0.19 -0.00    +0.000    26.701
ATOM      2  H   UNL     1      28.559 -14.037  -0.769 +0.00 -0.00    +0.000    26.701
ATOM      3  C   UNL     1      27.662 -15.712  -1.363 -0.31 -0.00    +0.000    26.701
ATOM      4  C   UNL     1      24.146 -18.165  -0.672 -0.70 -0.00    +0.000    26.701
ATOM      5  C   UNL     1      24.096 -17.075  -1.553 -0.55 -0.00    +0.000    26.701
ATOM      6  C   UNL     1      25.227 -16.287  -1.778 -0.52 -0.00    +0.000    26.701
ATOM      7  C   UNL     1      26.429 -16.556  -1.102 -0.44 -0.00    +0.000    26.701
ATOM      8  C   UNL     1      26.486 -17.654  -0.231 -0.52 -0.00    +0.000    26.701
ATOM      9  C   UNL     1      25.355 -18.444  -0.005 -0.49 -0.00    +0.000    26.701
ATOM     10  C   UNL     1      21.758 -18.739  -1.101 -0.80 -0.00    +0.000    26.701
ATOM     11  C   UNL     1      22.913 -18.964  -0.459 -0.79 -0.00    +0.000    26.701
ATOM     12  O   UNL     1      19.700 -19.733  -1.767 -2.26 -0.00    +0.000    26.701
ATOM     13  C   UNL     1      20.549 -19.549  -0.853 -0.87 -0.00    +0.000    26.701
ATOM     14  N   UNL     1      20.336 -20.130   0.436 -0.70 -0.00    +0.000    26.701
ATOM     15  O   UNL     1      19.233 -20.874   0.679 -0.84 -0.00    +0.000    26.701
ATOM     16  H   UNL     1      20.998 -19.987   1.151 -0.52 -0.00    +0.000    26.701
ATOM     17  C   UNL     1      27.057 -14.199   0.534 -0.30 -0.00    +0.000    26.701
ATOM     18  C   UNL     1      28.173 -13.879   1.539 -0.25 -0.00    +0.000    26.701
ATOM     19  O   UNL     1      28.140 -14.769   2.622 -0.34 -0.00    +0.000    26.701
ATOM     20  H   UNL     1      28.989 -15.233   2.684 -1.99 -0.00    +0.000    26.701
ATOM     21  C   UNL     1      26.948 -13.373  -1.789 -0.20 -0.00    +0.000    26.701
ATOM     22  C   UNL     1      28.013 -12.524  -2.491 -0.12 -0.00    +0.000    26.701
ATOM     23  C   UNL     1      27.961 -12.720  -3.978 -0.13 -0.00    +0.000    26.701
ATOM     24  C   UNL     1      27.380 -11.856  -4.903 -0.16 -0.00    +0.000    26.701
ATOM     25  N   UNL     1      27.634 -12.274  -6.164 -0.20 -0.00    +0.000    26.701
ATOM     26  C   UNL     1      28.382 -13.383  -6.045 -0.24 -0.00    +0.000    26.701
ATOM     27  C   UNL     1      28.606 -13.687  -4.727 -0.17 -0.00    +0.000    26.701
ATOM     28  C   UNL     1      29.388 -14.779  -4.347 -0.15 -0.00    +0.000    26.701
ATOM     29  C   UNL     1      29.944 -15.574  -5.366 -0.23 -0.00    +0.000    26.701
ATOM     30  C   UNL     1      29.712 -15.262  -6.724 -0.30 -0.00    +0.000    26.701
ATOM     31  C   UNL     1      28.922 -14.151  -7.075 -0.31 -0.00    +0.000    26.701
ATOM     32  H   UNL     1      27.331 -11.849  -6.999 -0.01 -0.00    +0.000    26.701
TER
ENDMDL
MODEL       94
USER    Run = 94
USER    Cluster Rank = 8
USER    Number of conformations in this cluster = 2
USER  
USER    RMSD from reference structure       = 27.728 A
USER  
USER    Estimated Free Energy of Binding    =  -12.45 kcal/mol  [=(1)+(2)+(3)-(4)]
USER    Estimated Inhibition Constant, Ki   =  747.64 pM (picomolar)  [Temperature = 298.15 K]
USER    
USER    (1) Final Intermolecular Energy     =  -15.43 kcal/mol
USER        vdW + Hbond + desolv Energy     =  -15.43 kcal/mol
USER        Electrostatic Energy            =   +0.00 kcal/mol
USER    (2) Final Total Internal Energy     =   -2.63 kcal/mol
USER    (3) Torsional Free Energy           =   +2.98 kcal/mol
USER    (4) Unbound System's Energy  [=(2)] =   -2.63 kcal/mol
USER    
USER    
USER  
USER    DPF = ligand_dock.biased.dpf
USER    NEWDPF move	ligand.pdbqt
USER    NEWDPF about	0.285000 0.077000 -0.044000
USER    NEWDPF tran0	29.662700 -14.937929 -0.659389
USER    NEWDPF axisangle0	-0.579305 0.674205 0.458098 -97.400571
USER    NEWDPF quaternion0	-0.435213 0.506508 0.344154 -0.659998
USER    NEWDPF dihe0	103.18 -37.29 30.11 -153.76 -93.57 -178.52 175.82 -129.85 -155.34 -123.70 
USER  
USER                              x       y       z    vdW   Elec        q     RMS 
ATOM      1  N   UNL     1      29.579 -15.122   0.661 -0.16 -0.00    +0.000    27.728
ATOM      2  H   UNL     1      29.126 -15.679   1.386 -1.06 -0.00    +0.000    27.728
ATOM      3  C   UNL     1      29.471 -15.972  -0.553 -0.20 -0.00    +0.000    27.728
ATOM      4  C   UNL     1      25.440 -17.378  -1.353 -0.56 -0.00    +0.000    27.728
ATOM      5  C   UNL     1      26.109 -17.754  -0.179 -0.55 -0.00    +0.000    27.728
ATOM      6  C   UNL     1      27.405 -17.300   0.080 -0.18 -0.00    +0.000    27.728
ATOM      7  C   UNL     1      28.072 -16.481  -0.845 -0.31 -0.00    +0.000    27.728
ATOM      8  C   UNL     1      27.400 -16.092  -2.015 -0.31 -0.00    +0.000    27.728
ATOM      9  C   UNL     1      26.104 -16.545  -2.275 -0.42 -0.00    +0.000    27.728
ATOM     10  C   UNL     1      23.011 -17.579  -0.828 -0.76 -0.00    +0.000    27.728
ATOM     11  C   UNL     1      24.070 -17.897  -1.587 -0.71 -0.00    +0.000    27.728
ATOM     12  O   UNL     1      20.635 -17.503  -0.709 -2.10 +0.00    +0.000    27.728
ATOM     13  C   UNL     1      21.665 -18.125  -1.087 -0.65 -0.00    +0.000    27.728
ATOM     14  N   UNL     1      21.524 -19.372  -1.772 -0.62 -0.00    +0.000    27.728
ATOM     15  O   UNL     1      20.296 -19.886  -2.016 -2.29 -0.00    +0.000    27.728
ATOM     16  H   UNL     1      22.327 -19.860  -2.068 -0.47 -0.00    +0.000    27.728
ATOM     17  C   UNL     1      28.793 -13.868   0.617 -0.16 -0.00    +0.000    27.728
ATOM     18  C   UNL     1      27.475 -13.997   1.393 -0.30 -0.00    +0.000    27.728
ATOM     19  O   UNL     1      27.484 -15.140   2.205 +0.04 -0.00    +0.000    27.728
ATOM     20  H   UNL     1      28.347 -15.220   2.640 -1.48 -0.00    +0.000    27.728
ATOM     21  C   UNL     1      30.974 -14.913   1.115 -0.12 -0.00    +0.000    27.728
ATOM     22  C   UNL     1      31.162 -13.481   1.627 -0.07 -0.00    +0.000    27.728
ATOM     23  C   UNL     1      31.467 -13.472   3.097 -0.10 -0.00    +0.000    27.728
ATOM     24  C   UNL     1      32.724 -13.325   3.676 -0.09 -0.00    +0.000    27.728
ATOM     25  N   UNL     1      32.617 -13.227   5.020 -0.13 -0.00    +0.000    27.728
ATOM     26  C   UNL     1      31.304 -13.296   5.294 -0.17 -0.00    +0.000    27.728
ATOM     27  C   UNL     1      30.568 -13.443   4.147 -0.19 -0.00    +0.000    27.728
ATOM     28  C   UNL     1      29.173 -13.503   4.171 -0.29 -0.00    +0.000    27.728
ATOM     29  C   UNL     1      28.535 -13.413   5.421 -0.42 -0.00    +0.000    27.728
ATOM     30  C   UNL     1      29.293 -13.263   6.603 -0.36 -0.00    +0.000    27.728
ATOM     31  C   UNL     1      30.697 -13.201   6.546 -0.23 -0.00    +0.000    27.728
ATOM     32  H   UNL     1      33.354 -13.126   5.666 -0.01 -0.00    +0.000    27.728
TER
ENDMDL
MODEL       11
USER    Run = 11
USER    Cluster Rank = 9
USER    Number of conformations in this cluster = 7
USER  
USER    RMSD from reference structure       = 29.219 A
USER  
USER    Estimated Free Energy of Binding    =  -12.14 kcal/mol  [=(1)+(2)+(3)-(4)]
USER    Estimated Inhibition Constant, Ki   =    1.26 nM (nanomolar)  [Temperature = 298.15 K]
USER    
USER    (1) Final Intermolecular Energy     =  -15.12 kcal/mol
USER        vdW + Hbond + desolv Energy     =  -15.12 kcal/mol
USER        Electrostatic Energy            =   +0.00 kcal/mol
USER    (2) Final Total Internal Energy     =   -1.26 kcal/mol
USER    (3) Torsional Free Energy           =   +2.98 kcal/mol
USER    (4) Unbound System's Energy  [=(2)] =   -1.26 kcal/mol
USER    
USER    
USER  
USER    DPF = ligand_dock.biased.dpf
USER    NEWDPF move	ligand.pdbqt
USER    NEWDPF about	0.285000 0.077000 -0.044000
USER    NEWDPF tran0	28.147492 -15.913116 -2.441454
USER    NEWDPF axisangle0	-0.184695 0.978284 -0.094060 153.842756
USER    NEWDPF quaternion0	-0.179904 0.952908 -0.091620 0.226288
USER    NEWDPF dihe0	-86.88 77.29 176.02 -82.52 85.20 55.20 -117.53 -77.66 -151.57 3.59 
USER  
USER                              x       y       z    vdW   Elec        q     RMS 
ATOM      1  N   UNL     1      29.368 -15.776  -2.967 -0.17 -0.00    +0.000    29.219
ATOM      2  H   UNL     1      30.282 -15.348  -2.820 +0.00 -0.00    +0.000    29.219
ATOM      3  C   UNL     1      28.785 -15.833  -1.602 -0.23 -0.00    +0.000    29.219
ATOM      4  C   UNL     1      24.780 -17.510  -1.475 -0.61 -0.00    +0.000    29.219
ATOM      5  C   UNL     1      25.054 -16.368  -2.242 -0.49 -0.00    +0.000    29.219
ATOM      6  C   UNL     1      26.343 -15.829  -2.285 -0.41 -0.00    +0.000    29.219
ATOM      7  C   UNL     1      27.382 -16.407  -1.537 -0.34 -0.00    +0.000    29.219
ATOM      8  C   UNL     1      27.114 -17.558  -0.780 -0.44 -0.00    +0.000    29.219
ATOM      9  C   UNL     1      25.826 -18.098  -0.736 -0.56 -0.00    +0.000    29.219
ATOM     10  C   UNL     1      22.626 -18.071  -0.353 -0.82 -0.00    +0.000    29.219
ATOM     11  C   UNL     1      23.392 -18.035  -1.453 -0.73 -0.00    +0.000    29.219
ATOM     12  O   UNL     1      20.282 -17.891  -0.727 -2.21 +0.00    +0.000    29.219
ATOM     13  C   UNL     1      21.253 -18.612  -0.369 -0.79 -0.00    +0.000    29.219
ATOM     14  N   UNL     1      21.018 -19.966   0.026 -0.66 -0.00    +0.000    29.219
ATOM     15  O   UNL     1      19.765 -20.476   0.017 -1.19 -0.00    +0.000    29.219
ATOM     16  H   UNL     1      21.774 -20.531   0.306 -0.59 -0.00    +0.000    29.219
ATOM     17  C   UNL     1      28.679 -14.858  -3.902 -0.22 -0.00    +0.000    29.219
ATOM     18  C   UNL     1      28.010 -15.620  -5.055 -0.36 -0.00    +0.000    29.219
ATOM     19  O   UNL     1      26.667 -15.242  -5.190 -1.03 +0.00    +0.000    29.219
ATOM     20  H   UNL     1      26.148 -16.000  -5.502 -0.09 +0.00    +0.000    29.219
ATOM     21  C   UNL     1      29.628 -17.111  -3.557 -0.24 -0.00    +0.000    29.219
ATOM     22  C   UNL     1      30.535 -16.986  -4.785 -0.25 -0.00    +0.000    29.219
ATOM     23  C   UNL     1      30.777 -18.328  -5.412 -0.28 -0.00    +0.000    29.219
ATOM     24  C   UNL     1      30.724 -19.560  -4.765 -0.20 -0.00    +0.000    29.219
ATOM     25  N   UNL     1      30.858 -20.569  -5.656 -0.33 -0.00    +0.000    29.219
ATOM     26  C   UNL     1      30.980 -19.986  -6.860 -0.34 -0.00    +0.000    29.219
ATOM     27  C   UNL     1      30.933 -18.619  -6.754 -0.32 -0.00    +0.000    29.219
ATOM     28  C   UNL     1      31.004 -17.792  -7.876 -0.29 -0.00    +0.000    29.219
ATOM     29  C   UNL     1      31.133 -18.405  -9.136 -0.29 -0.00    +0.000    29.219
ATOM     30  C   UNL     1      31.183 -19.812  -9.245 -0.32 -0.00    +0.000    29.219
ATOM     31  C   UNL     1      31.105 -20.620  -8.096 -0.29 -0.00    +0.000    29.219
ATOM     32  H   UNL     1      30.865 -21.533  -5.460 -0.01 -0.00    +0.000    29.219
TER
ENDMDL
MODEL       46
USER    Run = 46
USER    Cluster Rank = 10
USER    Number of conformations in this cluster = 1
USER  
USER    RMSD from reference structure       = 28.706 A
USER  
USER    Estimated Free Energy of Binding    =  -12.13 kcal/mol  [=(1)+(2)+(3)-(4)]
USER    Estimated Inhibition Constant, Ki   =    1.28 nM (nanomolar)  [Temperature = 298.15 K]
USER    
USER    (1) Final Intermolecular Energy     =  -15.12 kcal/mol
USER        vdW + Hbond + desolv Energy     =  -15.12 kcal/mol
USER        Electrostatic Energy            =   +0.00 kcal/mol
USER    (2) Final Total Internal Energy     =   -2.23 kcal/mol
USER    (3) Torsional Free Energy           =   +2.98 kcal/mol
USER    (4) Unbound System's Energy  [=(2)] =   -2.23 kcal/mol
USER    
USER    
USER  
USER    DPF = ligand_dock.biased.dpf
USER    NEWDPF move	ligand.pdbqt
USER    NEWDPF about	0.285000 0.077000 -0.044000
USER    NEWDPF tran0	29.589415 -14.578738 -0.862397
USER    NEWDPF axisangle0	-0.107678 0.921744 0.372550 -86.029445
USER    NEWDPF quaternion0	-0.073456 0.628801 0.254149 -0.731178
USER    NEWDPF dihe0	25.32 8.43 31.10 -161.89 178.83 179.55 -179.45 37.76 38.27 -179.75 
USER  
USER                              x       y       z    vdW   Elec        q     RMS 
ATOM      1  N   UNL     1      29.570 -15.220   0.310 -0.16 -0.00    +0.000    28.706
ATOM      2  H   UNL     1      28.960 -15.683   0.982 -0.72 -0.00    +0.000    28.706
ATOM      3  C   UNL     1      28.798 -15.273  -0.959 -0.19 -0.00    +0.000    28.706
ATOM      4  C   UNL     1      25.088 -17.525  -0.784 -0.61 -0.00    +0.000    28.706
ATOM      5  C   UNL     1      25.118 -16.237  -1.338 -0.50 -0.00    +0.000    28.706
ATOM      6  C   UNL     1      26.311 -15.513  -1.397 -0.37 -0.00    +0.000    28.706
ATOM      7  C   UNL     1      27.499 -16.052  -0.875 -0.32 -0.00    +0.000    28.706
ATOM      8  C   UNL     1      27.475 -17.346  -0.333 -0.37 -0.00    +0.000    28.706
ATOM      9  C   UNL     1      26.282 -18.072  -0.274 -0.57 -0.00    +0.000    28.706
ATOM     10  C   UNL     1      22.598 -17.642  -0.779 -0.77 -0.00    +0.000    28.706
ATOM     11  C   UNL     1      23.793 -18.248  -0.734 -0.81 -0.00    +0.000    28.706
ATOM     12  O   UNL     1      20.246 -17.860  -1.071 -2.16 -0.00    +0.000    28.706
ATOM     13  C   UNL     1      21.331 -18.395  -0.715 -0.83 -0.00    +0.000    28.706
ATOM     14  N   UNL     1      21.330 -19.745  -0.245 -0.69 -0.00    +0.000    28.706
ATOM     15  O   UNL     1      20.176 -20.449  -0.180 -1.25 -0.00    +0.000    28.706
ATOM     16  H   UNL     1      22.176 -20.166   0.034 -0.54 -0.00    +0.000    28.706
ATOM     17  C   UNL     1      29.766 -13.862   0.865 -0.12 -0.00    +0.000    28.706
ATOM     18  C   UNL     1      28.792 -13.574   2.016 -0.21 -0.00    +0.000    28.706
ATOM     19  O   UNL     1      28.967 -14.494   3.060 -0.34 -0.00    +0.000    28.706
ATOM     20  H   UNL     1      29.192 -15.362   2.691 -1.96 -0.00    +0.000    28.706
ATOM     21  C   UNL     1      30.821 -16.014   0.274 -0.14 -0.00    +0.000    28.706
ATOM     22  C   UNL     1      30.539 -17.434  -0.228 -0.13 -0.00    +0.000    28.706
ATOM     23  C   UNL     1      31.311 -17.722  -1.483 -0.13 -0.00    +0.000    28.706
ATOM     24  C   UNL     1      32.515 -18.417  -1.568 -0.07 -0.00    +0.000    28.706
ATOM     25  N   UNL     1      32.858 -18.610  -2.862 -0.05 -0.00    +0.000    28.706
ATOM     26  C   UNL     1      31.876 -18.057  -3.593 -0.10 -0.00    +0.000    28.706
ATOM     27  C   UNL     1      30.911 -17.508  -2.789 -0.15 -0.00    +0.000    28.706
ATOM     28  C   UNL     1      29.769 -16.904  -3.318 -0.20 -0.00    +0.000    28.706
ATOM     29  C   UNL     1      29.635 -16.870  -4.718 -0.25 -0.00    +0.000    28.706
ATOM     30  C   UNL     1      30.629 -17.434  -5.546 -0.27 -0.00    +0.000    28.706
ATOM     31  C   UNL     1      31.768 -18.040  -4.983 -0.13 -0.00    +0.000    28.706
ATOM     32  H   UNL     1      33.665 -19.063  -3.198 +0.00 -0.00    +0.000    28.706
TER
ENDMDL
MODEL        7
USER    Run = 7
USER    Cluster Rank = 11
USER    Number of conformations in this cluster = 1
USER  
USER    RMSD from reference structure       = 27.173 A
USER  
USER    Estimated Free Energy of Binding    =  -11.59 kcal/mol  [=(1)+(2)+(3)-(4)]
USER    Estimated Inhibition Constant, Ki   =    3.21 nM (nanomolar)  [Temperature = 298.15 K]
USER    
USER    (1) Final Intermolecular Energy     =  -14.57 kcal/mol
USER        vdW + Hbond + desolv Energy     =  -14.57 kcal/mol
USER        Electrostatic Energy            =   +0.00 kcal/mol
USER    (2) Final Total Internal Energy     =   -2.60 kcal/mol
USER    (3) Torsional Free Energy           =   +2.98 kcal/mol
USER    (4) Unbound System's Energy  [=(2)] =   -2.60 kcal/mol
USER    
USER    
USER  
USER    DPF = ligand_dock.biased.dpf
USER    NEWDPF move	ligand.pdbqt
USER    NEWDPF about	0.285000 0.077000 -0.044000
USER    NEWDPF tran0	28.786002 -15.146283 -0.727252
USER    NEWDPF axisangle0	-0.546058 0.644161 0.535610 -112.780165
USER    NEWDPF quaternion0	-0.454771 0.536474 0.446069 -0.553536
USER    NEWDPF dihe0	51.21 -67.74 92.80 -53.19 -143.57 -179.96 151.57 113.69 -154.68 -105.15 
USER  
USER                              x       y       z    vdW   Elec        q     RMS 
ATOM      1  N   UNL     1      29.029 -15.266   0.581 -0.17 -0.00    +0.000    27.173
ATOM      2  H   UNL     1      28.867 -15.858   1.395 -0.98 -0.00    +0.000    27.173
ATOM      3  C   UNL     1      28.836 -16.190  -0.567 -0.26 -0.00    +0.000    27.173
ATOM      4  C   UNL     1      24.711 -17.417  -1.153 -0.63 -0.00    +0.000    27.173
ATOM      5  C   UNL     1      25.392 -17.737   0.031 -0.48 -0.00    +0.000    27.173
ATOM      6  C   UNL     1      26.718 -17.340   0.221 -0.32 -0.00    +0.000    27.173
ATOM      7  C   UNL     1      27.403 -16.638  -0.784 -0.38 -0.00    +0.000    27.173
ATOM      8  C   UNL     1      26.721 -16.304  -1.964 -0.38 -0.00    +0.000    27.173
ATOM      9  C   UNL     1      25.394 -16.700  -2.155 -0.52 -0.00    +0.000    27.173
ATOM     10  C   UNL     1      22.544 -18.304  -0.297 -0.83 -0.00    +0.000    27.173
ATOM     11  C   UNL     1      23.307 -17.872  -1.311 -0.73 -0.00    +0.000    27.173
ATOM     12  O   UNL     1      20.311 -18.016  -1.069 -2.15 -0.00    +0.000    27.173
ATOM     13  C   UNL     1      21.154 -18.759  -0.497 -0.82 -0.00    +0.000    27.173
ATOM     14  N   UNL     1      20.758 -20.053  -0.037 -0.70 -0.00    +0.000    27.173
ATOM     15  O   UNL     1      19.487 -20.484  -0.212 -1.19 -0.00    +0.000    27.173
ATOM     16  H   UNL     1      21.415 -20.634   0.411 -0.60 -0.00    +0.000    27.173
ATOM     17  C   UNL     1      28.015 -14.194   0.697 -0.24 -0.00    +0.000    27.173
ATOM     18  C   UNL     1      28.017 -13.562   2.096 -0.28 -0.00    +0.000    27.173
ATOM     19  O   UNL     1      28.695 -14.378   3.012 -0.36 -0.00    +0.000    27.173
ATOM     20  H   UNL     1      28.888 -15.235   2.600 -1.97 -0.00    +0.000    27.173
ATOM     21  C   UNL     1      30.417 -14.763   0.709 -0.13 -0.00    +0.000    27.173
ATOM     22  C   UNL     1      31.123 -14.786  -0.651 -0.05 -0.00    +0.000    27.173
ATOM     23  C   UNL     1      30.932 -13.486  -1.377 -0.01 -0.00    +0.000    27.173
ATOM     24  C   UNL     1      31.845 -12.437  -1.439 -0.00 -0.00    +0.000    27.173
ATOM     25  N   UNL     1      31.406 -11.479  -2.288 -0.00 -0.00    +0.000    27.173
ATOM     26  C   UNL     1      30.234 -11.921  -2.773 -0.01 -0.00    +0.000    27.173
ATOM     27  C   UNL     1      29.911 -13.144  -2.244 -0.03 -0.00    +0.000    27.173
ATOM     28  C   UNL     1      28.753 -13.826  -2.622 -0.09 -0.00    +0.000    27.173
ATOM     29  C   UNL     1      27.912 -13.214  -3.569 -0.14 -0.00    +0.000    27.173
ATOM     30  C   UNL     1      28.244 -11.953  -4.113 -0.09 -0.00    +0.000    27.173
ATOM     31  C   UNL     1      29.421 -11.293  -3.715 -0.03 -0.00    +0.000    27.173
ATOM     32  H   UNL     1      31.856 -10.630  -2.504 +0.00 -0.00    +0.000    27.173
TER
ENDMDL
MODEL       42
USER    Run = 42
USER    Cluster Rank = 12
USER    Number of conformations in this cluster = 5
USER  
USER    RMSD from reference structure       = 27.933 A
USER  
USER    Estimated Free Energy of Binding    =  -11.54 kcal/mol  [=(1)+(2)+(3)-(4)]
USER    Estimated Inhibition Constant, Ki   =    3.48 nM (nanomolar)  [Temperature = 298.15 K]
USER    
USER    (1) Final Intermolecular Energy     =  -14.52 kcal/mol
USER        vdW + Hbond + desolv Energy     =  -14.52 kcal/mol
USER        Electrostatic Energy            =   +0.00 kcal/mol
USER    (2) Final Total Internal Energy     =   -2.49 kcal/mol
USER    (3) Torsional Free Energy           =   +2.98 kcal/mol
USER    (4) Unbound System's Energy  [=(2)] =   -2.49 kcal/mol
USER    
USER    
USER  
USER    DPF = ligand_dock.biased.dpf
USER    NEWDPF move	ligand.pdbqt
USER    NEWDPF about	0.285000 0.077000 -0.044000
USER    NEWDPF tran0	29.231784 -15.414609 -1.454941
USER    NEWDPF axisangle0	0.472715 0.654367 0.590207 -126.690885
USER    NEWDPF quaternion0	0.422478 0.584826 0.527485 -0.448610
USER    NEWDPF dihe0	23.56 -90.49 87.30 -163.42 57.89 -175.43 -175.67 35.33 -67.70 -169.88 
USER  
USER                              x       y       z    vdW   Elec        q     RMS 
ATOM      1  N   UNL     1      29.483 -16.713  -1.643 -0.22 -0.00    +0.000    27.933
ATOM      2  H   UNL     1      29.096 -17.650  -1.525 -0.03 -0.00    +0.000    27.933
ATOM      3  C   UNL     1      28.282 -15.837  -1.649 -0.27 -0.00    +0.000    27.933
ATOM      4  C   UNL     1      24.535 -17.860  -0.792 -0.67 -0.00    +0.000    27.933
ATOM      5  C   UNL     1      25.754 -18.386  -0.338 -0.58 -0.00    +0.000    27.933
ATOM      6  C   UNL     1      26.959 -17.735  -0.611 -0.47 -0.00    +0.000    27.933
ATOM      7  C   UNL     1      26.975 -16.554  -1.371 -0.39 -0.00    +0.000    27.933
ATOM      8  C   UNL     1      25.756 -16.017  -1.815 -0.47 -0.00    +0.000    27.933
ATOM      9  C   UNL     1      24.549 -16.667  -1.542 -0.54 -0.00    +0.000    27.933
ATOM     10  C   UNL     1      22.248 -18.692  -1.332 -0.69 -0.00    +0.000    27.933
ATOM     11  C   UNL     1      23.284 -18.596  -0.486 -0.82 -0.00    +0.000    27.933
ATOM     12  O   UNL     1      20.186 -19.746  -1.881 -2.37 -0.00    +0.000    27.933
ATOM     13  C   UNL     1      21.015 -19.425  -0.986 -0.85 -0.00    +0.000    27.933
ATOM     14  N   UNL     1      20.755 -19.775   0.375 -0.67 -0.00    +0.000    27.933
ATOM     15  O   UNL     1      19.628 -20.446   0.708 -0.84 -0.00    +0.000    27.933
ATOM     16  H   UNL     1      21.401 -19.525   1.075 -0.44 -0.00    +0.000    27.933
ATOM     17  C   UNL     1      30.378 -16.537  -0.477 -0.17 -0.00    +0.000    27.933
ATOM     18  C   UNL     1      31.238 -17.784  -0.229 -0.17 -0.00    +0.000    27.933
ATOM     19  O   UNL     1      30.497 -18.954  -0.448 -0.21 -0.00    +0.000    27.933
ATOM     20  H   UNL     1      29.587 -18.822  -0.138 -0.60 -0.00    +0.000    27.933
ATOM     21  C   UNL     1      30.212 -16.728  -2.933 -0.19 -0.00    +0.000    27.933
ATOM     22  C   UNL     1      29.256 -17.059  -4.084 -0.07 -0.00    +0.000    27.933
ATOM     23  C   UNL     1      29.280 -15.981  -5.127 -0.30 -0.00    +0.000    27.933
ATOM     24  C   UNL     1      29.922 -16.043  -6.361 -0.31 -0.00    +0.000    27.933
ATOM     25  N   UNL     1      29.625 -14.953  -7.104 -0.34 -0.00    +0.000    27.933
ATOM     26  C   UNL     1      28.790 -14.211  -6.358 -0.31 -0.00    +0.000    27.933
ATOM     27  C   UNL     1      28.553 -14.806  -5.145 -0.30 -0.00    +0.000    27.933
ATOM     28  C   UNL     1      27.687 -14.241  -4.207 -0.26 -0.00    +0.000    27.933
ATOM     29  C   UNL     1      27.060 -13.027  -4.540 -0.25 -0.00    +0.000    27.933
ATOM     30  C   UNL     1      27.306 -12.413  -5.788 -0.17 -0.00    +0.000    27.933
ATOM     31  C   UNL     1      28.181 -13.009  -6.716 -0.20 -0.00    +0.000    27.933
ATOM     32  H   UNL     1      29.954 -14.746  -8.009 -0.35 -0.00    +0.000    27.933
TER
ENDMDL
MODEL       37
USER    Run = 37
USER    Cluster Rank = 13
USER    Number of conformations in this cluster = 1
USER  
USER    RMSD from reference structure       = 28.335 A
USER  
USER    Estimated Free Energy of Binding    =  -11.22 kcal/mol  [=(1)+(2)+(3)-(4)]
USER    Estimated Inhibition Constant, Ki   =    5.96 nM (nanomolar)  [Temperature = 298.15 K]
USER    
USER    (1) Final Intermolecular Energy     =  -14.20 kcal/mol
USER        vdW + Hbond + desolv Energy     =  -14.20 kcal/mol
USER        Electrostatic Energy            =   +0.00 kcal/mol
USER    (2) Final Total Internal Energy     =   -1.85 kcal/mol
USER    (3) Torsional Free Energy           =   +2.98 kcal/mol
USER    (4) Unbound System's Energy  [=(2)] =   -1.85 kcal/mol
USER    
USER    
USER  
USER    DPF = ligand_dock.biased.dpf
USER    NEWDPF move	ligand.pdbqt
USER    NEWDPF about	0.285000 0.077000 -0.044000
USER    NEWDPF tran0	27.101802 -15.808327 -1.677187
USER    NEWDPF axisangle0	0.301755 -0.926428 0.225109 -160.952605
USER    NEWDPF quaternion0	0.297596 -0.913660 0.222006 -0.165456
USER    NEWDPF dihe0	-12.07 107.28 144.63 -111.79 -176.30 -176.38 164.67 -21.69 180.00 3.28 
USER  
USER                              x       y       z    vdW   Elec        q     RMS 
ATOM      1  N   UNL     1      28.293 -15.380  -2.103 -0.19 -0.00    +0.000    28.335
ATOM      2  H   UNL     1      29.010 -14.669  -1.959 +0.01 -0.00    +0.000    28.335
ATOM      3  C   UNL     1      27.555 -15.401  -0.814 -0.30 -0.00    +0.000    28.335
ATOM      4  C   UNL     1      24.210 -18.170  -0.760 -0.70 -0.00    +0.000    28.335
ATOM      5  C   UNL     1      24.045 -16.857  -1.225 -0.55 -0.00    +0.000    28.335
ATOM      6  C   UNL     1      25.121 -15.967  -1.244 -0.43 -0.00    +0.000    28.335
ATOM      7  C   UNL     1      26.383 -16.362  -0.772 -0.43 -0.00    +0.000    28.335
ATOM      8  C   UNL     1      26.555 -17.680  -0.319 -0.53 -0.00    +0.000    28.335
ATOM      9  C   UNL     1      25.479 -18.572  -0.299 -0.53 -0.00    +0.000    28.335
ATOM     10  C   UNL     1      21.764 -18.647  -0.834 -0.84 -0.00    +0.000    28.335
ATOM     11  C   UNL     1      23.033 -19.074  -0.747 -0.80 -0.00    +0.000    28.335
ATOM     12  O   UNL     1      19.894 -19.734  -1.828 -2.40 -0.00    +0.000    28.335
ATOM     13  C   UNL     1      20.619 -19.577  -0.807 -0.87 -0.00    +0.000    28.335
ATOM     14  N   UNL     1      20.324 -20.307   0.386 -0.70 -0.00    +0.000    28.335
ATOM     15  O   UNL     1      19.277 -21.163   0.426 -0.84 -0.00    +0.000    28.335
ATOM     16  H   UNL     1      20.888 -20.186   1.184 -0.50 -0.00    +0.000    28.335
ATOM     17  C   UNL     1      27.514 -14.885  -3.261 -0.30 -0.00    +0.000    28.335
ATOM     18  C   UNL     1      27.898 -15.613  -4.556 -0.37 -0.00    +0.000    28.335
ATOM     19  O   UNL     1      26.876 -15.509  -5.509 -1.15 +0.00    +0.000    28.335
ATOM     20  H   UNL     1      26.132 -16.075  -5.248 -0.08 +0.00    +0.000    28.335
ATOM     21  C   UNL     1      29.017 -16.640  -2.392 -0.26 -0.00    +0.000    28.335
ATOM     22  C   UNL     1      30.530 -16.426  -2.284 -0.14 -0.00    +0.000    28.335
ATOM     23  C   UNL     1      31.062 -17.000  -1.003 -0.13 -0.00    +0.000    28.335
ATOM     24  C   UNL     1      31.752 -18.201  -0.862 -0.13 -0.00    +0.000    28.335
ATOM     25  N   UNL     1      32.202 -18.342   0.405 -0.13 -0.00    +0.000    28.335
ATOM     26  C   UNL     1      31.816 -17.235   1.062 -0.13 -0.00    +0.000    28.335
ATOM     27  C   UNL     1      31.121 -16.390   0.236 -0.12 -0.00    +0.000    28.335
ATOM     28  C   UNL     1      30.644 -15.155   0.682 -0.11 -0.00    +0.000    28.335
ATOM     29  C   UNL     1      30.896 -14.799   2.019 -0.13 -0.00    +0.000    28.335
ATOM     30  C   UNL     1      31.611 -15.671   2.869 -0.21 -0.00    +0.000    28.335
ATOM     31  C   UNL     1      32.082 -16.907   2.390 -0.20 -0.00    +0.000    28.335
ATOM     32  H   UNL     1      32.709 -19.103   0.771 +0.00 -0.00    +0.000    28.335
TER
ENDMDL
MODEL       10
USER    Run = 10
USER    Cluster Rank = 14
USER    Number of conformations in this cluster = 1
USER  
USER    RMSD from reference structure       = 29.739 A
USER  
USER    Estimated Free Energy of Binding    =  -11.18 kcal/mol  [=(1)+(2)+(3)-(4)]
USER    Estimated Inhibition Constant, Ki   =    6.38 nM (nanomolar)  [Temperature = 298.15 K]
USER    
USER    (1) Final Intermolecular Energy     =  -14.16 kcal/mol
USER        vdW + Hbond + desolv Energy     =  -14.16 kcal/mol
USER        Electrostatic Energy            =   +0.00 kcal/mol
USER    (2) Final Total Internal Energy     =   -1.66 kcal/mol
USER    (3) Torsional Free Energy           =   +2.98 kcal/mol
USER    (4) Unbound System's Energy  [=(2)] =   -1.66 kcal/mol
USER    
USER    
USER  
USER    DPF = ligand_dock.biased.dpf
USER    NEWDPF move	ligand.pdbqt
USER    NEWDPF about	0.285000 0.077000 -0.044000
USER    NEWDPF tran0	29.934616 -16.448458 -1.311404
USER    NEWDPF axisangle0	0.727488 0.214241 0.651814 -142.946830
USER    NEWDPF quaternion0	0.689787 0.203138 0.618035 -0.317745
USER    NEWDPF dihe0	8.05 115.73 -106.03 3.52 174.48 149.00 125.80 -109.17 -7.70 -158.63 
USER  
USER                              x       y       z    vdW   Elec        q     RMS 
ATOM      1  N   UNL     1      29.711 -17.103  -2.454 -0.22 -0.00    +0.000    29.739
ATOM      2  H   UNL     1      28.990 -17.564  -3.009 -0.02 -0.00    +0.000    29.739
ATOM      3  C   UNL     1      28.942 -16.191  -1.569 -0.25 -0.00    +0.000    29.739
ATOM      4  C   UNL     1      24.692 -17.031  -1.253 -0.59 -0.00    +0.000    29.739
ATOM      5  C   UNL     1      25.617 -17.702  -0.439 -0.59 -0.00    +0.000    29.739
ATOM      6  C   UNL     1      26.984 -17.430  -0.538 -0.47 -0.00    +0.000    29.739
ATOM      7  C   UNL     1      27.460 -16.500  -1.477 -0.34 -0.00    +0.000    29.739
ATOM      8  C   UNL     1      26.536 -15.817  -2.283 -0.38 -0.00    +0.000    29.739
ATOM      9  C   UNL     1      25.168 -16.087  -2.185 -0.50 -0.00    +0.000    29.739
ATOM     10  C   UNL     1      22.799 -18.549  -0.684 -0.83 -0.00    +0.000    29.739
ATOM     11  C   UNL     1      23.253 -17.365  -1.118 -0.69 -0.00    +0.000    29.739
ATOM     12  O   UNL     1      20.496 -17.997  -0.930 -2.21 -0.00    +0.000    29.739
ATOM     13  C   UNL     1      21.357 -18.847  -0.574 -0.86 -0.00    +0.000    29.739
ATOM     14  N   UNL     1      20.931 -20.110  -0.057 -0.66 -0.00    +0.000    29.739
ATOM     15  O   UNL     1      19.613 -20.397   0.050 -1.16 -0.00    +0.000    29.739
ATOM     16  H   UNL     1      21.601 -20.775   0.222 -0.55 -0.00    +0.000    29.739
ATOM     17  C   UNL     1      30.403 -18.212  -1.759 -0.17 -0.00    +0.000    29.739
ATOM     18  C   UNL     1      30.943 -17.774  -0.390 -0.18 -0.00    +0.000    29.739
ATOM     19  O   UNL     1      31.329 -18.885   0.372 -0.20 -0.00    +0.000    29.739
ATOM     20  H   UNL     1      30.598 -19.521   0.411 -0.38 -0.00    +0.000    29.739
ATOM     21  C   UNL     1      30.584 -16.395  -3.420 -0.15 -0.00    +0.000    29.739
ATOM     22  C   UNL     1      31.640 -17.349  -3.987 -0.12 -0.00    +0.000    29.739
ATOM     23  C   UNL     1      30.999 -18.439  -4.795 -0.23 -0.00    +0.000    29.739
ATOM     24  C   UNL     1      30.343 -18.284  -6.013 -0.33 -0.00    +0.000    29.739
ATOM     25  N   UNL     1      30.007 -19.489  -6.527 -0.46 -0.00    +0.000    29.739
ATOM     26  C   UNL     1      30.459 -20.404  -5.652 -0.39 -0.00    +0.000    29.739
ATOM     27  C   UNL     1      31.073 -19.803  -4.584 -0.21 -0.00    +0.000    29.739
ATOM     28  C   UNL     1      31.655 -20.549  -3.556 -0.15 -0.00    +0.000    29.739
ATOM     29  C   UNL     1      31.589 -21.951  -3.646 -0.15 -0.00    +0.000    29.739
ATOM     30  C   UNL     1      30.956 -22.569  -4.746 -0.25 -0.00    +0.000    29.739
ATOM     31  C   UNL     1      30.382 -21.791  -5.768 -0.26 -0.00    +0.000    29.739
ATOM     32  H   UNL     1      29.529 -19.660  -7.370 -0.21 -0.00    +0.000    29.739
TER
ENDMDL
MODEL       50
USER    Run = 50
USER    Cluster Rank = 15
USER    Number of conformations in this cluster = 3
USER  
USER    RMSD from reference structure       = 26.498 A
USER  
USER    Estimated Free Energy of Binding    =  -10.87 kcal/mol  [=(1)+(2)+(3)-(4)]
USER    Estimated Inhibition Constant, Ki   =   10.77 nM (nanomolar)  [Temperature = 298.15 K]
USER    
USER    (1) Final Intermolecular Energy     =  -13.85 kcal/mol
USER        vdW + Hbond + desolv Energy     =  -13.85 kcal/mol
USER        Electrostatic Energy            =   +0.00 kcal/mol
USER    (2) Final Total Internal Energy     =   -1.75 kcal/mol
USER    (3) Torsional Free Energy           =   +2.98 kcal/mol
USER    (4) Unbound System's Energy  [=(2)] =   -1.75 kcal/mol
USER    
USER    
USER  
USER    DPF = ligand_dock.biased.dpf
USER    NEWDPF move	ligand.pdbqt
USER    NEWDPF about	0.285000 0.077000 -0.044000
USER    NEWDPF tran0	28.555551 -15.450933 -1.643067
USER    NEWDPF axisangle0	0.688418 0.511550 0.514196 -171.334188
USER    NEWDPF quaternion0	0.686450 0.510088 0.512726 -0.075551
USER    NEWDPF dihe0	-9.36 55.81 -66.95 -152.65 -152.46 -164.28 -178.99 54.93 -180.00 173.36 
USER  
USER                              x       y       z    vdW   Elec        q     RMS 
ATOM      1  N   UNL     1      28.387 -16.350  -2.617 -0.27 -0.00    +0.000    26.498
ATOM      2  H   UNL     1      27.972 -17.256  -2.835 -0.02 -0.00    +0.000    26.498
ATOM      3  C   UNL     1      27.616 -15.887  -1.434 -0.33 -0.00    +0.000    26.498
ATOM      4  C   UNL     1      24.051 -18.240  -0.644 -0.71 -0.00    +0.000    26.498
ATOM      5  C   UNL     1      24.008 -17.150  -1.526 -0.56 -0.00    +0.000    26.498
ATOM      6  C   UNL     1      25.155 -16.394  -1.782 -0.53 -0.00    +0.000    26.498
ATOM      7  C   UNL     1      26.366 -16.696  -1.139 -0.46 -0.00    +0.000    26.498
ATOM      8  C   UNL     1      26.416 -17.795  -0.267 -0.54 -0.00    +0.000    26.498
ATOM      9  C   UNL     1      25.269 -18.552  -0.009 -0.43 -0.00    +0.000    26.498
ATOM     10  C   UNL     1      21.657 -18.798  -1.063 -0.83 -0.00    +0.000    26.498
ATOM     11  C   UNL     1      22.803 -19.004  -0.396 -0.77 -0.00    +0.000    26.498
ATOM     12  O   UNL     1      19.555 -19.735  -1.670 -2.15 -0.00    +0.000    26.498
ATOM     13  C   UNL     1      20.433 -19.571  -0.779 -0.87 -0.00    +0.000    26.498
ATOM     14  N   UNL     1      20.236 -20.139   0.518 -0.71 -0.00    +0.000    26.498
ATOM     15  O   UNL     1      19.118 -20.850   0.793 -0.81 -0.00    +0.000    26.498
ATOM     16  H   UNL     1      20.919 -20.012   1.216 -0.48 -0.00    +0.000    26.498
ATOM     17  C   UNL     1      29.812 -16.654  -2.353 -0.21 -0.00    +0.000    26.498
ATOM     18  C   UNL     1      30.162 -16.487  -0.868 -0.18 -0.00    +0.000    26.498
ATOM     19  O   UNL     1      30.347 -17.734  -0.255 -0.23 -0.00    +0.000    26.498
ATOM     20  H   UNL     1      29.494 -18.189  -0.185 -0.57 -0.00    +0.000    26.498
ATOM     21  C   UNL     1      28.191 -15.506  -3.819 -0.31 -0.00    +0.000    26.498
ATOM     22  C   UNL     1      26.765 -14.947  -3.853 -0.46 -0.00    +0.000    26.498
ATOM     23  C   UNL     1      26.777 -13.446  -3.842 -0.28 -0.00    +0.000    26.498
ATOM     24  C   UNL     1      26.341 -12.612  -4.868 -0.24 -0.00    +0.000    26.498
ATOM     25  N   UNL     1      26.368 -11.319  -4.470 -0.22 -0.00    +0.000    26.498
ATOM     26  C   UNL     1      26.802 -11.331  -3.199 -0.09 -0.00    +0.000    26.498
ATOM     27  C   UNL     1      27.059 -12.611  -2.778 -0.14 -0.00    +0.000    26.498
ATOM     28  C   UNL     1      27.489 -12.884  -1.478 -0.13 -0.00    +0.000    26.498
ATOM     29  C   UNL     1      27.658 -11.797  -0.601 -0.11 -0.00    +0.000    26.498
ATOM     30  C   UNL     1      27.394 -10.480  -1.035 -0.10 -0.00    +0.000    26.498
ATOM     31  C   UNL     1      26.958 -10.236  -2.351 -0.10 -0.00    +0.000    26.498
ATOM     32  H   UNL     1      26.120 -10.531  -5.005 -0.00 -0.00    +0.000    26.498
TER
ENDMDL
MODEL       19
USER    Run = 19
USER    Cluster Rank = 16
USER    Number of conformations in this cluster = 1
USER  
USER    RMSD from reference structure       = 26.027 A
USER  
USER    Estimated Free Energy of Binding    =  -10.67 kcal/mol  [=(1)+(2)+(3)-(4)]
USER    Estimated Inhibition Constant, Ki   =   15.01 nM (nanomolar)  [Temperature = 298.15 K]
USER    
USER    (1) Final Intermolecular Energy     =  -13.66 kcal/mol
USER        vdW + Hbond + desolv Energy     =  -13.66 kcal/mol
USER        Electrostatic Energy            =   +0.00 kcal/mol
USER    (2) Final Total Internal Energy     =   -2.50 kcal/mol
USER    (3) Torsional Free Energy           =   +2.98 kcal/mol
USER    (4) Unbound System's Energy  [=(2)] =   -2.50 kcal/mol
USER    
USER    
USER  
USER    DPF = ligand_dock.biased.dpf
USER    NEWDPF move	ligand.pdbqt
USER    NEWDPF about	0.285000 0.077000 -0.044000
USER    NEWDPF tran0	28.229255 -15.106929 0.157854
USER    NEWDPF axisangle0	0.456765 -0.515778 -0.724802 158.198951
USER    NEWDPF quaternion0	0.448524 -0.506472 -0.711725 0.189104
USER    NEWDPF dihe0	-27.76 85.86 170.49 -59.26 -161.38 126.87 167.74 104.34 145.20 -44.27 
USER  
USER                              x       y       z    vdW   Elec        q     RMS 
ATOM      1  N   UNL     1      29.153 -14.795   1.072 -0.18 -0.00    +0.000    26.027
ATOM      2  H   UNL     1      29.835 -15.192   1.718 -1.01 -0.00    +0.000    26.027
ATOM      3  C   UNL     1      28.950 -15.876   0.071 -0.16 -0.00    +0.000    26.027
ATOM      4  C   UNL     1      24.777 -16.821  -0.676 -0.50 -0.00    +0.000    26.027
ATOM      5  C   UNL     1      25.665 -17.809  -0.224 -0.58 -0.00    +0.000    26.027
ATOM      6  C   UNL     1      27.007 -17.504   0.019 -0.42 -0.00    +0.000    26.027
ATOM      7  C   UNL     1      27.498 -16.209  -0.213 -0.33 -0.00    +0.000    26.027
ATOM      8  C   UNL     1      26.609 -15.215  -0.652 -0.32 -0.00    +0.000    26.027
ATOM      9  C   UNL     1      25.266 -15.518  -0.895 -0.22 -0.00    +0.000    26.027
ATOM     10  C   UNL     1      22.889 -18.444  -0.795 -0.83 -0.00    +0.000    26.027
ATOM     11  C   UNL     1      23.365 -17.198  -0.931 -0.70 -0.00    +0.000    26.027
ATOM     12  O   UNL     1      20.548 -18.237  -0.414 -2.02 -0.00    +0.000    26.027
ATOM     13  C   UNL     1      21.478 -18.782  -1.069 -0.82 -0.00    +0.000    26.027
ATOM     14  N   UNL     1      21.161 -19.736  -2.084 -0.37 -0.00    +0.000    26.027
ATOM     15  O   UNL     1      19.872 -20.056  -2.346 -2.08 -0.00    +0.000    26.027
ATOM     16  H   UNL     1      21.885 -20.163  -2.597 -0.61 -0.00    +0.000    26.027
ATOM     17  C   UNL     1      27.975 -14.498   1.917 -0.27 -0.00    +0.000    26.027
ATOM     18  C   UNL     1      27.508 -13.045   1.749 -0.28 -0.00    +0.000    26.027
ATOM     19  O   UNL     1      26.110 -12.977   1.664 -0.43 -0.00    +0.000    26.027
ATOM     20  H   UNL     1      25.838 -13.075   0.739 -0.02 -0.00    +0.000    26.027
ATOM     21  C   UNL     1      29.780 -13.577   0.508 -0.09 -0.00    +0.000    26.027
ATOM     22  C   UNL     1      29.694 -13.589  -1.022 -0.05 -0.00    +0.000    26.027
ATOM     23  C   UNL     1      28.674 -12.601  -1.509 -0.06 -0.00    +0.000    26.027
ATOM     24  C   UNL     1      28.529 -11.286  -1.074 -0.06 -0.00    +0.000    26.027
ATOM     25  N   UNL     1      27.602 -10.641  -1.819 -0.10 -0.00    +0.000    26.027
ATOM     26  C   UNL     1      27.173 -11.532  -2.729 -0.10 -0.00    +0.000    26.027
ATOM     27  C   UNL     1      27.806 -12.738  -2.575 -0.11 -0.00    +0.000    26.027
ATOM     28  C   UNL     1      27.553 -13.815  -3.427 -0.20 -0.00    +0.000    26.027
ATOM     29  C   UNL     1      26.616 -13.627  -4.460 -0.34 -0.00    +0.000    26.027
ATOM     30  C   UNL     1      25.963 -12.385  -4.617 -0.29 -0.00    +0.000    26.027
ATOM     31  C   UNL     1      26.242 -11.317  -3.745 -0.12 -0.00    +0.000    26.027
ATOM     32  H   UNL     1      27.304  -9.709  -1.714 +0.00 -0.00    +0.000    26.027
TER
ENDMDL
MODEL       21
USER    Run = 21
USER    Cluster Rank = 17
USER    Number of conformations in this cluster = 1
USER  
USER    RMSD from reference structure       = 27.506 A
USER  
USER    Estimated Free Energy of Binding    =  -10.58 kcal/mol  [=(1)+(2)+(3)-(4)]
USER    Estimated Inhibition Constant, Ki   =   17.51 nM (nanomolar)  [Temperature = 298.15 K]
USER    
USER    (1) Final Intermolecular Energy     =  -13.56 kcal/mol
USER        vdW + Hbond + desolv Energy     =  -13.56 kcal/mol
USER        Electrostatic Energy            =   +0.00 kcal/mol
USER    (2) Final Total Internal Energy     =   -2.23 kcal/mol
USER    (3) Torsional Free Energy           =   +2.98 kcal/mol
USER    (4) Unbound System's Energy  [=(2)] =   -2.23 kcal/mol
USER    
USER    
USER  
USER    DPF = ligand_dock.biased.dpf
USER    NEWDPF move	ligand.pdbqt
USER    NEWDPF about	0.285000 0.077000 -0.044000
USER    NEWDPF tran0	29.050436 -16.268640 -2.675487
USER    NEWDPF axisangle0	0.667561 -0.654646 0.354684 -153.535376
USER    NEWDPF quaternion0	0.649837 -0.637265 0.345267 -0.228900
USER    NEWDPF dihe0	127.54 137.86 24.78 -4.25 -45.39 0.03 8.60 -28.60 -169.77 -70.39 
USER  
USER                              x       y       z    vdW   Elec        q     RMS 
ATOM      1  N   UNL     1      29.397 -15.329  -3.560 -0.15 -0.00    +0.000    27.506
ATOM      2  H   UNL     1      29.317 -14.336  -3.776 +0.01 -0.00    +0.000    27.506
ATOM      3  C   UNL     1      29.146 -15.389  -2.096 -0.16 -0.00    +0.000    27.506
ATOM      4  C   UNL     1      25.210 -16.907  -1.060 -0.56 -0.00    +0.000    27.506
ATOM      5  C   UNL     1      25.372 -15.591  -1.520 -0.38 -0.00    +0.000    27.506
ATOM      6  C   UNL     1      26.638 -15.104  -1.855 -0.32 -0.00    +0.000    27.506
ATOM      7  C   UNL     1      27.776 -15.914  -1.711 -0.27 -0.00    +0.000    27.506
ATOM      8  C   UNL     1      27.615 -17.235  -1.265 -0.34 -0.00    +0.000    27.506
ATOM      9  C   UNL     1      26.350 -17.725  -0.929 -0.50 -0.00    +0.000    27.506
ATOM     10  C   UNL     1      23.187 -18.328  -1.375 -0.76 -0.00    +0.000    27.506
ATOM     11  C   UNL     1      23.847 -17.373  -0.705 -0.73 -0.00    +0.000    27.506
ATOM     12  O   UNL     1      21.275 -18.304   0.043 -1.39 -0.00    +0.000    27.506
ATOM     13  C   UNL     1      21.826 -18.757  -0.997 -0.83 -0.00    +0.000    27.506
ATOM     14  N   UNL     1      21.125 -19.696  -1.815 -0.61 -0.00    +0.000    27.506
ATOM     15  O   UNL     1      19.877 -20.100  -1.481 -2.04 -0.00    +0.000    27.506
ATOM     16  H   UNL     1      21.553 -20.052  -2.628 -0.57 -0.00    +0.000    27.506
ATOM     17  C   UNL     1      28.361 -15.973  -4.398 -0.26 -0.00    +0.000    27.506
ATOM     18  C   UNL     1      27.316 -14.960  -4.885 -0.46 -0.00    +0.000    27.506
ATOM     19  O   UNL     1      26.236 -15.612  -5.497 -1.20 +0.00    +0.000    27.506
ATOM     20  H   UNL     1      25.752 -16.127  -4.834 -0.08 -0.00    +0.000    27.506
ATOM     21  C   UNL     1      30.774 -15.723  -3.941 -0.11 -0.00    +0.000    27.506
ATOM     22  C   UNL     1      31.510 -14.543  -4.584 -0.05 -0.00    +0.000    27.506
ATOM     23  C   UNL     1      30.705 -13.958  -5.708 -0.09 -0.00    +0.000    27.506
ATOM     24  C   UNL     1      30.627 -14.451  -7.008 -0.20 -0.00    +0.000    27.506
ATOM     25  N   UNL     1      29.707 -13.761  -7.721 -0.25 -0.00    +0.000    27.506
ATOM     26  C   UNL     1      29.193 -12.848  -6.879 -0.19 -0.00    +0.000    27.506
ATOM     27  C   UNL     1      29.774 -12.938  -5.640 -0.09 -0.00    +0.000    27.506
ATOM     28  C   UNL     1      29.381 -12.115  -4.583 -0.05 -0.00    +0.000    27.506
ATOM     29  C   UNL     1      28.363 -11.176  -4.827 -0.07 -0.00    +0.000    27.506
ATOM     30  C   UNL     1      27.766 -11.082  -6.104 -0.12 -0.00    +0.000    27.506
ATOM     31  C   UNL     1      28.181 -11.929  -7.148 -0.18 -0.00    +0.000    27.506
ATOM     32  H   UNL     1      29.464 -13.901  -8.665 -0.56 -0.00    +0.000    27.506
TER
ENDMDL
MODEL       55
USER    Run = 55
USER    Cluster Rank = 18
USER    Number of conformations in this cluster = 1
USER  
USER    RMSD from reference structure       = 26.492 A
USER  
USER    Estimated Free Energy of Binding    =  -10.14 kcal/mol  [=(1)+(2)+(3)-(4)]
USER    Estimated Inhibition Constant, Ki   =   37.15 nM (nanomolar)  [Temperature = 298.15 K]
USER    
USER    (1) Final Intermolecular Energy     =  -13.12 kcal/mol
USER        vdW + Hbond + desolv Energy     =  -13.12 kcal/mol
USER        Electrostatic Energy            =   +0.00 kcal/mol
USER    (2) Final Total Internal Energy     =   -2.61 kcal/mol
USER    (3) Torsional Free Energy           =   +2.98 kcal/mol
USER    (4) Unbound System's Energy  [=(2)] =   -2.61 kcal/mol
USER    
USER    
USER  
USER    DPF = ligand_dock.biased.dpf
USER    NEWDPF move	ligand.pdbqt
USER    NEWDPF about	0.285000 0.077000 -0.044000
USER    NEWDPF tran0	29.314947 -14.294942 0.328604
USER    NEWDPF axisangle0	-0.353549 -0.682192 -0.640014 -140.398969
USER    NEWDPF quaternion0	-0.332646 -0.641859 -0.602175 -0.338746
USER    NEWDPF dihe0	156.46 -51.28 67.40 -141.75 145.11 -30.29 -141.70 -17.05 -162.97 99.92 
USER  
USER                              x       y       z    vdW   Elec        q     RMS 
ATOM      1  N   UNL     1      29.786 -14.393  -0.918 -0.07 -0.00    +0.000    26.492
ATOM      2  H   UNL     1      30.282 -15.010  -1.562 +0.00 -0.00    +0.000    26.492
ATOM      3  C   UNL     1      29.232 -15.324   0.100 -0.18 -0.00    +0.000    26.492
ATOM      4  C   UNL     1      25.425 -17.083  -1.032 -0.56 -0.00    +0.000    26.492
ATOM      5  C   UNL     1      25.515 -15.722  -0.701 -0.34 -0.00    +0.000    26.492
ATOM      6  C   UNL     1      26.739 -15.156  -0.339 -0.30 -0.00    +0.000    26.492
ATOM      7  C   UNL     1      27.899 -15.945  -0.273 -0.28 -0.00    +0.000    26.492
ATOM      8  C   UNL     1      27.815 -17.304  -0.617 -0.35 -0.00    +0.000    26.492
ATOM      9  C   UNL     1      26.590 -17.872  -0.979 -0.43 -0.00    +0.000    26.492
ATOM     10  C   UNL     1      23.014 -17.558  -0.613 -0.77 -0.00    +0.000    26.492
ATOM     11  C   UNL     1      24.098 -17.639  -1.397 -0.73 -0.00    +0.000    26.492
ATOM     12  O   UNL     1      20.636 -17.546  -0.719 -2.13 +0.00    +0.000    26.492
ATOM     13  C   UNL     1      21.713 -18.135  -1.007 -0.71 -0.00    +0.000    26.492
ATOM     14  N   UNL     1      21.673 -19.372  -1.721 -0.62 -0.00    +0.000    26.492
ATOM     15  O   UNL     1      20.488 -19.914  -2.088 -2.11 -0.00    +0.000    26.492
ATOM     16  H   UNL     1      22.513 -19.834  -1.946 -0.42 -0.00    +0.000    26.492
ATOM     17  C   UNL     1      30.830 -13.470  -0.417 -0.03 -0.00    +0.000    26.492
ATOM     18  C   UNL     1      31.999 -13.347  -1.404 -0.00 -0.00    +0.000    26.492
ATOM     19  O   UNL     1      31.781 -14.143  -2.537 -0.02 -0.00    +0.000    26.492
ATOM     20  H   UNL     1      31.393 -13.602  -3.242 +0.00 -0.00    +0.000    26.492
ATOM     21  C   UNL     1      28.748 -13.707  -1.721 -0.10 -0.00    +0.000    26.492
ATOM     22  C   UNL     1      28.675 -14.310  -3.128 -0.15 -0.00    +0.000    26.492
ATOM     23  C   UNL     1      27.336 -14.048  -3.755 -0.25 -0.00    +0.000    26.492
ATOM     24  C   UNL     1      26.357 -14.999  -4.031 -0.48 -0.00    +0.000    26.492
ATOM     25  N   UNL     1      25.226 -14.400  -4.468 -0.47 -0.00    +0.000    26.492
ATOM     26  C   UNL     1      25.476 -13.080  -4.455 -0.30 -0.00    +0.000    26.492
ATOM     27  C   UNL     1      26.752 -12.824  -4.023 -0.25 -0.00    +0.000    26.492
ATOM     28  C   UNL     1      27.236 -11.521  -3.890 -0.14 -0.00    +0.000    26.492
ATOM     29  C   UNL     1      26.370 -10.464  -4.221 -0.18 -0.00    +0.000    26.492
ATOM     30  C   UNL     1      25.056 -10.727  -4.668 -0.32 -0.00    +0.000    26.492
ATOM     31  C   UNL     1      24.596 -12.051  -4.787 -0.16 -0.00    +0.000    26.492
ATOM     32  H   UNL     1      24.390 -14.842  -4.740 -0.28 +0.00    +0.000    26.492
TER
ENDMDL


AVSFLD: # AVS field file
AVSFLD: #
AVSFLD: # Created by AutoDock
AVSFLD: #
AVSFLD: ndim=2           # number of dimensions in the field
AVSFLD: nspace=1         # number of physical coordinates
AVSFLD: veclen=7         # vector size
AVSFLD: dim1=32          # atoms
AVSFLD: dim2=18          # conformations
AVSFLD: data=Real       # data type (byte,integer,Real,double)
AVSFLD: field=uniform    # field coordinate layout
AVSFLD: label= x y z vdW Elec q RMS
AVSFLD: variable 1 file = ligand_dock.biased.dlg.pdb filetype = ascii offset = 5 stride = 12
AVSFLD: variable 2 file = ligand_dock.biased.dlg.pdb filetype = ascii offset = 6 stride = 12
AVSFLD: variable 3 file = ligand_dock.biased.dlg.pdb filetype = ascii offset = 7 stride = 12
AVSFLD: variable 4 file = ligand_dock.biased.dlg.pdb filetype = ascii offset = 8 stride = 12
AVSFLD: variable 5 file = ligand_dock.biased.dlg.pdb filetype = ascii offset = 9 stride = 12
AVSFLD: variable 6 file = ligand_dock.biased.dlg.pdb filetype = ascii offset = 10 stride = 12
AVSFLD: variable 7 file = ligand_dock.biased.dlg.pdb filetype = ascii offset = 11 stride = 12
AVSFLD: # end of file

>>> Closing the docking parameter file (DPF)...
This docking finished at:			11:21 23" a.m., 11/08/2024


________________________________________________________________________________

autodock4: Successful Completion on "ThinkStation-P620"

Real= 16m 04.56s,  CPU= 16m 04.29s,  System= 0.19s
________________________________________________________________________________

