REMARK  Name = 
REMARK  11 active torsions:
REMARK  status: ('A' for Active; 'I' for Inactive)
REMARK    1  A    between atoms: C_1  and  N_2
REMARK    2  A    between atoms: N_2  and  C_3
REMARK    3  A    between atoms: N_2  and  C_22
REMARK    4  A    between atoms: C_6  and  C_9
REMARK    5  A    between atoms: C_9  and  C_10
REMARK    6  A    between atoms: C_10  and  C_11
REMARK    7  A    between atoms: C_10  and  C_20
REMARK    8  A    between atoms: C_12  and  C_13
REMARK    9  A    between atoms: C_12  and  C_19
REMARK   10  A    between atoms: C_14  and  C_15
REMARK   11  A    between atoms: N_16  and  O_17
REMARK                            x       y       z     vdW  Elec       q    Type
REMARK                         _______ _______ _______ _____ _____    ______ ____
ROOT
ATOM      1  C   UNL     1       0.900  -0.340   1.485  0.00  0.00    +0.000 C 
ATOM      2  C   UNL     1       0.879  -0.536   3.004  0.00  0.00    +0.000 C 
ENDROOT
BRANCH   1   3
ATOM      3  C   UNL     1       2.314  -0.090   1.003  0.00  0.00    +0.000 C 
ATOM      4  C   UNL     1       2.731  -0.270  -0.267  0.00  0.00    +0.000 C 
ATOM      5  C   UNL     1       1.797  -0.768  -1.349  0.00  0.00    +0.000 C 
BRANCH   4   6
ATOM      6  C   UNL     1       4.166  -0.026  -0.569  0.00  0.00    +0.000 C 
ATOM      7  C   UNL     1       4.798  -0.575  -1.617  0.00  0.00    +0.000 C 
BRANCH   7   8
ATOM      8  C   UNL     1       6.224  -0.337  -1.922  0.00  0.00    +0.000 C 
ATOM      9  N   UNL     1       7.142   0.178  -0.949  0.00  0.00    +0.000 N 
ATOM     10  O   UNL     1       6.646  -0.622  -3.075  0.00  0.00    +0.000 OA
ATOM     11  H   UNL     1       6.848   0.307  -0.018  0.00  0.00    +0.000 HD
BRANCH   9  12
ATOM     12  O   UNL     1       8.411   0.485  -1.306  0.00  0.00    +0.000 OA
ATOM     13  H   UNL     1       8.536   0.300  -2.250  0.00  0.00    +0.000 HD
ENDBRANCH   9  12
ENDBRANCH   7   8
ENDBRANCH   4   6
ENDBRANCH   1   3
BRANCH   1  14
ATOM     14  C   UNL     1      -0.001   0.818   1.111  0.00  0.00    +0.000 C 
ATOM     15  O   UNL     1       0.427   1.995   1.268  0.00  0.00    +0.000 OA
BRANCH  14  19
ATOM     16  C   UNL     1      -4.000   0.273  -0.443  0.00  0.00    +0.000 A 
ATOM     17  C   UNL     1      -3.275   1.457  -0.687  0.00  0.00    +0.000 A 
ATOM     18  C   UNL     1      -1.985   1.625  -0.178  0.00  0.00    +0.000 A 
ATOM     19  C   UNL     1      -1.376   0.615   0.584  0.00  0.00    +0.000 A 
ATOM     20  C   UNL     1      -2.097  -0.564   0.839  0.00  0.00    +0.000 A 
ATOM     21  C   UNL     1      -3.389  -0.733   0.332  0.00  0.00    +0.000 A 
BRANCH  16  23
ATOM     22  C   UNL     1      -5.917  -1.246  -1.112  0.00  0.00    +0.000 C 
ATOM     23  N   UNL     1      -5.341   0.097  -0.971  0.00  0.00    +0.000 N 
ATOM     24  C   UNL     1      -6.143   1.258  -1.375  0.00  0.00    +0.000 C 
ENDBRANCH  16  23
ENDBRANCH  14  19
ENDBRANCH   1  14
TORSDOF 7
