          AutoDock 4.2 Release 4.2.6   
         (C) 1989-2012 The Scripps Research Institute
        AutoDock comes with ABSOLUTELY NO WARRANTY.
        AutoDock is free software, and you are welcome
        to redistribute it under certain conditions;
        for details type 'autodock4 -C'

                     main.cc  $Revision: 1.213 $

                   Compiled on Feb 20 2022 at 09:48:33


This file was created at:			5:31 15" p.m., 11/03/2024
                   on host:		"ThinkStation-P620"
Current Working Directory = "/home/antonio/Documenti/buccheri/IDROSSAMICO HDAC/HDAC 4/P/Ligand_4"

      ________________________________________________________________

                   SETTING UP DEFAULT PARAMETER LIBRARY
      ________________________________________________________________


Random number generator was seeded with values 26990, 1730651475.
Docking parameter file (DPF) used for this docking:		ligand_dock.biased.dpf
DPF> autodock_parameter_version 4.2       # used by autodock to validate parameter set

	Autodock parameter version 4.2.
DPF> outlev 1                             # diagnostic output level

Output Level = 1  ADT-COMPATIBLE OUTPUT DURING DOCKING.
DPF> intelec                              # calculate internal electrostatics

Electrostatic energies will be calculated for all non-bonds between moving atoms.
DPF> seed pid time                        # seeds for random generator

Random number generator was seeded with values 26990, 1730651475.
DPF> ligand_types A C HD OA N             # atoms types in ligand

DPF> fld receptor.maps.fld                # grid_data_file

Opening Grid Map Dimensions file:		receptor.maps.fld
Grid Point Spacing =				0.375 Angstroms

Even Number of User-specified Grid Points =	70 x-points
						70 y-points
						70 z-points

Coordinates of Central Grid Point of Maps =	(19.141, -8.645, -3.505)
Macromolecule file used to create Grid Maps =	receptor.pdbqt
Grid Parameter file used to create Grid Maps =	receptor.gpf
Minimum coordinates in grid = (6.016, -21.770, -16.630)
Maximum coordinates in grid = (32.266, 4.480, 9.620)

DPF> map receptor.A.map                   # atom-specific affinity map

DPF> map receptor.C.map                   # atom-specific affinity map

DPF> map receptor.HD.map                  # atom-specific affinity map

DPF> map receptor.OA.biased.map

DPF> map receptor.N.map                   # atom-specific affinity map

DPF> elecmap receptor.e.map               # electrostatics map

DPF> desolvmap receptor.d.map             # desolvation map

DPF> move ligand.pdbqt                    # small molecule

1,4-interactions will be _ignored_ in the non-bonded internal energy calculation.

Ligand PDBQT file = "ligand.pdbqt"

INPUT LIGAND PDBQT FILE:
________________________

INPUT-LIGAND-PDBQT: REMARK  Name = 
INPUT-LIGAND-PDBQT: REMARK  11 active torsions:
INPUT-LIGAND-PDBQT: REMARK  status: ('A' for Active; 'I' for Inactive)
INPUT-LIGAND-PDBQT: REMARK    1  A    between atoms: C_1  and  N_2
INPUT-LIGAND-PDBQT: REMARK    2  A    between atoms: N_2  and  C_3
INPUT-LIGAND-PDBQT: REMARK    3  A    between atoms: N_2  and  C_22
INPUT-LIGAND-PDBQT: REMARK    4  A    between atoms: C_6  and  C_9
INPUT-LIGAND-PDBQT: REMARK    5  A    between atoms: C_9  and  C_10
INPUT-LIGAND-PDBQT: REMARK    6  A    between atoms: C_10  and  C_11
INPUT-LIGAND-PDBQT: REMARK    7  A    between atoms: C_10  and  C_20
INPUT-LIGAND-PDBQT: REMARK    8  A    between atoms: C_12  and  C_13
INPUT-LIGAND-PDBQT: REMARK    9  A    between atoms: C_12  and  C_19
INPUT-LIGAND-PDBQT: REMARK   10  A    between atoms: C_14  and  C_15
INPUT-LIGAND-PDBQT: REMARK   11  A    between atoms: N_16  and  O_17
INPUT-LIGAND-PDBQT: REMARK                            x       y       z     vdW  Elec       q    Type
INPUT-LIGAND-PDBQT: REMARK                         _______ _______ _______ _____ _____    ______ ____
INPUT-LIGAND-PDBQT: ROOT
INPUT-LIGAND-PDBQT: ATOM      1  C   UNL     1       0.900  -0.340   1.485  0.00  0.00    +0.000 C 
INPUT-LIGAND-PDBQT: ATOM      2  C   UNL     1       0.879  -0.536   3.004  0.00  0.00    +0.000 C 
INPUT-LIGAND-PDBQT: ENDROOT
INPUT-LIGAND-PDBQT: BRANCH   1   3
INPUT-LIGAND-PDBQT: ATOM      3  C   UNL     1       2.314  -0.090   1.003  0.00  0.00    +0.000 C 
INPUT-LIGAND-PDBQT: ATOM      4  C   UNL     1       2.731  -0.270  -0.267  0.00  0.00    +0.000 C 
INPUT-LIGAND-PDBQT: ATOM      5  C   UNL     1       1.797  -0.768  -1.349  0.00  0.00    +0.000 C 
INPUT-LIGAND-PDBQT: BRANCH   4   6
INPUT-LIGAND-PDBQT: ATOM      6  C   UNL     1       4.166  -0.026  -0.569  0.00  0.00    +0.000 C 
INPUT-LIGAND-PDBQT: ATOM      7  C   UNL     1       4.798  -0.575  -1.617  0.00  0.00    +0.000 C 
INPUT-LIGAND-PDBQT: BRANCH   7   8
INPUT-LIGAND-PDBQT: ATOM      8  C   UNL     1       6.224  -0.337  -1.922  0.00  0.00    +0.000 C 
INPUT-LIGAND-PDBQT: ATOM      9  N   UNL     1       7.142   0.178  -0.949  0.00  0.00    +0.000 N 
INPUT-LIGAND-PDBQT: ATOM     10  O   UNL     1       6.646  -0.622  -3.075  0.00  0.00    +0.000 OA
INPUT-LIGAND-PDBQT: ATOM     11  H   UNL     1       6.848   0.307  -0.018  0.00  0.00    +0.000 HD
INPUT-LIGAND-PDBQT: BRANCH   9  12
INPUT-LIGAND-PDBQT: ATOM     12  O   UNL     1       8.411   0.485  -1.306  0.00  0.00    +0.000 OA
INPUT-LIGAND-PDBQT: ATOM     13  H   UNL     1       8.536   0.300  -2.250  0.00  0.00    +0.000 HD
INPUT-LIGAND-PDBQT: ENDBRANCH   9  12
INPUT-LIGAND-PDBQT: ENDBRANCH   7   8
INPUT-LIGAND-PDBQT: ENDBRANCH   4   6
INPUT-LIGAND-PDBQT: ENDBRANCH   1   3
INPUT-LIGAND-PDBQT: BRANCH   1  14
INPUT-LIGAND-PDBQT: ATOM     14  C   UNL     1      -0.001   0.818   1.111  0.00  0.00    +0.000 C 
INPUT-LIGAND-PDBQT: ATOM     15  O   UNL     1       0.427   1.995   1.268  0.00  0.00    +0.000 OA
INPUT-LIGAND-PDBQT: BRANCH  14  19
INPUT-LIGAND-PDBQT: ATOM     16  C   UNL     1      -4.000   0.273  -0.443  0.00  0.00    +0.000 A 
INPUT-LIGAND-PDBQT: ATOM     17  C   UNL     1      -3.275   1.457  -0.687  0.00  0.00    +0.000 A 
INPUT-LIGAND-PDBQT: ATOM     18  C   UNL     1      -1.985   1.625  -0.178  0.00  0.00    +0.000 A 
INPUT-LIGAND-PDBQT: ATOM     19  C   UNL     1      -1.376   0.615   0.584  0.00  0.00    +0.000 A 
INPUT-LIGAND-PDBQT: ATOM     20  C   UNL     1      -2.097  -0.564   0.839  0.00  0.00    +0.000 A 
INPUT-LIGAND-PDBQT: ATOM     21  C   UNL     1      -3.389  -0.733   0.332  0.00  0.00    +0.000 A 
INPUT-LIGAND-PDBQT: BRANCH  16  23
INPUT-LIGAND-PDBQT: ATOM     22  C   UNL     1      -5.917  -1.246  -1.112  0.00  0.00    +0.000 C 
INPUT-LIGAND-PDBQT: ATOM     23  N   UNL     1      -5.341   0.097  -0.971  0.00  0.00    +0.000 N 
INPUT-LIGAND-PDBQT: ATOM     24  C   UNL     1      -6.143   1.258  -1.375  0.00  0.00    +0.000 C 
INPUT-LIGAND-PDBQT: ENDBRANCH  16  23
INPUT-LIGAND-PDBQT: ENDBRANCH  14  19
INPUT-LIGAND-PDBQT: ENDBRANCH   1  14
INPUT-LIGAND-PDBQT: TORSDOF 7
________________________________________________________________________________

Total charge on ligand                               =	+0.000 e
REMARK  Name = 
REMARK  11 active torsions:
REMARK  status: ('A' for Active; 'I' for Inactive)
REMARK    1  A    between atoms: C_1  and  N_2
REMARK    2  A    between atoms: N_2  and  C_3
REMARK    3  A    between atoms: N_2  and  C_22
REMARK    4  A    between atoms: C_6  and  C_9
REMARK    5  A    between atoms: C_9  and  C_10
REMARK    6  A    between atoms: C_10  and  C_11
REMARK    7  A    between atoms: C_10  and  C_20
REMARK    8  A    between atoms: C_12  and  C_13
REMARK    9  A    between atoms: C_12  and  C_19
REMARK   10  A    between atoms: C_14  and  C_15
REMARK   11  A    between atoms: N_16  and  O_17
REMARK                            x       y       z     vdW  Elec       q    Type
REMARK                         _______ _______ _______ _____ _____    ______ ____


Number of Rotatable Bonds in Small Molecule =	7 torsions
Number of atoms in ligand:  24

Number of non-hydrogen atoms in ligand:  22

Number of vibrational degrees of freedom of ligand:  66


Number of torsional degrees of freedom = 7
Estimated loss of torsional free energy upon binding = +2.0881 kcal/mol


DPF> about 1.179 0.138 -0.353            # small molecule center

Small molecule center of rotation =	(+1.179, +0.138, -0.353)

DPF> tran0 random                         # initial coordinates/A or random

Initial translation =			(30.228, -7.712, -10.773) Angstroms
DPF> quaternion0 random                   # initial orientation

Each run will begin with a new, random initial orientation.
Initial quaternion,  (x,y,z,w) =	( -0.060, -0.126, 0.973, 0.182 ),
DPF> dihe0 random                         # initial dihedrals (relative) or random

DPF> torsdof 7                            # torsional degrees of freedom

Number of torsional degrees of freedom = 7
Free energy coefficient for torsional degrees of freedom = 0.2983, the factory default value.

Estimated loss of torsional free energy upon binding = +2.0881 kcal/mol

DPF> rmstol 2.0                           # cluster_tolerance/A

Maximum RMS tolerance for conformational cluster analysis = 2.00 Angstroms
DPF> extnrg 1000.0                        # external grid energy

External grid energy (beyond grid map walls) = 1000.00

DPF> e0max 0.0 10000                      # max initial energy; max number of retries

Using user-specified maximum number of retries for simanneal initialization, 10000 retries.
If the simanneal initial energy is greater than e0max, 0.000,
then a new, random initial state will be created.

DPF> ga_pop_size 150                      # number of individuals in population

A population of 150 individuals will be used
DPF> ga_num_evals 2500000                 # maximum number of energy evaluations

There will be at most 2500000 function evaluations used.
DPF> ga_num_generations 27000             # maximum number of generations

The GA will run for at most 27000 generations.
DPF> ga_elitism 1                         # number of top individuals to survive to next generation

The 1 best will be preserved each GA generation.
DPF> ga_mutation_rate 0.02                # rate of gene mutation

The mutation rate is 0.020000.
DPF> ga_crossover_rate 0.8                # rate of crossover

The crossover rate is 0.800000.
DPF> ga_window_size 10                    # 

The GA's selection window is 10 generations.
DPF> ga_cauchy_alpha 0.0                  # Alpha parameter of Cauchy distribution

The alpha parameter (for the Cauchy distribution) is being set to 0.000000.
DPF> ga_cauchy_beta 1.0                   # Beta parameter Cauchy distribution

The beta parameter (for the Cauchy distribution) is being set to 1.000000.
DPF> set_ga                               # set the above parameters for GA or LGA

DPF> sw_max_its 300                       # iterations of Solis & Wets local search

Solis & Wets algorithms will perform at most 300 iterations.
DPF> sw_max_succ 4                        # consecutive successes before changing rho

Solis & Wets algorithms expand rho every 4 in a row successes.
DPF> sw_max_fail 4                        # consecutive failures before changing rho

Solis & Wets algorithms contract rho every 4 in a row failures.
DPF> sw_rho 1.0                           # size of local search space to sample

rho is set to 1.000000.
DPF> sw_lb_rho 0.01                       # lower bound on rho

rho will never get smaller than 0.010000.
DPF> ls_search_freq 0.06                  # probability of performing local search on individual

Local search will be performed with frequency 0.060000.
DPF> set_psw1                             # set the above pseudo-Solis & Wets parameters

Creating a new Local Search object using the pseudo-Solis-Wets algorithm (pSW1) with the current settings.

DPF> unbound_model bound                  # state of unbound ligand

DPF> ga_run 100

centering ligand on specified point: 1.179 0.138 -0.353
Furthest true ligand atom from "about" center is 7.599 Angstroms (maxrad).
Number of requested GA dockings = 100 runs
Unbound model to be used is 'same as bound' [AutoDock 4.2 default].

	BEGINNING GENETIC ALGORITHM DOCKING 1 of 100
Run: 1 Seed: 804561409 1668023552 [ Run 1 of 100 GA/GALS ]
Beginning LAMARCKIAN GENETIC ALGORITHM (LGA), with a maximum of 2500000 energy evaluations.

Final-Value: -12.589


	FINAL GENETIC ALGORITHM DOCKED STATE
	_______________________________________________


Detailed state:  trans 14.961 -10.278 2.902 quatxyzw 0.527816 0.684347 -0.311910 0.394706 center 1.179 0.138 -0.353 ntor 7 1.2381 -171.3139 -99.4613 -0.1692 172.6764 -32.6145 -84.8324
State:	 14.961 -10.278   2.902   0.574  0.745 -0.339 133.505      1.24 -171.31  -99.46   -0.17  172.68  -32.61  -84.83

DOCKED: MODEL        1
DOCKED: USER    Run = 1
DOCKED: USER    DPF = ligand_dock.biased.dpf
DOCKED: USER  
DOCKED: USER    Estimated Free Energy of Binding    =   -8.84 kcal/mol  [=(1)+(2)+(3)-(4)]
DOCKED: USER    Estimated Inhibition Constant, Ki   =  333.87 nM (nanomolar)  [Temperature = 298.15 K]
DOCKED: USER    
DOCKED: USER    (1) Final Intermolecular Energy     =  -10.92 kcal/mol
DOCKED: USER        vdW + Hbond + desolv Energy     =  -10.92 kcal/mol
DOCKED: USER        Electrostatic Energy            =   +0.00 kcal/mol
DOCKED: USER    (2) Final Total Internal Energy     =   -1.67 kcal/mol
DOCKED: USER    (3) Torsional Free Energy           =   +2.09 kcal/mol
DOCKED: USER    (4) Unbound System's Energy  [=(2)] =   -1.67 kcal/mol
DOCKED: USER    
DOCKED: USER    
DOCKED: USER    NEWDPF move ligand.pdbqt
DOCKED: USER    NEWDPF about 1.179000 0.138000 -0.353000
DOCKED: USER    NEWDPF tran0 14.961354 -10.277846 2.902320
DOCKED: USER    NEWDPF quaternion0 0.527816 0.684347 -0.311910 0.394706
DOCKED: USER    NEWDPF axisangle0 0.574457 0.744820 -0.339472 133.504741
DOCKED: USER    NEWDPF quat0 0.574457 0.744820 -0.339472 133.504741
DOCKED: USER    NEWDPF dihe0 1.24 -171.31 -99.46 -0.17 172.68 -32.61 -84.83 
DOCKED: USER  keepresnum = 1 
DOCKED: USER  
DOCKED: REMARK  Name = 
DOCKED: REMARK  11 active torsions:
DOCKED: REMARK  status: ('A' for Active; 'I' for Inactive)
DOCKED: REMARK    1  A    between atoms: C_1  and  N_2
DOCKED: REMARK    2  A    between atoms: N_2  and  C_3
DOCKED: REMARK    3  A    between atoms: N_2  and  C_22
DOCKED: REMARK    4  A    between atoms: C_6  and  C_9
DOCKED: REMARK    5  A    between atoms: C_9  and  C_10
DOCKED: REMARK    6  A    between atoms: C_10  and  C_11
DOCKED: REMARK    7  A    between atoms: C_10  and  C_20
DOCKED: REMARK    8  A    between atoms: C_12  and  C_13
DOCKED: REMARK    9  A    between atoms: C_12  and  C_19
DOCKED: REMARK   10  A    between atoms: C_14  and  C_15
DOCKED: REMARK   11  A    between atoms: N_16  and  O_17
DOCKED: REMARK                            x       y       z     vdW  Elec       q    Type
DOCKED: REMARK                         _______ _______ _______ _____ _____    ______ ____
DOCKED: USER                              x       y       z     vdW  Elec       q    Type
DOCKED: USER                           _______ _______ _______ _____ _____    ______ ____
DOCKED: ROOT
DOCKED: ATOM      1  C   UNL     1      13.172 -10.686   2.339 -0.32 +0.00    +0.000 C 
DOCKED: ATOM      2  C   UNL     1      11.761 -10.770   1.750 -0.29 +0.00    +0.000 C 
DOCKED: ENDROOT
DOCKED: BRANCH   1   3
DOCKED: ATOM      3  C   UNL     1      13.525  -9.249   2.664 -0.25 +0.00    +0.000 C 
DOCKED: ATOM      4  C   UNL     1      13.965  -8.824   3.867 -0.34 +0.00    +0.000 C 
DOCKED: ATOM      5  C   UNL     1      14.133  -9.773   5.034 -0.42 +0.00    +0.000 C 
DOCKED: BRANCH   4   6
DOCKED: ATOM      6  C   UNL     1      14.222  -7.370   4.039 -0.33 +0.00    +0.000 C 
DOCKED: ATOM      7  C   UNL     1      14.213  -6.761   5.234 -0.44 +0.00    +0.000 C 
DOCKED: BRANCH   7   8
DOCKED: ATOM      8  C   UNL     1      14.467  -5.316   5.411 -0.47 +0.00    +0.000 C 
DOCKED: ATOM      9  N   UNL     1      15.791  -4.768   5.446 -0.50 +0.00    +0.000 N 
DOCKED: ATOM     10  O   UNL     1      13.478  -4.541   5.512 -0.72 +0.00    +0.000 OA
DOCKED: ATOM     11  H   UNL     1      16.567  -5.347   5.266 -0.63 -0.00    +0.000 HD
DOCKED: BRANCH   9  12
DOCKED: ATOM     12  O   UNL     1      15.978  -3.456   5.723 -0.64 -0.00    +0.000 OA
DOCKED: ATOM     13  H   UNL     1      15.120  -3.035   5.893 -0.20 -0.00    +0.000 HD
DOCKED: ENDBRANCH   9  12
DOCKED: ENDBRANCH   7   8
DOCKED: ENDBRANCH   4   6
DOCKED: ENDBRANCH   1   3
DOCKED: BRANCH   1  14
DOCKED: ATOM     14  C   UNL     1      14.167 -11.267   1.357 -0.41 +0.00    +0.000 C 
DOCKED: ATOM     15  O   UNL     1      13.733 -11.819   0.308 -0.45 +0.00    +0.000 OA
DOCKED: BRANCH  14  19
DOCKED: ATOM     16  C   UNL     1      18.426 -11.135   2.098 -0.50 -0.00    +0.000 A 
DOCKED: ATOM     17  C   UNL     1      17.496 -10.894   3.129 -0.41 +0.00    +0.000 A 
DOCKED: ATOM     18  C   UNL     1      16.122 -10.936   2.879 -0.44 +0.00    +0.000 A 
DOCKED: ATOM     19  C   UNL     1      15.634 -11.225   1.595 -0.37 +0.00    +0.000 A 
DOCKED: ATOM     20  C   UNL     1      16.556 -11.457   0.560 -0.38 +0.00    +0.000 A 
DOCKED: ATOM     21  C   UNL     1      17.931 -11.414   0.808 -0.44 -0.00    +0.000 A 
DOCKED: BRANCH  16  23
DOCKED: ATOM     22  C   UNL     1      20.367 -10.549   3.620 -0.65 -0.00    +0.000 C 
DOCKED: ATOM     23  N   UNL     1      19.854 -11.091   2.356 -0.64 -0.00    +0.000 N 
DOCKED: ATOM     24  C   UNL     1      20.809 -11.586   1.358 -0.70 -0.00    +0.000 C 
DOCKED: ENDBRANCH  16  23
DOCKED: ENDBRANCH  14  19
DOCKED: ENDBRANCH   1  14
DOCKED: TORSDOF 7
DOCKED: TER
DOCKED: ENDMDL
________________________________________________________________________________


	BEGINNING GENETIC ALGORITHM DOCKING 2 of 100
Run: 2 Seed: 1980744129 1150083174 [ Run 2 of 100 GA/GALS ]
Beginning LAMARCKIAN GENETIC ALGORITHM (LGA), with a maximum of 2500000 energy evaluations.

Final-Value: -12.040


	FINAL GENETIC ALGORITHM DOCKED STATE
	_______________________________________________


Detailed state:  trans 20.307 -9.474 -4.427 quatxyzw -0.726671 0.465237 -0.466658 0.194252 center 1.179 0.138 -0.353 ntor 7 75.1568 166.6665 6.5581 91.9596 26.6276 -23.3403 -127.0492
State:	 20.307  -9.474  -4.427  -0.741  0.474 -0.476 157.598     75.16  166.67    6.56   91.96   26.63  -23.34 -127.05

DOCKED: MODEL        2
DOCKED: USER    Run = 2
DOCKED: USER    DPF = ligand_dock.biased.dpf
DOCKED: USER  
DOCKED: USER    Estimated Free Energy of Binding    =   -8.49 kcal/mol  [=(1)+(2)+(3)-(4)]
DOCKED: USER    Estimated Inhibition Constant, Ki   =  595.32 nM (nanomolar)  [Temperature = 298.15 K]
DOCKED: USER    
DOCKED: USER    (1) Final Intermolecular Energy     =  -10.58 kcal/mol
DOCKED: USER        vdW + Hbond + desolv Energy     =  -10.58 kcal/mol
DOCKED: USER        Electrostatic Energy            =   +0.00 kcal/mol
DOCKED: USER    (2) Final Total Internal Energy     =   -1.46 kcal/mol
DOCKED: USER    (3) Torsional Free Energy           =   +2.09 kcal/mol
DOCKED: USER    (4) Unbound System's Energy  [=(2)] =   -1.46 kcal/mol
DOCKED: USER    
DOCKED: USER    
DOCKED: USER    NEWDPF move ligand.pdbqt
DOCKED: USER    NEWDPF about 1.179000 0.138000 -0.353000
DOCKED: USER    NEWDPF tran0 20.307339 -9.474204 -4.426575
DOCKED: USER    NEWDPF quaternion0 -0.726671 0.465237 -0.466658 0.194252
DOCKED: USER    NEWDPF axisangle0 -0.740782 0.474271 -0.475719 157.597952
DOCKED: USER    NEWDPF quat0 -0.740782 0.474271 -0.475719 157.597952
DOCKED: USER    NEWDPF dihe0 75.16 166.67 6.56 91.96 26.63 -23.34 -127.05 
DOCKED: USER  keepresnum = 1 
DOCKED: USER  
DOCKED: REMARK  Name = 
DOCKED: REMARK  11 active torsions:
DOCKED: REMARK  status: ('A' for Active; 'I' for Inactive)
DOCKED: REMARK    1  A    between atoms: C_1  and  N_2
DOCKED: REMARK    2  A    between atoms: N_2  and  C_3
DOCKED: REMARK    3  A    between atoms: N_2  and  C_22
DOCKED: REMARK    4  A    between atoms: C_6  and  C_9
DOCKED: REMARK    5  A    between atoms: C_9  and  C_10
DOCKED: REMARK    6  A    between atoms: C_10  and  C_11
DOCKED: REMARK    7  A    between atoms: C_10  and  C_20
DOCKED: REMARK    8  A    between atoms: C_12  and  C_13
DOCKED: REMARK    9  A    between atoms: C_12  and  C_19
DOCKED: REMARK   10  A    between atoms: C_14  and  C_15
DOCKED: REMARK   11  A    between atoms: N_16  and  O_17
DOCKED: REMARK                            x       y       z     vdW  Elec       q    Type
DOCKED: REMARK                         _______ _______ _______ _____ _____    ______ ____
DOCKED: USER                              x       y       z     vdW  Elec       q    Type
DOCKED: USER                           _______ _______ _______ _____ _____    ______ ____
DOCKED: ROOT
DOCKED: ATOM      1  C   UNL     1      21.595 -10.418  -5.492 -0.44 -0.00    +0.000 C 
DOCKED: ATOM      2  C   UNL     1      22.516 -11.400  -6.223 -0.49 -0.00    +0.000 C 
DOCKED: ENDROOT
DOCKED: BRANCH   1   3
DOCKED: ATOM      3  C   UNL     1      21.327 -10.895  -4.080 -0.53 -0.00    +0.000 C 
DOCKED: ATOM      4  C   UNL     1      21.346 -10.102  -2.989 -0.54 -0.00    +0.000 C 
DOCKED: ATOM      5  C   UNL     1      21.663  -8.625  -3.084 -0.37 -0.00    +0.000 C 
DOCKED: BRANCH   4   6
DOCKED: ATOM      6  C   UNL     1      21.109 -10.735  -1.665 -0.49 -0.00    +0.000 C 
DOCKED: ATOM      7  C   UNL     1      20.005 -10.517  -0.936 -0.56 -0.00    +0.000 C 
DOCKED: BRANCH   7   8
DOCKED: ATOM      8  C   UNL     1      19.764 -11.142   0.381 -0.63 -0.00    +0.000 C 
DOCKED: ATOM      9  N   UNL     1      20.831 -11.599   1.221 -0.70 -0.00    +0.000 N 
DOCKED: ATOM     10  O   UNL     1      18.574 -11.252   0.784 -0.59 -0.00    +0.000 OA
DOCKED: ATOM     11  H   UNL     1      21.766 -11.425   0.964 -0.49 -0.00    +0.000 HD
DOCKED: BRANCH   9  12
DOCKED: ATOM     12  O   UNL     1      20.558 -12.266   2.367 -1.37 -0.00    +0.000 OA
DOCKED: ATOM     13  H   UNL     1      20.283 -13.172   2.157 -0.60 -0.00    +0.000 HD
DOCKED: ENDBRANCH   9  12
DOCKED: ENDBRANCH   7   8
DOCKED: ENDBRANCH   4   6
DOCKED: ENDBRANCH   1   3
DOCKED: BRANCH   1  14
DOCKED: ATOM     14  C   UNL     1      20.297 -10.274  -6.259 -0.31 -0.00    +0.000 C 
DOCKED: ATOM     15  O   UNL     1      20.348 -10.067  -7.503 -0.24 -0.00    +0.000 OA
DOCKED: BRANCH  14  19
DOCKED: ATOM     16  C   UNL     1      16.421 -10.523  -4.358 -0.18 -0.00    +0.000 A 
DOCKED: ATOM     17  C   UNL     1      16.718 -11.272  -5.515 -0.19 -0.00    +0.000 A 
DOCKED: ATOM     18  C   UNL     1      17.972 -11.182  -6.124 -0.33 -0.00    +0.000 A 
DOCKED: ATOM     19  C   UNL     1      18.970 -10.348  -5.594 -0.28 -0.00    +0.000 A 
DOCKED: ATOM     20  C   UNL     1      18.677  -9.592  -4.446 -0.23 -0.00    +0.000 A 
DOCKED: ATOM     21  C   UNL     1      17.422  -9.679  -3.837 -0.22 -0.00    +0.000 A 
DOCKED: BRANCH  16  23
DOCKED: ATOM     22  C   UNL     1      13.909 -10.825  -4.531 -0.26 -0.00    +0.000 C 
DOCKED: ATOM     23  N   UNL     1      15.118 -10.615  -3.725 -0.24 -0.00    +0.000 N 
DOCKED: ATOM     24  C   UNL     1      14.986 -10.497  -2.268 -0.30 -0.00    +0.000 C 
DOCKED: ENDBRANCH  16  23
DOCKED: ENDBRANCH  14  19
DOCKED: ENDBRANCH   1  14
DOCKED: TORSDOF 7
DOCKED: TER
DOCKED: ENDMDL
________________________________________________________________________________


	BEGINNING GENETIC ALGORITHM DOCKING 3 of 100
Run: 3 Seed: 479139857 1225848830 [ Run 3 of 100 GA/GALS ]
Beginning LAMARCKIAN GENETIC ALGORITHM (LGA), with a maximum of 2500000 energy evaluations.

Final-Value: -11.841


	FINAL GENETIC ALGORITHM DOCKED STATE
	_______________________________________________


Detailed state:  trans 14.724 -10.894 1.968 quatxyzw 0.715979 0.017030 0.019500 0.697642 center 1.179 0.138 -0.353 ntor 7 -16.6355 160.5034 -153.7056 147.9906 -124.7334 -15.6294 -4.0457
State:	 14.724 -10.894   1.968   0.999  0.024  0.027 91.524    -16.64  160.50 -153.71  147.99 -124.73  -15.63   -4.05

DOCKED: MODEL        3
DOCKED: USER    Run = 3
DOCKED: USER    DPF = ligand_dock.biased.dpf
DOCKED: USER  
DOCKED: USER    Estimated Free Energy of Binding    =   -8.07 kcal/mol  [=(1)+(2)+(3)-(4)]
DOCKED: USER    Estimated Inhibition Constant, Ki   =    1.22 uM (micromolar)  [Temperature = 298.15 K]
DOCKED: USER    
DOCKED: USER    (1) Final Intermolecular Energy     =  -10.15 kcal/mol
DOCKED: USER        vdW + Hbond + desolv Energy     =  -10.15 kcal/mol
DOCKED: USER        Electrostatic Energy            =   +0.00 kcal/mol
DOCKED: USER    (2) Final Total Internal Energy     =   -1.69 kcal/mol
DOCKED: USER    (3) Torsional Free Energy           =   +2.09 kcal/mol
DOCKED: USER    (4) Unbound System's Energy  [=(2)] =   -1.69 kcal/mol
DOCKED: USER    
DOCKED: USER    
DOCKED: USER    NEWDPF move ligand.pdbqt
DOCKED: USER    NEWDPF about 1.179000 0.138000 -0.353000
DOCKED: USER    NEWDPF tran0 14.724406 -10.893802 1.967932
DOCKED: USER    NEWDPF quaternion0 0.715979 0.017030 0.019500 0.697642
DOCKED: USER    NEWDPF axisangle0 0.999347 0.023771 0.027217 91.523787
DOCKED: USER    NEWDPF quat0 0.999347 0.023771 0.027217 91.523787
DOCKED: USER    NEWDPF dihe0 -16.64 160.50 -153.71 147.99 -124.73 -15.63 -4.05 
DOCKED: USER  keepresnum = 1 
DOCKED: USER  
DOCKED: REMARK  Name = 
DOCKED: REMARK  11 active torsions:
DOCKED: REMARK  status: ('A' for Active; 'I' for Inactive)
DOCKED: REMARK    1  A    between atoms: C_1  and  N_2
DOCKED: REMARK    2  A    between atoms: N_2  and  C_3
DOCKED: REMARK    3  A    between atoms: N_2  and  C_22
DOCKED: REMARK    4  A    between atoms: C_6  and  C_9
DOCKED: REMARK    5  A    between atoms: C_9  and  C_10
DOCKED: REMARK    6  A    between atoms: C_10  and  C_11
DOCKED: REMARK    7  A    between atoms: C_10  and  C_20
DOCKED: REMARK    8  A    between atoms: C_12  and  C_13
DOCKED: REMARK    9  A    between atoms: C_12  and  C_19
DOCKED: REMARK   10  A    between atoms: C_14  and  C_15
DOCKED: REMARK   11  A    between atoms: N_16  and  O_17
DOCKED: REMARK                            x       y       z     vdW  Elec       q    Type
DOCKED: REMARK                         _______ _______ _______ _____ _____    ______ ____
DOCKED: USER                              x       y       z     vdW  Elec       q    Type
DOCKED: USER                           _______ _______ _______ _____ _____    ______ ____
DOCKED: ROOT
DOCKED: ATOM      1  C   UNL     1      14.429  -9.043   2.383 -0.28 +0.00    +0.000 C 
DOCKED: ATOM      2  C   UNL     1      14.404  -7.520   2.539 -0.27 +0.00    +0.000 C 
DOCKED: ENDROOT
DOCKED: BRANCH   1   3
DOCKED: ATOM      3  C   UNL     1      15.852  -9.536   2.219 -0.38 +0.00    +0.000 C 
DOCKED: ATOM      4  C   UNL     1      16.323 -10.693   2.727 -0.48 +0.00    +0.000 C 
DOCKED: ATOM      5  C   UNL     1      15.447 -11.620   3.543 -0.46 +0.00    +0.000 C 
DOCKED: BRANCH   4   6
DOCKED: ATOM      6  C   UNL     1      17.760 -11.010   2.518 -0.51 +0.00    +0.000 C 
DOCKED: ATOM      7  C   UNL     1      18.333 -11.048   1.306 -0.53 -0.00    +0.000 C 
DOCKED: BRANCH   7   8
DOCKED: ATOM      8  C   UNL     1      19.761 -11.363   1.092 -0.69 -0.00    +0.000 C 
DOCKED: ATOM      9  N   UNL     1      20.587 -10.613   0.191 -0.61 -0.00    +0.000 N 
DOCKED: ATOM     10  O   UNL     1      20.270 -12.313   1.746 -1.71 -0.00    +0.000 OA
DOCKED: ATOM     11  H   UNL     1      20.228  -9.807  -0.246 -0.02 -0.00    +0.000 HD
DOCKED: BRANCH   9  12
DOCKED: ATOM     12  O   UNL     1      21.857 -11.008  -0.056 -0.69 -0.00    +0.000 OA
DOCKED: ATOM     13  H   UNL     1      22.141 -11.636   0.626 -0.59 -0.00    +0.000 HD
DOCKED: ENDBRANCH   9  12
DOCKED: ENDBRANCH   7   8
DOCKED: ENDBRANCH   4   6
DOCKED: ENDBRANCH   1   3
DOCKED: BRANCH   1  14
DOCKED: ATOM     14  C   UNL     1      13.587  -9.445   1.190 -0.21 +0.00    +0.000 C 
DOCKED: ATOM     15  O   UNL     1      14.045  -9.248   0.031 -0.21 +0.00    +0.000 OA
DOCKED: BRANCH  14  19
DOCKED: ATOM     16  C   UNL     1       9.635 -11.144   1.633 -0.28 +0.00    +0.000 A 
DOCKED: ATOM     17  C   UNL     1       9.857  -9.760   1.780 -0.15 +0.00    +0.000 A 
DOCKED: ATOM     18  C   UNL     1      11.138  -9.221   1.639 -0.12 +0.00    +0.000 A 
DOCKED: ATOM     19  C   UNL     1      12.235 -10.044   1.339 -0.20 +0.00    +0.000 A 
DOCKED: ATOM     20  C   UNL     1      12.022 -11.426   1.201 -0.38 +0.00    +0.000 A 
DOCKED: ATOM     21  C   UNL     1      10.741 -11.968   1.344 -0.40 +0.00    +0.000 A 
DOCKED: BRANCH  16  23
DOCKED: ATOM     22  C   UNL     1       7.399 -11.215   2.827 -0.33 +0.00    +0.000 C 
DOCKED: ATOM     23  N   UNL     1       8.304 -11.706   1.781 -0.34 +0.00    +0.000 N 
DOCKED: ATOM     24  C   UNL     1       7.842 -12.775   0.888 -0.33 -0.00    +0.000 C 
DOCKED: ENDBRANCH  16  23
DOCKED: ENDBRANCH  14  19
DOCKED: ENDBRANCH   1  14
DOCKED: TORSDOF 7
DOCKED: TER
DOCKED: ENDMDL
________________________________________________________________________________


	BEGINNING GENETIC ALGORITHM DOCKING 4 of 100
Run: 4 Seed: 2105318832 473565993 [ Run 4 of 100 GA/GALS ]
Beginning LAMARCKIAN GENETIC ALGORITHM (LGA), with a maximum of 2500000 energy evaluations.

Final-Value: -12.689


	FINAL GENETIC ALGORITHM DOCKED STATE
	_______________________________________________


Detailed state:  trans 17.745 -10.718 0.706 quatxyzw 0.225921 -0.183044 0.953508 0.079227 center 1.179 0.138 -0.353 ntor 7 145.7935 162.0744 -45.6136 -40.9209 35.3411 16.4177 -26.9423
State:	 17.745 -10.718   0.706   0.227 -0.184  0.957 170.912    145.79  162.07  -45.61  -40.92   35.34   16.42  -26.94

DOCKED: MODEL        4
DOCKED: USER    Run = 4
DOCKED: USER    DPF = ligand_dock.biased.dpf
DOCKED: USER  
DOCKED: USER    Estimated Free Energy of Binding    =   -9.47 kcal/mol  [=(1)+(2)+(3)-(4)]
DOCKED: USER    Estimated Inhibition Constant, Ki   =  113.64 nM (nanomolar)  [Temperature = 298.15 K]
DOCKED: USER    
DOCKED: USER    (1) Final Intermolecular Energy     =  -11.56 kcal/mol
DOCKED: USER        vdW + Hbond + desolv Energy     =  -11.56 kcal/mol
DOCKED: USER        Electrostatic Energy            =   +0.00 kcal/mol
DOCKED: USER    (2) Final Total Internal Energy     =   -1.13 kcal/mol
DOCKED: USER    (3) Torsional Free Energy           =   +2.09 kcal/mol
DOCKED: USER    (4) Unbound System's Energy  [=(2)] =   -1.13 kcal/mol
DOCKED: USER    
DOCKED: USER    
DOCKED: USER    NEWDPF move ligand.pdbqt
DOCKED: USER    NEWDPF about 1.179000 0.138000 -0.353000
DOCKED: USER    NEWDPF tran0 17.745214 -10.717864 0.705994
DOCKED: USER    NEWDPF quaternion0 0.225921 -0.183044 0.953508 0.079227
DOCKED: USER    NEWDPF axisangle0 0.226633 -0.183621 0.956515 170.911783
DOCKED: USER    NEWDPF quat0 0.226633 -0.183621 0.956515 170.911783
DOCKED: USER    NEWDPF dihe0 145.79 162.07 -45.61 -40.92 35.34 16.42 -26.94 
DOCKED: USER  keepresnum = 1 
DOCKED: USER  
DOCKED: REMARK  Name = 
DOCKED: REMARK  11 active torsions:
DOCKED: REMARK  status: ('A' for Active; 'I' for Inactive)
DOCKED: REMARK    1  A    between atoms: C_1  and  N_2
DOCKED: REMARK    2  A    between atoms: N_2  and  C_3
DOCKED: REMARK    3  A    between atoms: N_2  and  C_22
DOCKED: REMARK    4  A    between atoms: C_6  and  C_9
DOCKED: REMARK    5  A    between atoms: C_9  and  C_10
DOCKED: REMARK    6  A    between atoms: C_10  and  C_11
DOCKED: REMARK    7  A    between atoms: C_10  and  C_20
DOCKED: REMARK    8  A    between atoms: C_12  and  C_13
DOCKED: REMARK    9  A    between atoms: C_12  and  C_19
DOCKED: REMARK   10  A    between atoms: C_14  and  C_15
DOCKED: REMARK   11  A    between atoms: N_16  and  O_17
DOCKED: REMARK                            x       y       z     vdW  Elec       q    Type
DOCKED: REMARK                         _______ _______ _______ _____ _____    ______ ____
DOCKED: USER                              x       y       z     vdW  Elec       q    Type
DOCKED: USER                           _______ _______ _______ _____ _____    ______ ____
DOCKED: ROOT
DOCKED: ATOM      1  C   UNL     1      18.805 -10.788   2.305 -0.61 -0.00    +0.000 C 
DOCKED: ATOM      2  C   UNL     1      19.508 -11.079   3.634 -0.59 -0.00    +0.000 C 
DOCKED: ENDROOT
DOCKED: BRANCH   1   3
DOCKED: ATOM      3  C   UNL     1      17.348 -11.198   2.377 -0.45 +0.00    +0.000 C 
DOCKED: ATOM      4  C   UNL     1      16.449 -10.995   1.392 -0.41 +0.00    +0.000 C 
DOCKED: ATOM      5  C   UNL     1      16.825 -10.304   0.099 -0.21 -0.00    +0.000 C 
DOCKED: BRANCH   4   6
DOCKED: ATOM      6  C   UNL     1      15.043 -11.413   1.638 -0.45 +0.00    +0.000 C 
DOCKED: ATOM      7  C   UNL     1      14.019 -10.548   1.689 -0.33 +0.00    +0.000 C 
DOCKED: BRANCH   7   8
DOCKED: ATOM      8  C   UNL     1      12.621 -10.958   1.933 -0.33 +0.00    +0.000 C 
DOCKED: ATOM      9  N   UNL     1      12.127 -12.255   1.576 -0.34 +0.00    +0.000 N 
DOCKED: ATOM     10  O   UNL     1      11.846 -10.139   2.497 -0.23 +0.00    +0.000 OA
DOCKED: ATOM     11  H   UNL     1      12.747 -12.937   1.230 -0.40 +0.00    +0.000 HD
DOCKED: BRANCH   9  12
DOCKED: ATOM     12  O   UNL     1      10.812 -12.545   1.716 -0.60 +0.00    +0.000 OA
DOCKED: ATOM     13  H   UNL     1      10.536 -13.148   1.008 -0.59 +0.00    +0.000 HD
DOCKED: ENDBRANCH   9  12
DOCKED: ENDBRANCH   7   8
DOCKED: ENDBRANCH   4   6
DOCKED: ENDBRANCH   1   3
DOCKED: BRANCH   1  14
DOCKED: ATOM     14  C   UNL     1      19.510 -11.527   1.187 -0.68 -0.00    +0.000 C 
DOCKED: ATOM     15  O   UNL     1      19.718 -12.765   1.314 -1.36 -0.00    +0.000 OA
DOCKED: BRANCH  14  19
DOCKED: ATOM     16  C   UNL     1      20.849  -9.557  -2.423 -0.48 -0.00    +0.000 A 
DOCKED: ATOM     17  C   UNL     1      19.939 -10.632  -2.471 -0.41 -0.00    +0.000 A 
DOCKED: ATOM     18  C   UNL     1      19.515 -11.264  -1.299 -0.30 -0.00    +0.000 A 
DOCKED: ATOM     19  C   UNL     1      19.980 -10.839  -0.045 -0.55 -0.00    +0.000 A 
DOCKED: ATOM     20  C   UNL     1      20.895  -9.774   0.009 -0.59 -0.00    +0.000 A 
DOCKED: ATOM     21  C   UNL     1      21.322  -9.141  -1.162 -0.53 -0.00    +0.000 A 
DOCKED: BRANCH  16  23
DOCKED: ATOM     22  C   UNL     1      21.552  -9.678  -4.857 -0.39 -0.00    +0.000 C 
DOCKED: ATOM     23  N   UNL     1      21.292  -8.899  -3.640 -0.39 -0.00    +0.000 N 
DOCKED: ATOM     24  C   UNL     1      21.489  -7.445  -3.674 -0.34 -0.00    +0.000 C 
DOCKED: ENDBRANCH  16  23
DOCKED: ENDBRANCH  14  19
DOCKED: ENDBRANCH   1  14
DOCKED: TORSDOF 7
DOCKED: TER
DOCKED: ENDMDL
________________________________________________________________________________


	BEGINNING GENETIC ALGORITHM DOCKING 5 of 100
Run: 5 Seed: 1489999041 1062366393 [ Run 5 of 100 GA/GALS ]
Beginning LAMARCKIAN GENETIC ALGORITHM (LGA), with a maximum of 2500000 energy evaluations.

Final-Value: -12.629


	FINAL GENETIC ALGORITHM DOCKED STATE
	_______________________________________________


Detailed state:  trans 15.698 -7.634 3.515 quatxyzw -0.423872 0.199459 0.449765 0.760434 center 1.179 0.138 -0.353 ntor 7 -7.5608 -147.0696 -135.9515 66.2202 5.4201 -47.3198 -43.8568
State:	 15.698  -7.634   3.515  -0.653  0.307  0.693 80.995     -7.56 -147.07 -135.95   66.22    5.42  -47.32  -43.86

DOCKED: MODEL        5
DOCKED: USER    Run = 5
DOCKED: USER    DPF = ligand_dock.biased.dpf
DOCKED: USER  
DOCKED: USER    Estimated Free Energy of Binding    =   -8.87 kcal/mol  [=(1)+(2)+(3)-(4)]
DOCKED: USER    Estimated Inhibition Constant, Ki   =  315.39 nM (nanomolar)  [Temperature = 298.15 K]
DOCKED: USER    
DOCKED: USER    (1) Final Intermolecular Energy     =  -10.96 kcal/mol
DOCKED: USER        vdW + Hbond + desolv Energy     =  -10.96 kcal/mol
DOCKED: USER        Electrostatic Energy            =   +0.00 kcal/mol
DOCKED: USER    (2) Final Total Internal Energy     =   -1.67 kcal/mol
DOCKED: USER    (3) Torsional Free Energy           =   +2.09 kcal/mol
DOCKED: USER    (4) Unbound System's Energy  [=(2)] =   -1.67 kcal/mol
DOCKED: USER    
DOCKED: USER    
DOCKED: USER    NEWDPF move ligand.pdbqt
DOCKED: USER    NEWDPF about 1.179000 0.138000 -0.353000
DOCKED: USER    NEWDPF tran0 15.697510 -7.634487 3.515233
DOCKED: USER    NEWDPF quaternion0 -0.423872 0.199459 0.449765 0.760434
DOCKED: USER    NEWDPF axisangle0 -0.652698 0.307137 0.692570 80.995019
DOCKED: USER    NEWDPF quat0 -0.652698 0.307137 0.692570 80.995019
DOCKED: USER    NEWDPF dihe0 -7.56 -147.07 -135.95 66.22 5.42 -47.32 -43.86 
DOCKED: USER  keepresnum = 1 
DOCKED: USER  
DOCKED: REMARK  Name = 
DOCKED: REMARK  11 active torsions:
DOCKED: REMARK  status: ('A' for Active; 'I' for Inactive)
DOCKED: REMARK    1  A    between atoms: C_1  and  N_2
DOCKED: REMARK    2  A    between atoms: N_2  and  C_3
DOCKED: REMARK    3  A    between atoms: N_2  and  C_22
DOCKED: REMARK    4  A    between atoms: C_6  and  C_9
DOCKED: REMARK    5  A    between atoms: C_9  and  C_10
DOCKED: REMARK    6  A    between atoms: C_10  and  C_11
DOCKED: REMARK    7  A    between atoms: C_10  and  C_20
DOCKED: REMARK    8  A    between atoms: C_12  and  C_13
DOCKED: REMARK    9  A    between atoms: C_12  and  C_19
DOCKED: REMARK   10  A    between atoms: C_14  and  C_15
DOCKED: REMARK   11  A    between atoms: N_16  and  O_17
DOCKED: REMARK                            x       y       z     vdW  Elec       q    Type
DOCKED: REMARK                         _______ _______ _______ _____ _____    ______ ____
DOCKED: USER                              x       y       z     vdW  Elec       q    Type
DOCKED: USER                           _______ _______ _______ _____ _____    ______ ____
DOCKED: ROOT
DOCKED: ATOM      1  C   UNL     1      14.049  -8.364   4.174 -0.35 +0.00    +0.000 C 
DOCKED: ATOM      2  C   UNL     1      12.897  -9.099   4.867 -0.35 +0.00    +0.000 C 
DOCKED: ENDROOT
DOCKED: BRANCH   1   3
DOCKED: ATOM      3  C   UNL     1      15.237  -9.287   4.000 -0.42 +0.00    +0.000 C 
DOCKED: ATOM      4  C   UNL     1      15.686  -9.738   2.810 -0.41 +0.00    +0.000 C 
DOCKED: ATOM      5  C   UNL     1      15.010  -9.361   1.509 -0.30 +0.00    +0.000 C 
DOCKED: BRANCH   4   6
DOCKED: ATOM      6  C   UNL     1      16.837 -10.679   2.812 -0.50 +0.00    +0.000 C 
DOCKED: ATOM      7  C   UNL     1      17.862 -10.585   1.951 -0.51 -0.00    +0.000 C 
DOCKED: BRANCH   7   8
DOCKED: ATOM      8  C   UNL     1      19.008 -11.517   1.948 -0.64 -0.00    +0.000 C 
DOCKED: ATOM      9  N   UNL     1      20.351 -11.084   2.198 -0.67 -0.00    +0.000 N 
DOCKED: ATOM     10  O   UNL     1      18.785 -12.740   1.740 -0.98 -0.00    +0.000 OA
DOCKED: ATOM     11  H   UNL     1      20.524 -10.151   2.463 -0.39 -0.00    +0.000 HD
DOCKED: BRANCH   9  12
DOCKED: ATOM     12  O   UNL     1      21.381 -11.953   2.073 -0.92 -0.00    +0.000 OA
DOCKED: ATOM     13  H   UNL     1      21.035 -12.847   1.927 -0.59 -0.00    +0.000 HD
DOCKED: ENDBRANCH   9  12
DOCKED: ENDBRANCH   7   8
DOCKED: ENDBRANCH   4   6
DOCKED: ENDBRANCH   1   3
DOCKED: BRANCH   1  14
DOCKED: ATOM     14  C   UNL     1      14.437  -7.148   4.989 -0.44 +0.00    +0.000 C 
DOCKED: ATOM     15  O   UNL     1      14.369  -7.214   6.248 -0.56 +0.00    +0.000 OA
DOCKED: BRANCH  14  19
DOCKED: ATOM     16  C   UNL     1      15.740  -3.438   3.189 -0.35 -0.00    +0.000 A 
DOCKED: ATOM     17  C   UNL     1      16.180  -3.824   4.472 -0.44 -0.00    +0.000 A 
DOCKED: ATOM     18  C   UNL     1      15.751  -5.023   5.046 -0.41 +0.00    +0.000 A 
DOCKED: ATOM     19  C   UNL     1      14.875  -5.877   4.356 -0.36 +0.00    +0.000 A 
DOCKED: ATOM     20  C   UNL     1      14.426  -5.494   3.081 -0.23 +0.00    +0.000 A 
DOCKED: ATOM     21  C   UNL     1      14.853  -4.293   2.506 -0.20 -0.00    +0.000 A 
DOCKED: BRANCH  16  23
DOCKED: ATOM     22  C   UNL     1      17.303  -1.441   3.176 -0.35 -0.00    +0.000 C 
DOCKED: ATOM     23  N   UNL     1      16.185  -2.192   2.591 -0.35 -0.00    +0.000 N 
DOCKED: ATOM     24  C   UNL     1      15.525  -1.661   1.393 -0.26 -0.00    +0.000 C 
DOCKED: ENDBRANCH  16  23
DOCKED: ENDBRANCH  14  19
DOCKED: ENDBRANCH   1  14
DOCKED: TORSDOF 7
DOCKED: TER
DOCKED: ENDMDL
________________________________________________________________________________


	BEGINNING GENETIC ALGORITHM DOCKING 6 of 100
Run: 6 Seed: 877888964 1133908202 [ Run 6 of 100 GA/GALS ]
Beginning LAMARCKIAN GENETIC ALGORITHM (LGA), with a maximum of 2500000 energy evaluations.

Final-Value: -13.370


	FINAL GENETIC ALGORITHM DOCKED STATE
	_______________________________________________


Detailed state:  trans 18.882 -10.462 -3.258 quatxyzw -0.816431 0.009913 -0.577117 -0.016661 center 1.179 0.138 -0.353 ntor 7 23.5713 -118.2281 6.0649 -178.3528 -57.0665 -93.1022 -43.1471
State:	 18.882 -10.462  -3.258  -0.817  0.010 -0.577 -178.091     23.57 -118.23    6.06 -178.35  -57.07  -93.10  -43.15

DOCKED: MODEL        6
DOCKED: USER    Run = 6
DOCKED: USER    DPF = ligand_dock.biased.dpf
DOCKED: USER  
DOCKED: USER    Estimated Free Energy of Binding    =   -9.78 kcal/mol  [=(1)+(2)+(3)-(4)]
DOCKED: USER    Estimated Inhibition Constant, Ki   =   67.59 nM (nanomolar)  [Temperature = 298.15 K]
DOCKED: USER    
DOCKED: USER    (1) Final Intermolecular Energy     =  -11.87 kcal/mol
DOCKED: USER        vdW + Hbond + desolv Energy     =  -11.87 kcal/mol
DOCKED: USER        Electrostatic Energy            =   +0.00 kcal/mol
DOCKED: USER    (2) Final Total Internal Energy     =   -1.50 kcal/mol
DOCKED: USER    (3) Torsional Free Energy           =   +2.09 kcal/mol
DOCKED: USER    (4) Unbound System's Energy  [=(2)] =   -1.50 kcal/mol
DOCKED: USER    
DOCKED: USER    
DOCKED: USER    NEWDPF move ligand.pdbqt
DOCKED: USER    NEWDPF about 1.179000 0.138000 -0.353000
DOCKED: USER    NEWDPF tran0 18.882286 -10.462370 -3.258032
DOCKED: USER    NEWDPF quaternion0 -0.816431 0.009913 -0.577117 -0.016661
DOCKED: USER    NEWDPF axisangle0 -0.816545 0.009915 -0.577197 -178.090648
DOCKED: USER    NEWDPF quat0 -0.816545 0.009915 -0.577197 -178.090648
DOCKED: USER    NEWDPF dihe0 23.57 -118.23 6.06 -178.35 -57.07 -93.10 -43.15 
DOCKED: USER  keepresnum = 1 
DOCKED: USER  
DOCKED: REMARK  Name = 
DOCKED: REMARK  11 active torsions:
DOCKED: REMARK  status: ('A' for Active; 'I' for Inactive)
DOCKED: REMARK    1  A    between atoms: C_1  and  N_2
DOCKED: REMARK    2  A    between atoms: N_2  and  C_3
DOCKED: REMARK    3  A    between atoms: N_2  and  C_22
DOCKED: REMARK    4  A    between atoms: C_6  and  C_9
DOCKED: REMARK    5  A    between atoms: C_9  and  C_10
DOCKED: REMARK    6  A    between atoms: C_10  and  C_11
DOCKED: REMARK    7  A    between atoms: C_10  and  C_20
DOCKED: REMARK    8  A    between atoms: C_12  and  C_13
DOCKED: REMARK    9  A    between atoms: C_12  and  C_19
DOCKED: REMARK   10  A    between atoms: C_14  and  C_15
DOCKED: REMARK   11  A    between atoms: N_16  and  O_17
DOCKED: REMARK                            x       y       z     vdW  Elec       q    Type
DOCKED: REMARK                         _______ _______ _______ _____ _____    ______ ____
DOCKED: USER                              x       y       z     vdW  Elec       q    Type
DOCKED: USER                           _______ _______ _______ _____ _____    ______ ____
DOCKED: ROOT
DOCKED: ATOM      1  C   UNL     1      20.520  -9.946  -4.115 -0.42 -0.00    +0.000 C 
DOCKED: ATOM      2  C   UNL     1      21.945  -9.725  -4.634 -0.28 -0.00    +0.000 C 
DOCKED: ENDROOT
DOCKED: BRANCH   1   3
DOCKED: ATOM      3  C   UNL     1      20.539 -10.253  -2.632 -0.53 -0.00    +0.000 C 
DOCKED: ATOM      4  C   UNL     1      20.914  -9.380  -1.675 -0.58 -0.00    +0.000 C 
DOCKED: ATOM      5  C   UNL     1      21.379  -7.980  -2.014 -0.49 -0.00    +0.000 C 
DOCKED: BRANCH   4   6
DOCKED: ATOM      6  C   UNL     1      20.922  -9.853  -0.266 -0.68 -0.00    +0.000 C 
DOCKED: ATOM      7  C   UNL     1      20.208 -10.906   0.158 -0.65 -0.00    +0.000 C 
DOCKED: BRANCH   7   8
DOCKED: ATOM      8  C   UNL     1      20.211 -11.380   1.557 -0.75 -0.00    +0.000 C 
DOCKED: ATOM      9  N   UNL     1      20.538 -10.523   2.658 -0.62 -0.00    +0.000 N 
DOCKED: ATOM     10  O   UNL     1      19.890 -12.578   1.785 -1.66 -0.00    +0.000 OA
DOCKED: ATOM     11  H   UNL     1      20.690  -9.562   2.503 -0.52 -0.00    +0.000 HD
DOCKED: BRANCH   9  12
DOCKED: ATOM     12  O   UNL     1      20.637 -11.029   3.909 -0.77 -0.00    +0.000 OA
DOCKED: ATOM     13  H   UNL     1      20.831 -11.978   3.860 -0.54 -0.00    +0.000 HD
DOCKED: ENDBRANCH   9  12
DOCKED: ENDBRANCH   7   8
DOCKED: ENDBRANCH   4   6
DOCKED: ENDBRANCH   1   3
DOCKED: BRANCH   1  14
DOCKED: ATOM     14  C   UNL     1      19.871 -11.077  -4.884 -0.47 -0.00    +0.000 C 
DOCKED: ATOM     15  O   UNL     1      20.584 -12.054  -5.244 -0.71 -0.00    +0.000 OA
DOCKED: BRANCH  14  19
DOCKED: ATOM     16  C   UNL     1      15.686 -11.067  -5.975 -0.24 -0.00    +0.000 A 
DOCKED: ATOM     17  C   UNL     1      16.660 -11.642  -6.816 -0.32 -0.00    +0.000 A 
DOCKED: ATOM     18  C   UNL     1      18.010 -11.637  -6.456 -0.28 -0.00    +0.000 A 
DOCKED: ATOM     19  C   UNL     1      18.429 -11.066  -5.244 -0.31 -0.00    +0.000 A 
DOCKED: ATOM     20  C   UNL     1      17.464 -10.482  -4.405 -0.20 -0.00    +0.000 A 
DOCKED: ATOM     21  C   UNL     1      16.112 -10.484  -4.765 -0.21 -0.00    +0.000 A 
DOCKED: BRANCH  16  23
DOCKED: ATOM     22  C   UNL     1      13.676 -12.259  -6.959 -0.30 -0.00    +0.000 C 
DOCKED: ATOM     23  N   UNL     1      14.282 -11.071  -6.347 -0.20 -0.00    +0.000 N 
DOCKED: ATOM     24  C   UNL     1      13.447  -9.886  -6.121 -0.13 -0.00    +0.000 C 
DOCKED: ENDBRANCH  16  23
DOCKED: ENDBRANCH  14  19
DOCKED: ENDBRANCH   1  14
DOCKED: TORSDOF 7
DOCKED: TER
DOCKED: ENDMDL
________________________________________________________________________________


	BEGINNING GENETIC ALGORITHM DOCKING 7 of 100
Run: 7 Seed: 1176646081 465092042 [ Run 7 of 100 GA/GALS ]
Beginning LAMARCKIAN GENETIC ALGORITHM (LGA), with a maximum of 2500000 energy evaluations.

Final-Value: -12.588


	FINAL GENETIC ALGORITHM DOCKED STATE
	_______________________________________________


Detailed state:  trans 20.195 -11.133 -3.160 quatxyzw 0.637542 0.414339 0.588988 0.273782 center 1.179 0.138 -0.353 ntor 7 12.0482 -141.7789 -56.9083 104.2115 -41.7312 -14.2928 30.3769
State:	 20.195 -11.133  -3.160   0.663  0.431  0.612 148.221     12.05 -141.78  -56.91  104.21  -41.73  -14.29   30.38

DOCKED: MODEL        7
DOCKED: USER    Run = 7
DOCKED: USER    DPF = ligand_dock.biased.dpf
DOCKED: USER  
DOCKED: USER    Estimated Free Energy of Binding    =   -8.87 kcal/mol  [=(1)+(2)+(3)-(4)]
DOCKED: USER    Estimated Inhibition Constant, Ki   =  313.88 nM (nanomolar)  [Temperature = 298.15 K]
DOCKED: USER    
DOCKED: USER    (1) Final Intermolecular Energy     =  -10.96 kcal/mol
DOCKED: USER        vdW + Hbond + desolv Energy     =  -10.96 kcal/mol
DOCKED: USER        Electrostatic Energy            =   +0.00 kcal/mol
DOCKED: USER    (2) Final Total Internal Energy     =   -1.63 kcal/mol
DOCKED: USER    (3) Torsional Free Energy           =   +2.09 kcal/mol
DOCKED: USER    (4) Unbound System's Energy  [=(2)] =   -1.63 kcal/mol
DOCKED: USER    
DOCKED: USER    
DOCKED: USER    NEWDPF move ligand.pdbqt
DOCKED: USER    NEWDPF about 1.179000 0.138000 -0.353000
DOCKED: USER    NEWDPF tran0 20.195327 -11.133402 -3.160025
DOCKED: USER    NEWDPF quaternion0 0.637542 0.414339 0.588988 0.273782
DOCKED: USER    NEWDPF axisangle0 0.662869 0.430799 0.612386 148.221146
DOCKED: USER    NEWDPF quat0 0.662869 0.430799 0.612386 148.221146
DOCKED: USER    NEWDPF dihe0 12.05 -141.78 -56.91 104.21 -41.73 -14.29 30.38 
DOCKED: USER  keepresnum = 1 
DOCKED: USER  
DOCKED: REMARK  Name = 
DOCKED: REMARK  11 active torsions:
DOCKED: REMARK  status: ('A' for Active; 'I' for Inactive)
DOCKED: REMARK    1  A    between atoms: C_1  and  N_2
DOCKED: REMARK    2  A    between atoms: N_2  and  C_3
DOCKED: REMARK    3  A    between atoms: N_2  and  C_22
DOCKED: REMARK    4  A    between atoms: C_6  and  C_9
DOCKED: REMARK    5  A    between atoms: C_9  and  C_10
DOCKED: REMARK    6  A    between atoms: C_10  and  C_11
DOCKED: REMARK    7  A    between atoms: C_10  and  C_20
DOCKED: REMARK    8  A    between atoms: C_12  and  C_13
DOCKED: REMARK    9  A    between atoms: C_12  and  C_19
DOCKED: REMARK   10  A    between atoms: C_14  and  C_15
DOCKED: REMARK   11  A    between atoms: N_16  and  O_17
DOCKED: REMARK                            x       y       z     vdW  Elec       q    Type
DOCKED: REMARK                         _______ _______ _______ _____ _____    ______ ____
DOCKED: USER                              x       y       z     vdW  Elec       q    Type
DOCKED: USER                           _______ _______ _______ _____ _____    ______ ____
DOCKED: ROOT
DOCKED: ATOM      1  C   UNL     1      20.762  -9.410  -3.787 -0.42 -0.00    +0.000 C 
DOCKED: ATOM      2  C   UNL     1      21.393  -8.043  -4.072 -0.34 -0.00    +0.000 C 
DOCKED: ENDROOT
DOCKED: BRANCH   1   3
DOCKED: ATOM      3  C   UNL     1      20.670  -9.649  -2.294 -0.53 -0.00    +0.000 C 
DOCKED: ATOM      4  C   UNL     1      19.667 -10.317  -1.688 -0.45 -0.00    +0.000 C 
DOCKED: ATOM      5  C   UNL     1      18.504 -10.889  -2.470 -0.28 -0.00    +0.000 C 
DOCKED: BRANCH   4   6
DOCKED: ATOM      6  C   UNL     1      19.698 -10.425  -0.206 -0.53 -0.00    +0.000 C 
DOCKED: ATOM      7  C   UNL     1      20.144 -11.512   0.441 -0.59 -0.00    +0.000 C 
DOCKED: BRANCH   7   8
DOCKED: ATOM      8  C   UNL     1      20.177 -11.625   1.914 -0.78 -0.00    +0.000 C 
DOCKED: ATOM      9  N   UNL     1      20.535 -10.525   2.761 -0.63 -0.00    +0.000 N 
DOCKED: ATOM     10  O   UNL     1      19.855 -12.725   2.438 -1.36 -0.00    +0.000 OA
DOCKED: ATOM     11  H   UNL     1      20.688  -9.635   2.369 -0.53 -0.00    +0.000 HD
DOCKED: BRANCH   9  12
DOCKED: ATOM     12  O   UNL     1      20.660 -10.707   4.096 -0.78 -0.00    +0.000 OA
DOCKED: ATOM     13  H   UNL     1      20.665 -11.656   4.295 -0.44 -0.00    +0.000 HD
DOCKED: ENDBRANCH   9  12
DOCKED: ENDBRANCH   7   8
DOCKED: ENDBRANCH   4   6
DOCKED: ENDBRANCH   1   3
DOCKED: BRANCH   1  14
DOCKED: ATOM     14  C   UNL     1      21.585 -10.495  -4.448 -0.49 -0.00    +0.000 C 
DOCKED: ATOM     15  O   UNL     1      22.266 -11.269  -3.720 -0.40 -0.00    +0.000 OA
DOCKED: BRANCH  14  19
DOCKED: ATOM     16  C   UNL     1      21.763 -11.021  -8.737 -0.23 -0.00    +0.000 A 
DOCKED: ATOM     17  C   UNL     1      22.747 -11.570  -7.891 -0.35 -0.00    +0.000 A 
DOCKED: ATOM     18  C   UNL     1      22.683 -11.393  -6.507 -0.41 -0.00    +0.000 A 
DOCKED: ATOM     19  C   UNL     1      21.631 -10.667  -5.924 -0.39 -0.00    +0.000 A 
DOCKED: ATOM     20  C   UNL     1      20.652 -10.108  -6.763 -0.24 -0.00    +0.000 A 
DOCKED: ATOM     21  C   UNL     1      20.716 -10.283  -8.148 -0.21 -0.00    +0.000 A 
DOCKED: BRANCH  16  23
DOCKED: ATOM     22  C   UNL     1      22.666 -12.261 -10.756 -0.25 -0.00    +0.000 C 
DOCKED: ATOM     23  N   UNL     1      21.828 -11.204 -10.176 -0.20 -0.00    +0.000 N 
DOCKED: ATOM     24  C   UNL     1      21.060 -10.335 -11.076 -0.12 -0.00    +0.000 C 
DOCKED: ENDBRANCH  16  23
DOCKED: ENDBRANCH  14  19
DOCKED: ENDBRANCH   1  14
DOCKED: TORSDOF 7
DOCKED: TER
DOCKED: ENDMDL
________________________________________________________________________________


	BEGINNING GENETIC ALGORITHM DOCKING 8 of 100
Run: 8 Seed: 1284021419 1087541165 [ Run 8 of 100 GA/GALS ]
Beginning LAMARCKIAN GENETIC ALGORITHM (LGA), with a maximum of 2500000 energy evaluations.

Final-Value: -13.064


	FINAL GENETIC ALGORITHM DOCKED STATE
	_______________________________________________


Detailed state:  trans 21.768 -8.547 -2.274 quatxyzw 0.499545 -0.759165 0.231989 -0.346848 center 1.179 0.138 -0.353 ntor 7 27.1082 -1.7926 -126.2799 -168.5123 -87.8913 138.8156 -66.8064
State:	 21.768  -8.547  -2.274   0.533 -0.809  0.247 -139.411     27.11   -1.79 -126.28 -168.51  -87.89  138.82  -66.81

DOCKED: MODEL        8
DOCKED: USER    Run = 8
DOCKED: USER    DPF = ligand_dock.biased.dpf
DOCKED: USER  
DOCKED: USER    Estimated Free Energy of Binding    =   -9.46 kcal/mol  [=(1)+(2)+(3)-(4)]
DOCKED: USER    Estimated Inhibition Constant, Ki   =  115.61 nM (nanomolar)  [Temperature = 298.15 K]
DOCKED: USER    
DOCKED: USER    (1) Final Intermolecular Energy     =  -11.55 kcal/mol
DOCKED: USER        vdW + Hbond + desolv Energy     =  -11.55 kcal/mol
DOCKED: USER        Electrostatic Energy            =   +0.00 kcal/mol
DOCKED: USER    (2) Final Total Internal Energy     =   -1.51 kcal/mol
DOCKED: USER    (3) Torsional Free Energy           =   +2.09 kcal/mol
DOCKED: USER    (4) Unbound System's Energy  [=(2)] =   -1.51 kcal/mol
DOCKED: USER    
DOCKED: USER    
DOCKED: USER    NEWDPF move ligand.pdbqt
DOCKED: USER    NEWDPF about 1.179000 0.138000 -0.353000
DOCKED: USER    NEWDPF tran0 21.767605 -8.547277 -2.273532
DOCKED: USER    NEWDPF quaternion0 0.499545 -0.759165 0.231989 -0.346848
DOCKED: USER    NEWDPF axisangle0 0.532609 -0.809413 0.247344 -139.410711
DOCKED: USER    NEWDPF quat0 0.532609 -0.809413 0.247344 -139.410711
DOCKED: USER    NEWDPF dihe0 27.11 -1.79 -126.28 -168.51 -87.89 138.82 -66.81 
DOCKED: USER  keepresnum = 1 
DOCKED: USER  
DOCKED: REMARK  Name = 
DOCKED: REMARK  11 active torsions:
DOCKED: REMARK  status: ('A' for Active; 'I' for Inactive)
DOCKED: REMARK    1  A    between atoms: C_1  and  N_2
DOCKED: REMARK    2  A    between atoms: N_2  and  C_3
DOCKED: REMARK    3  A    between atoms: N_2  and  C_22
DOCKED: REMARK    4  A    between atoms: C_6  and  C_9
DOCKED: REMARK    5  A    between atoms: C_9  and  C_10
DOCKED: REMARK    6  A    between atoms: C_10  and  C_11
DOCKED: REMARK    7  A    between atoms: C_10  and  C_20
DOCKED: REMARK    8  A    between atoms: C_12  and  C_13
DOCKED: REMARK    9  A    between atoms: C_12  and  C_19
DOCKED: REMARK   10  A    between atoms: C_14  and  C_15
DOCKED: REMARK   11  A    between atoms: N_16  and  O_17
DOCKED: REMARK                            x       y       z     vdW  Elec       q    Type
DOCKED: REMARK                         _______ _______ _______ _____ _____    ______ ____
DOCKED: USER                              x       y       z     vdW  Elec       q    Type
DOCKED: USER                           _______ _______ _______ _____ _____    ______ ____
DOCKED: ROOT
DOCKED: ATOM      1  C   UNL     1      21.738  -9.853  -3.680 -0.39 -0.00    +0.000 C 
DOCKED: ATOM      2  C   UNL     1      21.476 -10.979  -4.685 -0.53 -0.00    +0.000 C 
DOCKED: ENDROOT
DOCKED: BRANCH   1   3
DOCKED: ATOM      3  C   UNL     1      21.282 -10.263  -2.295 -0.57 -0.00    +0.000 C 
DOCKED: ATOM      4  C   UNL     1      20.009 -10.565  -1.969 -0.49 -0.00    +0.000 C 
DOCKED: ATOM      5  C   UNL     1      18.889 -10.504  -2.986 -0.38 -0.00    +0.000 C 
DOCKED: BRANCH   4   6
DOCKED: ATOM      6  C   UNL     1      19.716 -10.903  -0.551 -0.56 -0.00    +0.000 C 
DOCKED: ATOM      7  C   UNL     1      20.673 -11.142   0.358 -0.66 -0.00    +0.000 C 
DOCKED: BRANCH   7   8
DOCKED: ATOM      8  C   UNL     1      20.388 -11.479   1.769 -0.77 -0.00    +0.000 C 
DOCKED: ATOM      9  N   UNL     1      20.634 -10.561   2.842 -0.62 -0.00    +0.000 N 
DOCKED: ATOM     10  O   UNL     1      19.890 -12.607   2.026 -1.61 -0.00    +0.000 OA
DOCKED: ATOM     11  H   UNL     1      20.926  -9.642   2.643 -0.57 -0.00    +0.000 HD
DOCKED: BRANCH   9  12
DOCKED: ATOM     12  O   UNL     1      20.464 -10.954   4.126 -0.77 -0.00    +0.000 OA
DOCKED: ATOM     13  H   UNL     1      20.600 -11.912   4.193 -0.46 -0.00    +0.000 HD
DOCKED: ENDBRANCH   9  12
DOCKED: ENDBRANCH   7   8
DOCKED: ENDBRANCH   4   6
DOCKED: ENDBRANCH   1   3
DOCKED: BRANCH   1  14
DOCKED: ATOM     14  C   UNL     1      21.018  -8.598  -4.127 -0.36 -0.00    +0.000 C 
DOCKED: ATOM     15  O   UNL     1      20.164  -8.685  -5.052 -0.20 -0.00    +0.000 OA
DOCKED: BRANCH  14  19
DOCKED: ATOM     16  C   UNL     1      21.846  -4.711  -2.420 -0.32 -0.00    +0.000 A 
DOCKED: ATOM     17  C   UNL     1      22.132  -4.993  -3.771 -0.20 -0.00    +0.000 A 
DOCKED: ATOM     18  C   UNL     1      21.864  -6.253  -4.312 -0.20 -0.00    +0.000 A 
DOCKED: ATOM     19  C   UNL     1      21.296  -7.267  -3.525 -0.33 -0.00    +0.000 A 
DOCKED: ATOM     20  C   UNL     1      21.018  -6.996  -2.174 -0.39 -0.00    +0.000 A 
DOCKED: ATOM     21  C   UNL     1      21.288  -5.736  -1.630 -0.37 +0.00    +0.000 A 
DOCKED: BRANCH  16  23
DOCKED: ATOM     22  C   UNL     1      21.419  -2.943  -0.653 -0.38 +0.00    +0.000 C 
DOCKED: ATOM     23  N   UNL     1      22.125  -3.403  -1.855 -0.25 -0.00    +0.000 N 
DOCKED: ATOM     24  C   UNL     1      23.115  -2.516  -2.478 -0.17 -0.00    +0.000 C 
DOCKED: ENDBRANCH  16  23
DOCKED: ENDBRANCH  14  19
DOCKED: ENDBRANCH   1  14
DOCKED: TORSDOF 7
DOCKED: TER
DOCKED: ENDMDL
________________________________________________________________________________


	BEGINNING GENETIC ALGORITHM DOCKING 9 of 100
Run: 9 Seed: 1625991142 1715203391 [ Run 9 of 100 GA/GALS ]
Beginning LAMARCKIAN GENETIC ALGORITHM (LGA), with a maximum of 2500000 energy evaluations.

Final-Value: -12.663


	FINAL GENETIC ALGORITHM DOCKED STATE
	_______________________________________________


Detailed state:  trans 15.803 -8.823 2.432 quatxyzw -0.646225 0.052337 0.346998 0.677677 center 1.179 0.138 -0.353 ntor 7 -11.1173 93.3898 80.7777 -178.6342 -10.9963 -105.9773 -50.8821
State:	 15.803  -8.823   2.432  -0.879  0.071  0.472 94.675    -11.12   93.39   80.78 -178.63  -11.00 -105.98  -50.88

DOCKED: MODEL        9
DOCKED: USER    Run = 9
DOCKED: USER    DPF = ligand_dock.biased.dpf
DOCKED: USER  
DOCKED: USER    Estimated Free Energy of Binding    =   -9.11 kcal/mol  [=(1)+(2)+(3)-(4)]
DOCKED: USER    Estimated Inhibition Constant, Ki   =  208.69 nM (nanomolar)  [Temperature = 298.15 K]
DOCKED: USER    
DOCKED: USER    (1) Final Intermolecular Energy     =  -11.20 kcal/mol
DOCKED: USER        vdW + Hbond + desolv Energy     =  -11.20 kcal/mol
DOCKED: USER        Electrostatic Energy            =   +0.00 kcal/mol
DOCKED: USER    (2) Final Total Internal Energy     =   -1.46 kcal/mol
DOCKED: USER    (3) Torsional Free Energy           =   +2.09 kcal/mol
DOCKED: USER    (4) Unbound System's Energy  [=(2)] =   -1.46 kcal/mol
DOCKED: USER    
DOCKED: USER    
DOCKED: USER    NEWDPF move ligand.pdbqt
DOCKED: USER    NEWDPF about 1.179000 0.138000 -0.353000
DOCKED: USER    NEWDPF tran0 15.802862 -8.823320 2.432499
DOCKED: USER    NEWDPF quaternion0 -0.646225 0.052337 0.346998 0.677677
DOCKED: USER    NEWDPF axisangle0 -0.878788 0.071171 0.471875 94.675205
DOCKED: USER    NEWDPF quat0 -0.878788 0.071171 0.471875 94.675205
DOCKED: USER    NEWDPF dihe0 -11.12 93.39 80.78 -178.63 -11.00 -105.98 -50.88 
DOCKED: USER  keepresnum = 1 
DOCKED: USER  
DOCKED: REMARK  Name = 
DOCKED: REMARK  11 active torsions:
DOCKED: REMARK  status: ('A' for Active; 'I' for Inactive)
DOCKED: REMARK    1  A    between atoms: C_1  and  N_2
DOCKED: REMARK    2  A    between atoms: N_2  and  C_3
DOCKED: REMARK    3  A    between atoms: N_2  and  C_22
DOCKED: REMARK    4  A    between atoms: C_6  and  C_9
DOCKED: REMARK    5  A    between atoms: C_9  and  C_10
DOCKED: REMARK    6  A    between atoms: C_10  and  C_11
DOCKED: REMARK    7  A    between atoms: C_10  and  C_20
DOCKED: REMARK    8  A    between atoms: C_12  and  C_13
DOCKED: REMARK    9  A    between atoms: C_12  and  C_19
DOCKED: REMARK   10  A    between atoms: C_14  and  C_15
DOCKED: REMARK   11  A    between atoms: N_16  and  O_17
DOCKED: REMARK                            x       y       z     vdW  Elec       q    Type
DOCKED: REMARK                         _______ _______ _______ _____ _____    ______ ____
DOCKED: USER                              x       y       z     vdW  Elec       q    Type
DOCKED: USER                           _______ _______ _______ _____ _____    ______ ____
DOCKED: ROOT
DOCKED: ATOM      1  C   UNL     1      14.445 -10.180   2.395 -0.35 +0.00    +0.000 C 
DOCKED: ATOM      2  C   UNL     1      13.562 -11.429   2.466 -0.36 +0.00    +0.000 C 
DOCKED: ENDROOT
DOCKED: BRANCH   1   3
DOCKED: ATOM      3  C   UNL     1      15.862 -10.555   2.012 -0.41 +0.00    +0.000 C 
DOCKED: ATOM      4  C   UNL     1      16.193 -11.284   0.926 -0.41 +0.00    +0.000 C 
DOCKED: ATOM      5  C   UNL     1      15.142 -11.820  -0.023 -0.44 +0.00    +0.000 C 
DOCKED: BRANCH   4   6
DOCKED: ATOM      6  C   UNL     1      17.628 -11.608   0.717 -0.50 -0.00    +0.000 C 
DOCKED: ATOM      7  C   UNL     1      18.627 -10.899   1.264 -0.54 -0.00    +0.000 C 
DOCKED: BRANCH   7   8
DOCKED: ATOM      8  C   UNL     1      20.056 -11.215   1.059 -0.71 -0.00    +0.000 C 
DOCKED: ATOM      9  N   UNL     1      20.865 -10.523   0.100 -0.64 -0.00    +0.000 N 
DOCKED: ATOM     10  O   UNL     1      20.580 -12.112   1.774 -1.54 -0.00    +0.000 OA
DOCKED: ATOM     11  H   UNL     1      20.495  -9.754  -0.391 -0.03 -0.00    +0.000 HD
DOCKED: BRANCH   9  12
DOCKED: ATOM     12  O   UNL     1      22.138 -10.923  -0.132 -0.69 -0.00    +0.000 OA
DOCKED: ATOM     13  H   UNL     1      22.403 -11.566   0.544 -0.55 -0.00    +0.000 HD
DOCKED: ENDBRANCH   9  12
DOCKED: ENDBRANCH   7   8
DOCKED: ENDBRANCH   4   6
DOCKED: ENDBRANCH   1   3
DOCKED: BRANCH   1  14
DOCKED: ATOM     14  C   UNL     1      14.427  -9.469   3.732 -0.39 +0.00    +0.000 C 
DOCKED: ATOM     15  O   UNL     1      14.225 -10.148   4.776 -0.47 +0.00    +0.000 OA
DOCKED: BRANCH  14  19
DOCKED: ATOM     16  C   UNL     1      14.993  -5.200   4.131 -0.34 +0.00    +0.000 A 
DOCKED: ATOM     17  C   UNL     1      15.026  -6.051   5.254 -0.40 +0.00    +0.000 A 
DOCKED: ATOM     18  C   UNL     1      14.839  -7.429   5.115 -0.35 +0.00    +0.000 A 
DOCKED: ATOM     19  C   UNL     1      14.620  -8.000   3.852 -0.31 +0.00    +0.000 A 
DOCKED: ATOM     20  C   UNL     1      14.577  -7.157   2.729 -0.25 +0.00    +0.000 A 
DOCKED: ATOM     21  C   UNL     1      14.762  -5.778   2.866 -0.21 +0.00    +0.000 A 
DOCKED: BRANCH  16  23
DOCKED: ATOM     22  C   UNL     1      14.056  -2.844   4.126 -0.39 -0.00    +0.000 C 
DOCKED: ATOM     23  N   UNL     1      15.187  -3.769   4.273 -0.39 -0.00    +0.000 N 
DOCKED: ATOM     24  C   UNL     1      16.517  -3.220   4.564 -0.52 -0.00    +0.000 C 
DOCKED: ENDBRANCH  16  23
DOCKED: ENDBRANCH  14  19
DOCKED: ENDBRANCH   1  14
DOCKED: TORSDOF 7
DOCKED: TER
DOCKED: ENDMDL
________________________________________________________________________________


	BEGINNING GENETIC ALGORITHM DOCKING 10 of 100
Run: 10 Seed: 835380485 642912139 [ Run 10 of 100 GA/GALS ]
Beginning LAMARCKIAN GENETIC ALGORITHM (LGA), with a maximum of 2500000 energy evaluations.

Final-Value: -11.881


	FINAL GENETIC ALGORITHM DOCKED STATE
	_______________________________________________


Detailed state:  trans 15.184 -11.054 3.111 quatxyzw -0.959339 0.012027 0.137494 -0.246210 center 1.179 0.138 -0.353 ntor 7 -15.1357 121.0975 -155.6462 -169.7843 -48.1180 4.7128 52.0461
State:	 15.184 -11.054   3.111  -0.990  0.012  0.142 -151.493    -15.14  121.10 -155.65 -169.78  -48.12    4.71   52.05

DOCKED: MODEL       10
DOCKED: USER    Run = 10
DOCKED: USER    DPF = ligand_dock.biased.dpf
DOCKED: USER  
DOCKED: USER    Estimated Free Energy of Binding    =   -8.22 kcal/mol  [=(1)+(2)+(3)-(4)]
DOCKED: USER    Estimated Inhibition Constant, Ki   =  947.98 nM (nanomolar)  [Temperature = 298.15 K]
DOCKED: USER    
DOCKED: USER    (1) Final Intermolecular Energy     =  -10.31 kcal/mol
DOCKED: USER        vdW + Hbond + desolv Energy     =  -10.31 kcal/mol
DOCKED: USER        Electrostatic Energy            =   +0.00 kcal/mol
DOCKED: USER    (2) Final Total Internal Energy     =   -1.58 kcal/mol
DOCKED: USER    (3) Torsional Free Energy           =   +2.09 kcal/mol
DOCKED: USER    (4) Unbound System's Energy  [=(2)] =   -1.58 kcal/mol
DOCKED: USER    
DOCKED: USER    
DOCKED: USER    NEWDPF move ligand.pdbqt
DOCKED: USER    NEWDPF about 1.179000 0.138000 -0.353000
DOCKED: USER    NEWDPF tran0 15.184312 -11.053893 3.110976
DOCKED: USER    NEWDPF quaternion0 -0.959339 0.012027 0.137494 -0.246210
DOCKED: USER    NEWDPF axisangle0 -0.989809 0.012409 0.141861 -151.493330
DOCKED: USER    NEWDPF quat0 -0.989809 0.012409 0.141861 -151.493330
DOCKED: USER    NEWDPF dihe0 -15.14 121.10 -155.65 -169.78 -48.12 4.71 52.05 
DOCKED: USER  keepresnum = 1 
DOCKED: USER  
DOCKED: REMARK  Name = 
DOCKED: REMARK  11 active torsions:
DOCKED: REMARK  status: ('A' for Active; 'I' for Inactive)
DOCKED: REMARK    1  A    between atoms: C_1  and  N_2
DOCKED: REMARK    2  A    between atoms: N_2  and  C_3
DOCKED: REMARK    3  A    between atoms: N_2  and  C_22
DOCKED: REMARK    4  A    between atoms: C_6  and  C_9
DOCKED: REMARK    5  A    between atoms: C_9  and  C_10
DOCKED: REMARK    6  A    between atoms: C_10  and  C_11
DOCKED: REMARK    7  A    between atoms: C_10  and  C_20
DOCKED: REMARK    8  A    between atoms: C_12  and  C_13
DOCKED: REMARK    9  A    between atoms: C_12  and  C_19
DOCKED: REMARK   10  A    between atoms: C_14  and  C_15
DOCKED: REMARK   11  A    between atoms: N_16  and  O_17
DOCKED: REMARK                            x       y       z     vdW  Elec       q    Type
DOCKED: REMARK                         _______ _______ _______ _____ _____    ______ ____
DOCKED: USER                              x       y       z     vdW  Elec       q    Type
DOCKED: USER                           _______ _______ _______ _____ _____    ______ ____
DOCKED: ROOT
DOCKED: ATOM      1  C   UNL     1      14.485  -9.772   1.865 -0.29 +0.00    +0.000 C 
DOCKED: ATOM      2  C   UNL     1      14.091  -8.878   0.685 -0.23 +0.00    +0.000 C 
DOCKED: ENDROOT
DOCKED: BRANCH   1   3
DOCKED: ATOM      3  C   UNL     1      15.947 -10.158   1.771 -0.37 +0.00    +0.000 C 
DOCKED: ATOM      4  C   UNL     1      16.668 -10.671   2.789 -0.49 +0.00    +0.000 C 
DOCKED: ATOM      5  C   UNL     1      16.064 -10.896   4.159 -0.51 +0.00    +0.000 C 
DOCKED: BRANCH   4   6
DOCKED: ATOM      6  C   UNL     1      18.108 -10.953   2.549 -0.55 -0.00    +0.000 C 
DOCKED: ATOM      7  C   UNL     1      18.658 -10.964   1.326 -0.55 -0.00    +0.000 C 
DOCKED: BRANCH   7   8
DOCKED: ATOM      8  C   UNL     1      20.088 -11.244   1.081 -0.71 -0.00    +0.000 C 
DOCKED: ATOM      9  N   UNL     1      20.868 -10.491   0.143 -0.64 -0.00    +0.000 N 
DOCKED: ATOM     10  O   UNL     1      20.640 -12.165   1.741 -1.51 -0.00    +0.000 OA
DOCKED: ATOM     11  H   UNL     1      20.476  -9.706  -0.302 -0.03 -0.00    +0.000 HD
DOCKED: BRANCH   9  12
DOCKED: ATOM     12  O   UNL     1      22.143 -10.856  -0.130 -0.70 -0.00    +0.000 OA
DOCKED: ATOM     13  H   UNL     1      22.453 -11.479   0.546 -0.54 -0.00    +0.000 HD
DOCKED: ENDBRANCH   9  12
DOCKED: ENDBRANCH   7   8
DOCKED: ENDBRANCH   4   6
DOCKED: ENDBRANCH   1   3
DOCKED: BRANCH   1  14
DOCKED: ATOM     14  C   UNL     1      13.610 -11.007   1.879 -0.39 +0.00    +0.000 C 
DOCKED: ATOM     15  O   UNL     1      14.159 -12.139   1.988 -0.53 +0.00    +0.000 OA
DOCKED: BRANCH  14  19
DOCKED: ATOM     16  C   UNL     1       9.306 -10.837   1.486 -0.25 +0.00    +0.000 A 
DOCKED: ATOM     17  C   UNL     1      10.030 -11.988   1.114 -0.38 +0.00    +0.000 A 
DOCKED: ATOM     18  C   UNL     1      11.421 -12.032   1.242 -0.35 +0.00    +0.000 A 
DOCKED: ATOM     19  C   UNL     1      12.131 -10.933   1.751 -0.29 +0.00    +0.000 A 
DOCKED: ATOM     20  C   UNL     1      11.416  -9.779   2.114 -0.16 +0.00    +0.000 A 
DOCKED: ATOM     21  C   UNL     1      10.025  -9.733   1.986 -0.15 +0.00    +0.000 A 
DOCKED: BRANCH  16  23
DOCKED: ATOM     22  C   UNL     1       7.240 -10.535   0.049 -0.15 -0.00    +0.000 C 
DOCKED: ATOM     23  N   UNL     1       7.861 -10.790   1.354 -0.20 +0.00    +0.000 N 
DOCKED: ATOM     24  C   UNL     1       6.997 -10.993   2.523 -0.33 +0.00    +0.000 C 
DOCKED: ENDBRANCH  16  23
DOCKED: ENDBRANCH  14  19
DOCKED: ENDBRANCH   1  14
DOCKED: TORSDOF 7
DOCKED: TER
DOCKED: ENDMDL
________________________________________________________________________________


	BEGINNING GENETIC ALGORITHM DOCKING 11 of 100
Run: 11 Seed: 1560163291 1653483279 [ Run 11 of 100 GA/GALS ]
Beginning LAMARCKIAN GENETIC ALGORITHM (LGA), with a maximum of 2500000 energy evaluations.

Final-Value: -12.088


	FINAL GENETIC ALGORITHM DOCKED STATE
	_______________________________________________


Detailed state:  trans 18.163 -11.107 0.290 quatxyzw 0.026371 -0.355556 -0.088251 0.930106 center 1.179 0.138 -0.353 ntor 7 -174.2477 -123.0953 127.0286 5.8554 39.4690 3.0197 -46.4941
State:	 18.163 -11.107   0.290   0.072 -0.968 -0.240 43.097   -174.25 -123.10  127.03    5.86   39.47    3.02  -46.49

DOCKED: MODEL       11
DOCKED: USER    Run = 11
DOCKED: USER    DPF = ligand_dock.biased.dpf
DOCKED: USER  
DOCKED: USER    Estimated Free Energy of Binding    =   -8.74 kcal/mol  [=(1)+(2)+(3)-(4)]
DOCKED: USER    Estimated Inhibition Constant, Ki   =  392.79 nM (nanomolar)  [Temperature = 298.15 K]
DOCKED: USER    
DOCKED: USER    (1) Final Intermolecular Energy     =  -10.83 kcal/mol
DOCKED: USER        vdW + Hbond + desolv Energy     =  -10.83 kcal/mol
DOCKED: USER        Electrostatic Energy            =   +0.00 kcal/mol
DOCKED: USER    (2) Final Total Internal Energy     =   -1.26 kcal/mol
DOCKED: USER    (3) Torsional Free Energy           =   +2.09 kcal/mol
DOCKED: USER    (4) Unbound System's Energy  [=(2)] =   -1.26 kcal/mol
DOCKED: USER    
DOCKED: USER    
DOCKED: USER    NEWDPF move ligand.pdbqt
DOCKED: USER    NEWDPF about 1.179000 0.138000 -0.353000
DOCKED: USER    NEWDPF tran0 18.162865 -11.106795 0.289863
DOCKED: USER    NEWDPF quaternion0 0.026371 -0.355556 -0.088251 0.930106
DOCKED: USER    NEWDPF axisangle0 0.071799 -0.968046 -0.240274 43.097393
DOCKED: USER    NEWDPF quat0 0.071799 -0.968046 -0.240274 43.097393
DOCKED: USER    NEWDPF dihe0 -174.25 -123.10 127.03 5.86 39.47 3.02 -46.49 
DOCKED: USER  keepresnum = 1 
DOCKED: USER  
DOCKED: REMARK  Name = 
DOCKED: REMARK  11 active torsions:
DOCKED: REMARK  status: ('A' for Active; 'I' for Inactive)
DOCKED: REMARK    1  A    between atoms: C_1  and  N_2
DOCKED: REMARK    2  A    between atoms: N_2  and  C_3
DOCKED: REMARK    3  A    between atoms: N_2  and  C_22
DOCKED: REMARK    4  A    between atoms: C_6  and  C_9
DOCKED: REMARK    5  A    between atoms: C_9  and  C_10
DOCKED: REMARK    6  A    between atoms: C_10  and  C_11
DOCKED: REMARK    7  A    between atoms: C_10  and  C_20
DOCKED: REMARK    8  A    between atoms: C_12  and  C_13
DOCKED: REMARK    9  A    between atoms: C_12  and  C_19
DOCKED: REMARK   10  A    between atoms: C_14  and  C_15
DOCKED: REMARK   11  A    between atoms: N_16  and  O_17
DOCKED: REMARK                            x       y       z     vdW  Elec       q    Type
DOCKED: REMARK                         _______ _______ _______ _____ _____    ______ ____
DOCKED: USER                              x       y       z     vdW  Elec       q    Type
DOCKED: USER                           _______ _______ _______ _____ _____    ______ ____
DOCKED: ROOT
DOCKED: ATOM      1  C   UNL     1      19.253 -11.412   1.840 -0.67 -0.00    +0.000 C 
DOCKED: ATOM      2  C   UNL     1      20.271 -11.438   2.984 -0.75 -0.00    +0.000 C 
DOCKED: ENDROOT
DOCKED: BRANCH   1   3
DOCKED: ATOM      3  C   UNL     1      19.925 -11.014   0.542 -0.65 -0.00    +0.000 C 
DOCKED: ATOM      4  C   UNL     1      19.402 -11.221  -0.684 -0.50 -0.00    +0.000 C 
DOCKED: ATOM      5  C   UNL     1      18.064 -11.903  -0.874 -0.37 -0.00    +0.000 C 
DOCKED: BRANCH   4   6
DOCKED: ATOM      6  C   UNL     1      20.211 -10.815  -1.863 -0.44 -0.00    +0.000 C 
DOCKED: ATOM      7  C   UNL     1      19.970 -11.260  -3.105 -0.33 -0.00    +0.000 C 
DOCKED: BRANCH   7   8
DOCKED: ATOM      8  C   UNL     1      20.771 -10.861  -4.281 -0.51 -0.00    +0.000 C 
DOCKED: ATOM      9  N   UNL     1      21.046 -11.759  -5.364 -0.50 -0.00    +0.000 N 
DOCKED: ATOM     10  O   UNL     1      21.204  -9.679  -4.338 -0.40 -0.00    +0.000 OA
DOCKED: ATOM     11  H   UNL     1      20.628 -12.650  -5.379 -0.58 -0.00    +0.000 HD
DOCKED: BRANCH   9  12
DOCKED: ATOM     12  O   UNL     1      21.877 -11.385  -6.365 -0.47 -0.00    +0.000 OA
DOCKED: ATOM     13  H   UNL     1      21.881 -12.066  -7.055 -0.55 -0.00    +0.000 HD
DOCKED: ENDBRANCH   9  12
DOCKED: ENDBRANCH   7   8
DOCKED: ENDBRANCH   4   6
DOCKED: ENDBRANCH   1   3
DOCKED: BRANCH   1  14
DOCKED: ATOM     14  C   UNL     1      18.137 -10.446   2.177 -0.53 -0.00    +0.000 C 
DOCKED: ATOM     15  O   UNL     1      18.406  -9.425   2.869 -0.63 -0.00    +0.000 OA
DOCKED: BRANCH  14  19
DOCKED: ATOM     16  C   UNL     1      14.059 -11.055   0.869 -0.31 +0.00    +0.000 A 
DOCKED: ATOM     17  C   UNL     1      14.804  -9.934   0.448 -0.24 +0.00    +0.000 A 
DOCKED: ATOM     18  C   UNL     1      16.119  -9.745   0.879 -0.19 +0.00    +0.000 A 
DOCKED: ATOM     19  C   UNL     1      16.735 -10.670   1.737 -0.37 +0.00    +0.000 A 
DOCKED: ATOM     20  C   UNL     1      15.995 -11.785   2.168 -0.35 +0.00    +0.000 A 
DOCKED: ATOM     21  C   UNL     1      14.678 -11.975   1.740 -0.44 +0.00    +0.000 A 
DOCKED: BRANCH  16  23
DOCKED: ATOM     22  C   UNL     1      12.291 -10.885  -0.940 -0.25 +0.00    +0.000 C 
DOCKED: ATOM     23  N   UNL     1      12.692 -11.253   0.423 -0.35 +0.00    +0.000 N 
DOCKED: ATOM     24  C   UNL     1      11.686 -11.823   1.328 -0.43 +0.00    +0.000 C 
DOCKED: ENDBRANCH  16  23
DOCKED: ENDBRANCH  14  19
DOCKED: ENDBRANCH   1  14
DOCKED: TORSDOF 7
DOCKED: TER
DOCKED: ENDMDL
________________________________________________________________________________


	BEGINNING GENETIC ALGORITHM DOCKING 12 of 100
Run: 12 Seed: 153656458 29318198 [ Run 12 of 100 GA/GALS ]
Beginning LAMARCKIAN GENETIC ALGORITHM (LGA), with a maximum of 2500000 energy evaluations.

Final-Value: -12.396


	FINAL GENETIC ALGORITHM DOCKED STATE
	_______________________________________________


Detailed state:  trans 14.764 -12.465 -0.927 quatxyzw 0.274701 0.161916 0.031632 0.947271 center 1.179 0.138 -0.353 ntor 7 -1.0224 -6.1522 76.0574 -157.0391 -109.9994 -15.4409 -124.8752
State:	 14.764 -12.465  -0.927   0.857  0.505  0.099 37.378     -1.02   -6.15   76.06 -157.04 -110.00  -15.44 -124.88

DOCKED: MODEL       12
DOCKED: USER    Run = 12
DOCKED: USER    DPF = ligand_dock.biased.dpf
DOCKED: USER  
DOCKED: USER    Estimated Free Energy of Binding    =   -8.16 kcal/mol  [=(1)+(2)+(3)-(4)]
DOCKED: USER    Estimated Inhibition Constant, Ki   =    1.05 uM (micromolar)  [Temperature = 298.15 K]
DOCKED: USER    
DOCKED: USER    (1) Final Intermolecular Energy     =  -10.25 kcal/mol
DOCKED: USER        vdW + Hbond + desolv Energy     =  -10.25 kcal/mol
DOCKED: USER        Electrostatic Energy            =   +0.00 kcal/mol
DOCKED: USER    (2) Final Total Internal Energy     =   -2.15 kcal/mol
DOCKED: USER    (3) Torsional Free Energy           =   +2.09 kcal/mol
DOCKED: USER    (4) Unbound System's Energy  [=(2)] =   -2.15 kcal/mol
DOCKED: USER    
DOCKED: USER    
DOCKED: USER    NEWDPF move ligand.pdbqt
DOCKED: USER    NEWDPF about 1.179000 0.138000 -0.353000
DOCKED: USER    NEWDPF tran0 14.763579 -12.465186 -0.927271
DOCKED: USER    NEWDPF quaternion0 0.274701 0.161916 0.031632 0.947271
DOCKED: USER    NEWDPF axisangle0 0.857277 0.505303 0.098716 37.378413
DOCKED: USER    NEWDPF quat0 0.857277 0.505303 0.098716 37.378413
DOCKED: USER    NEWDPF dihe0 -1.02 -6.15 76.06 -157.04 -110.00 -15.44 -124.88 
DOCKED: USER  keepresnum = 1 
DOCKED: USER  
DOCKED: REMARK  Name = 
DOCKED: REMARK  11 active torsions:
DOCKED: REMARK  status: ('A' for Active; 'I' for Inactive)
DOCKED: REMARK    1  A    between atoms: C_1  and  N_2
DOCKED: REMARK    2  A    between atoms: N_2  and  C_3
DOCKED: REMARK    3  A    between atoms: N_2  and  C_22
DOCKED: REMARK    4  A    between atoms: C_6  and  C_9
DOCKED: REMARK    5  A    between atoms: C_9  and  C_10
DOCKED: REMARK    6  A    between atoms: C_10  and  C_11
DOCKED: REMARK    7  A    between atoms: C_10  and  C_20
DOCKED: REMARK    8  A    between atoms: C_12  and  C_13
DOCKED: REMARK    9  A    between atoms: C_12  and  C_19
DOCKED: REMARK   10  A    between atoms: C_14  and  C_15
DOCKED: REMARK   11  A    between atoms: N_16  and  O_17
DOCKED: REMARK                            x       y       z     vdW  Elec       q    Type
DOCKED: REMARK                         _______ _______ _______ _____ _____    ______ ____
DOCKED: USER                              x       y       z     vdW  Elec       q    Type
DOCKED: USER                           _______ _______ _______ _____ _____    ______ ____
DOCKED: ROOT
DOCKED: ATOM      1  C   UNL     1      13.897 -11.903   0.690 -0.46 +0.00    +0.000 C 
DOCKED: ATOM      2  C   UNL     1      13.408 -11.263   1.994 -0.41 +0.00    +0.000 C 
DOCKED: ENDROOT
DOCKED: BRANCH   1   3
DOCKED: ATOM      3  C   UNL     1      15.410 -11.906   0.637 -0.47 +0.00    +0.000 C 
DOCKED: ATOM      4  C   UNL     1      16.154 -12.893   0.096 -0.51 +0.00    +0.000 C 
DOCKED: ATOM      5  C   UNL     1      15.520 -14.127  -0.508 -0.49 +0.00    +0.000 C 
DOCKED: BRANCH   4   6
DOCKED: ATOM      6  C   UNL     1      17.633 -12.767   0.166 -0.48 +0.00    +0.000 C 
DOCKED: ATOM      7  C   UNL     1      18.254 -11.723   0.735 -0.55 -0.00    +0.000 C 
DOCKED: BRANCH   7   8
DOCKED: ATOM      8  C   UNL     1      19.724 -11.593   0.808 -0.68 -0.00    +0.000 C 
DOCKED: ATOM      9  N   UNL     1      20.481 -10.872  -0.174 -0.59 -0.00    +0.000 N 
DOCKED: ATOM     10  O   UNL     1      20.325 -12.117   1.784 -1.67 -0.00    +0.000 OA
DOCKED: ATOM     11  H   UNL     1      20.014 -10.373  -0.883 -0.01 -0.00    +0.000 HD
DOCKED: BRANCH   9  12
DOCKED: ATOM     12  O   UNL     1      21.833 -10.875  -0.127 -0.75 -0.00    +0.000 OA
DOCKED: ATOM     13  H   UNL     1      22.130 -11.395   0.635 -0.53 -0.00    +0.000 HD
DOCKED: ENDBRANCH   9  12
DOCKED: ENDBRANCH   7   8
DOCKED: ENDBRANCH   4   6
DOCKED: ENDBRANCH   1   3
DOCKED: BRANCH   1  14
DOCKED: ATOM     14  C   UNL     1      13.325 -11.147  -0.490 -0.35 +0.00    +0.000 C 
DOCKED: ATOM     15  O   UNL     1      12.099 -10.849  -0.484 -0.33 +0.00    +0.000 OA
DOCKED: BRANCH  14  19
DOCKED: ATOM     16  C   UNL     1      15.727 -10.066  -3.921 -0.21 -0.00    +0.000 A 
DOCKED: ATOM     17  C   UNL     1      14.993 -11.269  -3.891 -0.19 -0.00    +0.000 A 
DOCKED: ATOM     18  C   UNL     1      14.223 -11.611  -2.777 -0.26 -0.00    +0.000 A 
DOCKED: ATOM     19  C   UNL     1      14.155 -10.761  -1.662 -0.29 -0.00    +0.000 A 
DOCKED: ATOM     20  C   UNL     1      14.892  -9.564  -1.681 -0.23 -0.00    +0.000 A 
DOCKED: ATOM     21  C   UNL     1      15.665  -9.221  -2.795 -0.18 -0.00    +0.000 A 
DOCKED: BRANCH  16  23
DOCKED: ATOM     22  C   UNL     1      16.807  -8.302  -5.388 -0.13 -0.00    +0.000 C 
DOCKED: ATOM     23  N   UNL     1      16.528  -9.710  -5.078 -0.17 -0.00    +0.000 N 
DOCKED: ATOM     24  C   UNL     1      17.071 -10.750  -5.960 -0.29 -0.00    +0.000 C 
DOCKED: ENDBRANCH  16  23
DOCKED: ENDBRANCH  14  19
DOCKED: ENDBRANCH   1  14
DOCKED: TORSDOF 7
DOCKED: TER
DOCKED: ENDMDL
________________________________________________________________________________


	BEGINNING GENETIC ALGORITHM DOCKING 13 of 100
Run: 13 Seed: 46513614 1329101963 [ Run 13 of 100 GA/GALS ]
Beginning LAMARCKIAN GENETIC ALGORITHM (LGA), with a maximum of 2500000 energy evaluations.

Final-Value: -12.358


	FINAL GENETIC ALGORITHM DOCKED STATE
	_______________________________________________


Detailed state:  trans 15.070 -10.124 -0.511 quatxyzw -0.281361 0.293042 0.139321 0.903079 center 1.179 0.138 -0.353 ntor 7 -9.8124 -179.9094 -179.9759 -171.2232 104.0643 -74.4854 177.9479
State:	 15.070 -10.124  -0.511  -0.655  0.682  0.324 50.868     -9.81 -179.91 -179.98 -171.22  104.06  -74.49  177.95

DOCKED: MODEL       13
DOCKED: USER    Run = 13
DOCKED: USER    DPF = ligand_dock.biased.dpf
DOCKED: USER  
DOCKED: USER    Estimated Free Energy of Binding    =   -8.45 kcal/mol  [=(1)+(2)+(3)-(4)]
DOCKED: USER    Estimated Inhibition Constant, Ki   =  637.55 nM (nanomolar)  [Temperature = 298.15 K]
DOCKED: USER    
DOCKED: USER    (1) Final Intermolecular Energy     =  -10.54 kcal/mol
DOCKED: USER        vdW + Hbond + desolv Energy     =  -10.54 kcal/mol
DOCKED: USER        Electrostatic Energy            =   +0.00 kcal/mol
DOCKED: USER    (2) Final Total Internal Energy     =   -1.82 kcal/mol
DOCKED: USER    (3) Torsional Free Energy           =   +2.09 kcal/mol
DOCKED: USER    (4) Unbound System's Energy  [=(2)] =   -1.82 kcal/mol
DOCKED: USER    
DOCKED: USER    
DOCKED: USER    NEWDPF move ligand.pdbqt
DOCKED: USER    NEWDPF about 1.179000 0.138000 -0.353000
DOCKED: USER    NEWDPF tran0 15.070432 -10.123875 -0.511055
DOCKED: USER    NEWDPF quaternion0 -0.281361 0.293042 0.139321 0.903079
DOCKED: USER    NEWDPF axisangle0 -0.655129 0.682327 0.324400 50.868441
DOCKED: USER    NEWDPF quat0 -0.655129 0.682327 0.324400 50.868441
DOCKED: USER    NEWDPF dihe0 -9.81 -179.91 -179.98 -171.22 104.06 -74.49 177.95 
DOCKED: USER  keepresnum = 1 
DOCKED: USER  
DOCKED: REMARK  Name = 
DOCKED: REMARK  11 active torsions:
DOCKED: REMARK  status: ('A' for Active; 'I' for Inactive)
DOCKED: REMARK    1  A    between atoms: C_1  and  N_2
DOCKED: REMARK    2  A    between atoms: N_2  and  C_3
DOCKED: REMARK    3  A    between atoms: N_2  and  C_22
DOCKED: REMARK    4  A    between atoms: C_6  and  C_9
DOCKED: REMARK    5  A    between atoms: C_9  and  C_10
DOCKED: REMARK    6  A    between atoms: C_10  and  C_11
DOCKED: REMARK    7  A    between atoms: C_10  and  C_20
DOCKED: REMARK    8  A    between atoms: C_12  and  C_13
DOCKED: REMARK    9  A    between atoms: C_12  and  C_19
DOCKED: REMARK   10  A    between atoms: C_14  and  C_15
DOCKED: REMARK   11  A    between atoms: N_16  and  O_17
DOCKED: REMARK                            x       y       z     vdW  Elec       q    Type
DOCKED: REMARK                         _______ _______ _______ _____ _____    ______ ____
DOCKED: USER                              x       y       z     vdW  Elec       q    Type
DOCKED: USER                           _______ _______ _______ _____ _____    ______ ____
DOCKED: ROOT
DOCKED: ATOM      1  C   UNL     1      13.692 -11.175   0.313 -0.37 +0.00    +0.000 C 
DOCKED: ATOM      2  C   UNL     1      12.735 -11.972   1.205 -0.39 +0.00    +0.000 C 
DOCKED: ENDROOT
DOCKED: BRANCH   1   3
DOCKED: ATOM      3  C   UNL     1      15.123 -11.358   0.775 -0.40 +0.00    +0.000 C 
DOCKED: ATOM      4  C   UNL     1      15.918 -12.385   0.410 -0.52 +0.00    +0.000 C 
DOCKED: ATOM      5  C   UNL     1      15.428 -13.485  -0.507 -0.59 +0.00    +0.000 C 
DOCKED: BRANCH   4   6
DOCKED: ATOM      6  C   UNL     1      17.285 -12.446   0.990 -0.50 +0.00    +0.000 C 
DOCKED: ATOM      7  C   UNL     1      17.861 -11.411   1.620 -0.51 -0.00    +0.000 C 
DOCKED: BRANCH   7   8
DOCKED: ATOM      8  C   UNL     1      19.219 -11.465   2.198 -0.67 -0.00    +0.000 C 
DOCKED: ATOM      9  N   UNL     1      19.676 -10.520   3.175 -0.66 -0.00    +0.000 N 
DOCKED: ATOM     10  O   UNL     1      19.990 -12.392   1.832 -1.73 -0.00    +0.000 OA
DOCKED: ATOM     11  H   UNL     1      19.051  -9.855   3.544 -0.09 -0.00    +0.000 HD
DOCKED: BRANCH   9  12
DOCKED: ATOM     12  O   UNL     1      20.964 -10.542   3.592 -0.70 -0.00    +0.000 OA
DOCKED: ATOM     13  H   UNL     1      21.400 -11.340   3.256 -0.50 -0.00    +0.000 HD
DOCKED: ENDBRANCH   9  12
DOCKED: ENDBRANCH   7   8
DOCKED: ENDBRANCH   4   6
DOCKED: ENDBRANCH   1   3
DOCKED: BRANCH   1  14
DOCKED: ATOM     14  C   UNL     1      13.308  -9.711   0.339 -0.20 +0.00    +0.000 C 
DOCKED: ATOM     15  O   UNL     1      12.691  -9.228  -0.650 -0.15 -0.00    +0.000 OA
DOCKED: BRANCH  14  19
DOCKED: ATOM     16  C   UNL     1      14.283  -7.156   3.690 -0.26 +0.00    +0.000 A 
DOCKED: ATOM     17  C   UNL     1      13.602  -8.377   3.874 -0.25 +0.00    +0.000 A 
DOCKED: ATOM     18  C   UNL     1      13.289  -9.194   2.784 -0.20 +0.00    +0.000 A 
DOCKED: ATOM     19  C   UNL     1      13.651  -8.822   1.480 -0.17 +0.00    +0.000 A 
DOCKED: ATOM     20  C   UNL     1      14.320  -7.601   1.288 -0.22 +0.00    +0.000 A 
DOCKED: ATOM     21  C   UNL     1      14.633  -6.781   2.377 -0.23 +0.00    +0.000 A 
DOCKED: BRANCH  16  23
DOCKED: ATOM     22  C   UNL     1      13.884  -6.442   6.090 -0.40 +0.00    +0.000 C 
DOCKED: ATOM     23  N   UNL     1      14.608  -6.306   4.820 -0.38 +0.00    +0.000 N 
DOCKED: ATOM     24  C   UNL     1      15.666  -5.293   4.713 -0.45 +0.00    +0.000 C 
DOCKED: ENDBRANCH  16  23
DOCKED: ENDBRANCH  14  19
DOCKED: ENDBRANCH   1  14
DOCKED: TORSDOF 7
DOCKED: TER
DOCKED: ENDMDL
________________________________________________________________________________


	BEGINNING GENETIC ALGORITHM DOCKING 14 of 100
Run: 14 Seed: 376576946 1063077386 [ Run 14 of 100 GA/GALS ]
Beginning LAMARCKIAN GENETIC ALGORITHM (LGA), with a maximum of 2500000 energy evaluations.

Final-Value: -12.643


	FINAL GENETIC ALGORITHM DOCKED STATE
	_______________________________________________


Detailed state:  trans 15.530 -8.306 2.082 quatxyzw -0.728610 0.149857 0.279457 0.607103 center 1.179 0.138 -0.353 ntor 7 -15.6447 0.9622 178.2441 -174.9250 -148.3299 140.3723 -68.3112
State:	 15.530  -8.306   2.082  -0.917  0.189  0.352 105.239    -15.64    0.96  178.24 -174.93 -148.33  140.37  -68.31

DOCKED: MODEL       14
DOCKED: USER    Run = 14
DOCKED: USER    DPF = ligand_dock.biased.dpf
DOCKED: USER  
DOCKED: USER    Estimated Free Energy of Binding    =   -8.93 kcal/mol  [=(1)+(2)+(3)-(4)]
DOCKED: USER    Estimated Inhibition Constant, Ki   =  285.08 nM (nanomolar)  [Temperature = 298.15 K]
DOCKED: USER    
DOCKED: USER    (1) Final Intermolecular Energy     =  -11.02 kcal/mol
DOCKED: USER        vdW + Hbond + desolv Energy     =  -11.02 kcal/mol
DOCKED: USER        Electrostatic Energy            =   +0.00 kcal/mol
DOCKED: USER    (2) Final Total Internal Energy     =   -1.63 kcal/mol
DOCKED: USER    (3) Torsional Free Energy           =   +2.09 kcal/mol
DOCKED: USER    (4) Unbound System's Energy  [=(2)] =   -1.63 kcal/mol
DOCKED: USER    
DOCKED: USER    
DOCKED: USER    NEWDPF move ligand.pdbqt
DOCKED: USER    NEWDPF about 1.179000 0.138000 -0.353000
DOCKED: USER    NEWDPF tran0 15.530130 -8.306070 2.082373
DOCKED: USER    NEWDPF quaternion0 -0.728610 0.149857 0.279457 0.607103
DOCKED: USER    NEWDPF axisangle0 -0.916925 0.188589 0.351685 105.239402
DOCKED: USER    NEWDPF quat0 -0.916925 0.188589 0.351685 105.239402
DOCKED: USER    NEWDPF dihe0 -15.64 0.96 178.24 -174.93 -148.33 140.37 -68.31 
DOCKED: USER  keepresnum = 1 
DOCKED: USER  
DOCKED: REMARK  Name = 
DOCKED: REMARK  11 active torsions:
DOCKED: REMARK  status: ('A' for Active; 'I' for Inactive)
DOCKED: REMARK    1  A    between atoms: C_1  and  N_2
DOCKED: REMARK    2  A    between atoms: N_2  and  C_3
DOCKED: REMARK    3  A    between atoms: N_2  and  C_22
DOCKED: REMARK    4  A    between atoms: C_6  and  C_9
DOCKED: REMARK    5  A    between atoms: C_9  and  C_10
DOCKED: REMARK    6  A    between atoms: C_10  and  C_11
DOCKED: REMARK    7  A    between atoms: C_10  and  C_20
DOCKED: REMARK    8  A    between atoms: C_12  and  C_13
DOCKED: REMARK    9  A    between atoms: C_12  and  C_19
DOCKED: REMARK   10  A    between atoms: C_14  and  C_15
DOCKED: REMARK   11  A    between atoms: N_16  and  O_17
DOCKED: REMARK                            x       y       z     vdW  Elec       q    Type
DOCKED: REMARK                         _______ _______ _______ _____ _____    ______ ____
DOCKED: USER                              x       y       z     vdW  Elec       q    Type
DOCKED: USER                           _______ _______ _______ _____ _____    ______ ____
DOCKED: ROOT
DOCKED: ATOM      1  C   UNL     1      14.167  -9.518   1.486 -0.25 +0.00    +0.000 C 
DOCKED: ATOM      2  C   UNL     1      13.231 -10.681   1.139 -0.32 +0.00    +0.000 C 
DOCKED: ENDROOT
DOCKED: BRANCH   1   3
DOCKED: ATOM      3  C   UNL     1      15.610  -9.975   1.461 -0.34 +0.00    +0.000 C 
DOCKED: ATOM      4  C   UNL     1      16.117 -10.948   2.246 -0.46 +0.00    +0.000 C 
DOCKED: ATOM      5  C   UNL     1      15.264 -11.678   3.261 -0.49 +0.00    +0.000 C 
DOCKED: BRANCH   4   6
DOCKED: ATOM      6  C   UNL     1      17.569 -11.247   2.134 -0.48 +0.00    +0.000 C 
DOCKED: ATOM      7  C   UNL     1      18.315 -10.872   1.084 -0.50 -0.00    +0.000 C 
DOCKED: BRANCH   7   8
DOCKED: ATOM      8  C   UNL     1      19.759 -11.166   0.966 -0.67 -0.00    +0.000 C 
DOCKED: ATOM      9  N   UNL     1      20.608 -10.485   0.033 -0.61 -0.00    +0.000 N 
DOCKED: ATOM     10  O   UNL     1      20.258 -12.031   1.734 -1.71 -0.00    +0.000 OA
DOCKED: ATOM     11  H   UNL     1      20.251  -9.736  -0.498 -0.02 -0.00    +0.000 HD
DOCKED: BRANCH   9  12
DOCKED: ATOM     12  O   UNL     1      21.898 -10.866  -0.117 -0.74 -0.00    +0.000 OA
DOCKED: ATOM     13  H   UNL     1      22.159 -11.428   0.630 -0.54 -0.00    +0.000 HD
DOCKED: ENDBRANCH   9  12
DOCKED: ENDBRANCH   7   8
DOCKED: ENDBRANCH   4   6
DOCKED: ENDBRANCH   1   3
DOCKED: BRANCH   1  14
DOCKED: ATOM     14  C   UNL     1      13.807  -8.969   2.851 -0.26 +0.00    +0.000 C 
DOCKED: ATOM     15  O   UNL     1      12.995  -9.614   3.570 -0.30 +0.00    +0.000 OA
DOCKED: BRANCH  14  19
DOCKED: ATOM     16  C   UNL     1      15.410  -5.221   4.296 -0.36 +0.00    +0.000 A 
DOCKED: ATOM     17  C   UNL     1      14.740  -5.302   3.058 -0.24 +0.00    +0.000 A 
DOCKED: ATOM     18  C   UNL     1      14.228  -6.518   2.599 -0.22 +0.00    +0.000 A 
DOCKED: ATOM     19  C   UNL     1      14.363  -7.689   3.362 -0.26 +0.00    +0.000 A 
DOCKED: ATOM     20  C   UNL     1      15.039  -7.617   4.592 -0.35 +0.00    +0.000 A 
DOCKED: ATOM     21  C   UNL     1      15.553  -6.401   5.053 -0.39 +0.00    +0.000 A 
DOCKED: BRANCH  16  23
DOCKED: ATOM     22  C   UNL     1      16.249  -3.770   6.198 -0.52 +0.00    +0.000 C 
DOCKED: ATOM     23  N   UNL     1      15.942  -3.958   4.775 -0.49 -0.00    +0.000 N 
DOCKED: ATOM     24  C   UNL     1      16.181  -2.847   3.846 -0.50 -0.00    +0.000 C 
DOCKED: ENDBRANCH  16  23
DOCKED: ENDBRANCH  14  19
DOCKED: ENDBRANCH   1  14
DOCKED: TORSDOF 7
DOCKED: TER
DOCKED: ENDMDL
________________________________________________________________________________


	BEGINNING GENETIC ALGORITHM DOCKING 15 of 100
Run: 15 Seed: 1049786316 1782291599 [ Run 15 of 100 GA/GALS ]
Beginning LAMARCKIAN GENETIC ALGORITHM (LGA), with a maximum of 2500000 energy evaluations.

Final-Value: -12.948


	FINAL GENETIC ALGORITHM DOCKED STATE
	_______________________________________________


Detailed state:  trans 21.484 -8.897 -2.636 quatxyzw -0.452766 0.757742 -0.186841 0.431184 center 1.179 0.138 -0.353 ntor 7 10.7658 133.2712 -106.6038 -170.8597 123.6059 133.7457 -79.7393
State:	 21.484  -8.897  -2.636  -0.502  0.840 -0.207 128.915     10.77  133.27 -106.60 -170.86  123.61  133.75  -79.74

DOCKED: MODEL       15
DOCKED: USER    Run = 15
DOCKED: USER    DPF = ligand_dock.biased.dpf
DOCKED: USER  
DOCKED: USER    Estimated Free Energy of Binding    =   -9.38 kcal/mol  [=(1)+(2)+(3)-(4)]
DOCKED: USER    Estimated Inhibition Constant, Ki   =  132.26 nM (nanomolar)  [Temperature = 298.15 K]
DOCKED: USER    
DOCKED: USER    (1) Final Intermolecular Energy     =  -11.47 kcal/mol
DOCKED: USER        vdW + Hbond + desolv Energy     =  -11.47 kcal/mol
DOCKED: USER        Electrostatic Energy            =   +0.00 kcal/mol
DOCKED: USER    (2) Final Total Internal Energy     =   -1.48 kcal/mol
DOCKED: USER    (3) Torsional Free Energy           =   +2.09 kcal/mol
DOCKED: USER    (4) Unbound System's Energy  [=(2)] =   -1.48 kcal/mol
DOCKED: USER    
DOCKED: USER    
DOCKED: USER    NEWDPF move ligand.pdbqt
DOCKED: USER    NEWDPF about 1.179000 0.138000 -0.353000
DOCKED: USER    NEWDPF tran0 21.483789 -8.897012 -2.635725
DOCKED: USER    NEWDPF quaternion0 -0.452766 0.757742 -0.186841 0.431184
DOCKED: USER    NEWDPF axisangle0 -0.501812 0.839823 -0.207080 128.914560
DOCKED: USER    NEWDPF quat0 -0.501812 0.839823 -0.207080 128.914560
DOCKED: USER    NEWDPF dihe0 10.77 133.27 -106.60 -170.86 123.61 133.75 -79.74 
DOCKED: USER  keepresnum = 1 
DOCKED: USER  
DOCKED: REMARK  Name = 
DOCKED: REMARK  11 active torsions:
DOCKED: REMARK  status: ('A' for Active; 'I' for Inactive)
DOCKED: REMARK    1  A    between atoms: C_1  and  N_2
DOCKED: REMARK    2  A    between atoms: N_2  and  C_3
DOCKED: REMARK    3  A    between atoms: N_2  and  C_22
DOCKED: REMARK    4  A    between atoms: C_6  and  C_9
DOCKED: REMARK    5  A    between atoms: C_9  and  C_10
DOCKED: REMARK    6  A    between atoms: C_10  and  C_11
DOCKED: REMARK    7  A    between atoms: C_10  and  C_20
DOCKED: REMARK    8  A    between atoms: C_12  and  C_13
DOCKED: REMARK    9  A    between atoms: C_12  and  C_19
DOCKED: REMARK   10  A    between atoms: C_14  and  C_15
DOCKED: REMARK   11  A    between atoms: N_16  and  O_17
DOCKED: REMARK                            x       y       z     vdW  Elec       q    Type
DOCKED: REMARK                         _______ _______ _______ _____ _____    ______ ____
DOCKED: USER                              x       y       z     vdW  Elec       q    Type
DOCKED: USER                           _______ _______ _______ _____ _____    ______ ____
DOCKED: ROOT
DOCKED: ATOM      1  C   UNL     1      21.060 -10.237  -3.943 -0.49 -0.00    +0.000 C 
DOCKED: ATOM      2  C   UNL     1      20.495 -11.351  -4.829 -0.52 -0.00    +0.000 C 
DOCKED: ENDROOT
DOCKED: BRANCH   1   3
DOCKED: ATOM      3  C   UNL     1      20.773 -10.525  -2.484 -0.54 -0.00    +0.000 C 
DOCKED: ATOM      4  C   UNL     1      19.541 -10.534  -1.935 -0.46 -0.00    +0.000 C 
DOCKED: ATOM      5  C   UNL     1      18.303 -10.231  -2.752 -0.28 -0.00    +0.000 C 
DOCKED: BRANCH   4   6
DOCKED: ATOM      6  C   UNL     1      19.432 -10.787  -0.474 -0.53 -0.00    +0.000 C 
DOCKED: ATOM      7  C   UNL     1      20.443 -11.270   0.263 -0.63 -0.00    +0.000 C 
DOCKED: BRANCH   7   8
DOCKED: ATOM      8  C   UNL     1      20.341 -11.525   1.715 -0.77 -0.00    +0.000 C 
DOCKED: ATOM      9  N   UNL     1      20.634 -10.520   2.694 -0.61 -0.00    +0.000 N 
DOCKED: ATOM     10  O   UNL     1      19.958 -12.663   2.099 -1.54 -0.00    +0.000 OA
DOCKED: ATOM     11  H   UNL     1      20.834  -9.599   2.406 -0.54 -0.00    +0.000 HD
DOCKED: BRANCH   9  12
DOCKED: ATOM     12  O   UNL     1      20.635 -10.832   4.011 -0.80 -0.00    +0.000 OA
DOCKED: ATOM     13  H   UNL     1      20.590 -11.795   4.116 -0.43 -0.00    +0.000 HD
DOCKED: ENDBRANCH   9  12
DOCKED: ENDBRANCH   7   8
DOCKED: ENDBRANCH   4   6
DOCKED: ENDBRANCH   1   3
DOCKED: BRANCH   1  14
DOCKED: ATOM     14  C   UNL     1      20.456  -8.910  -4.351 -0.32 -0.00    +0.000 C 
DOCKED: ATOM     15  O   UNL     1      19.638  -8.885  -5.312 -0.18 -0.00    +0.000 OA
DOCKED: BRANCH  14  19
DOCKED: ATOM     16  C   UNL     1      21.487  -5.228  -2.330 -0.37 -0.00    +0.000 A 
DOCKED: ATOM     17  C   UNL     1      21.435  -6.454  -1.636 -0.26 +0.00    +0.000 A 
DOCKED: ATOM     18  C   UNL     1      21.098  -7.637  -2.297 -0.40 -0.00    +0.000 A 
DOCKED: ATOM     19  C   UNL     1      20.809  -7.636  -3.671 -0.31 -0.00    +0.000 A 
DOCKED: ATOM     20  C   UNL     1      20.849  -6.415  -4.367 -0.21 -0.00    +0.000 A 
DOCKED: ATOM     21  C   UNL     1      21.185  -5.230  -3.707 -0.22 -0.00    +0.000 A 
DOCKED: BRANCH  16  23
DOCKED: ATOM     22  C   UNL     1      20.942  -3.428  -0.630 -0.44 +0.00    +0.000 C 
DOCKED: ATOM     23  N   UNL     1      21.837  -3.997  -1.645 -0.33 +0.00    +0.000 N 
DOCKED: ATOM     24  C   UNL     1      23.090  -3.298  -1.956 -0.29 -0.00    +0.000 C 
DOCKED: ENDBRANCH  16  23
DOCKED: ENDBRANCH  14  19
DOCKED: ENDBRANCH   1  14
DOCKED: TORSDOF 7
DOCKED: TER
DOCKED: ENDMDL
________________________________________________________________________________


	BEGINNING GENETIC ALGORITHM DOCKING 16 of 100
Run: 16 Seed: 666128673 324459052 [ Run 16 of 100 GA/GALS ]
Beginning LAMARCKIAN GENETIC ALGORITHM (LGA), with a maximum of 2500000 energy evaluations.

Final-Value: -13.145


	FINAL GENETIC ALGORITHM DOCKED STATE
	_______________________________________________


Detailed state:  trans 20.691 -8.514 -2.810 quatxyzw -0.616874 0.605390 -0.358012 0.353266 center 1.179 0.138 -0.353 ntor 7 31.2057 20.7550 -19.6959 -160.2075 -133.4416 4.9564 166.9619
State:	 20.691  -8.514  -2.810  -0.659  0.647 -0.383 138.626     31.21   20.76  -19.70 -160.21 -133.44    4.96  166.96

DOCKED: MODEL       16
DOCKED: USER    Run = 16
DOCKED: USER    DPF = ligand_dock.biased.dpf
DOCKED: USER  
DOCKED: USER    Estimated Free Energy of Binding    =   -9.33 kcal/mol  [=(1)+(2)+(3)-(4)]
DOCKED: USER    Estimated Inhibition Constant, Ki   =  143.98 nM (nanomolar)  [Temperature = 298.15 K]
DOCKED: USER    
DOCKED: USER    (1) Final Intermolecular Energy     =  -11.42 kcal/mol
DOCKED: USER        vdW + Hbond + desolv Energy     =  -11.42 kcal/mol
DOCKED: USER        Electrostatic Energy            =   +0.00 kcal/mol
DOCKED: USER    (2) Final Total Internal Energy     =   -1.72 kcal/mol
DOCKED: USER    (3) Torsional Free Energy           =   +2.09 kcal/mol
DOCKED: USER    (4) Unbound System's Energy  [=(2)] =   -1.72 kcal/mol
DOCKED: USER    
DOCKED: USER    
DOCKED: USER    NEWDPF move ligand.pdbqt
DOCKED: USER    NEWDPF about 1.179000 0.138000 -0.353000
DOCKED: USER    NEWDPF tran0 20.690612 -8.514037 -2.809665
DOCKED: USER    NEWDPF quaternion0 -0.616874 0.605390 -0.358012 0.353266
DOCKED: USER    NEWDPF axisangle0 -0.659389 0.647114 -0.382686 138.625634
DOCKED: USER    NEWDPF quat0 -0.659389 0.647114 -0.382686 138.625634
DOCKED: USER    NEWDPF dihe0 31.21 20.76 -19.70 -160.21 -133.44 4.96 166.96 
DOCKED: USER  keepresnum = 1 
DOCKED: USER  
DOCKED: REMARK  Name = 
DOCKED: REMARK  11 active torsions:
DOCKED: REMARK  status: ('A' for Active; 'I' for Inactive)
DOCKED: REMARK    1  A    between atoms: C_1  and  N_2
DOCKED: REMARK    2  A    between atoms: N_2  and  C_3
DOCKED: REMARK    3  A    between atoms: N_2  and  C_22
DOCKED: REMARK    4  A    between atoms: C_6  and  C_9
DOCKED: REMARK    5  A    between atoms: C_9  and  C_10
DOCKED: REMARK    6  A    between atoms: C_10  and  C_11
DOCKED: REMARK    7  A    between atoms: C_10  and  C_20
DOCKED: REMARK    8  A    between atoms: C_12  and  C_13
DOCKED: REMARK    9  A    between atoms: C_12  and  C_19
DOCKED: REMARK   10  A    between atoms: C_14  and  C_15
DOCKED: REMARK   11  A    between atoms: N_16  and  O_17
DOCKED: REMARK                            x       y       z     vdW  Elec       q    Type
DOCKED: REMARK                         _______ _______ _______ _____ _____    ______ ____
DOCKED: USER                              x       y       z     vdW  Elec       q    Type
DOCKED: USER                           _______ _______ _______ _____ _____    ______ ____
DOCKED: ROOT
DOCKED: ATOM      1  C   UNL     1      21.191  -9.966  -3.961 -0.47 -0.00    +0.000 C 
DOCKED: ATOM      2  C   UNL     1      21.408 -11.272  -4.731 -0.54 -0.00    +0.000 C 
DOCKED: ENDROOT
DOCKED: BRANCH   1   3
DOCKED: ATOM      3  C   UNL     1      20.950 -10.249  -2.493 -0.56 -0.00    +0.000 C 
DOCKED: ATOM      4  C   UNL     1      21.024  -9.325  -1.514 -0.60 -0.00    +0.000 C 
DOCKED: ATOM      5  C   UNL     1      21.382  -7.883  -1.806 -0.48 -0.00    +0.000 C 
DOCKED: BRANCH   4   6
DOCKED: ATOM      6  C   UNL     1      20.806  -9.775  -0.114 -0.66 -0.00    +0.000 C 
DOCKED: ATOM      7  C   UNL     1      20.477 -11.035   0.207 -0.65 -0.00    +0.000 C 
DOCKED: BRANCH   7   8
DOCKED: ATOM      8  C   UNL     1      20.258 -11.488   1.597 -0.76 -0.00    +0.000 C 
DOCKED: ATOM      9  N   UNL     1      20.416 -10.616   2.723 -0.65 -0.00    +0.000 N 
DOCKED: ATOM     10  O   UNL     1      19.897 -12.680   1.788 -1.61 -0.00    +0.000 OA
DOCKED: ATOM     11  H   UNL     1      20.597  -9.658   2.580 -0.55 -0.00    +0.000 HD
DOCKED: BRANCH   9  12
DOCKED: ATOM     12  O   UNL     1      20.315 -11.104   3.981 -0.81 -0.00    +0.000 OA
DOCKED: ATOM     13  H   UNL     1      20.623 -12.023   3.998 -0.53 -0.00    +0.000 HD
DOCKED: ENDBRANCH   9  12
DOCKED: ENDBRANCH   7   8
DOCKED: ENDBRANCH   4   6
DOCKED: ENDBRANCH   1   3
DOCKED: BRANCH   1  14
DOCKED: ATOM     14  C   UNL     1      20.019  -9.216  -4.557 -0.29 -0.00    +0.000 C 
DOCKED: ATOM     15  O   UNL     1      20.231  -8.108  -5.123 -0.18 -0.00    +0.000 OA
DOCKED: BRANCH  14  19
DOCKED: ATOM     16  C   UNL     1      15.968 -10.707  -4.287 -0.14 -0.00    +0.000 A 
DOCKED: ATOM     17  C   UNL     1      16.656 -10.247  -3.146 -0.19 -0.00    +0.000 A 
DOCKED: ATOM     18  C   UNL     1      17.966  -9.770  -3.243 -0.17 -0.00    +0.000 A 
DOCKED: ATOM     19  C   UNL     1      18.626  -9.731  -4.482 -0.24 -0.00    +0.000 A 
DOCKED: ATOM     20  C   UNL     1      17.950 -10.197  -5.621 -0.23 -0.00    +0.000 A 
DOCKED: ATOM     21  C   UNL     1      16.640 -10.677  -5.526 -0.23 -0.00    +0.000 A 
DOCKED: BRANCH  16  23
DOCKED: ATOM     22  C   UNL     1      13.901 -11.688  -5.381 -0.29 -0.00    +0.000 C 
DOCKED: ATOM     23  N   UNL     1      14.607 -11.203  -4.188 -0.29 -0.00    +0.000 N 
DOCKED: ATOM     24  C   UNL     1      13.913 -11.228  -2.895 -0.29 -0.00    +0.000 C 
DOCKED: ENDBRANCH  16  23
DOCKED: ENDBRANCH  14  19
DOCKED: ENDBRANCH   1  14
DOCKED: TORSDOF 7
DOCKED: TER
DOCKED: ENDMDL
________________________________________________________________________________


	BEGINNING GENETIC ALGORITHM DOCKING 17 of 100
Run: 17 Seed: 568805426 1477537478 [ Run 17 of 100 GA/GALS ]
Beginning LAMARCKIAN GENETIC ALGORITHM (LGA), with a maximum of 2500000 energy evaluations.

Final-Value: -13.300


	FINAL GENETIC ALGORITHM DOCKED STATE
	_______________________________________________


Detailed state:  trans 20.285 -8.740 -3.112 quatxyzw 0.613819 -0.588920 0.357425 -0.385547 center 1.179 0.138 -0.353 ntor 7 29.4548 -106.0229 -32.2978 -142.8579 75.9827 -3.4459 125.7368
State:	 20.285  -8.740  -3.112   0.665 -0.638  0.387 -134.645     29.45 -106.02  -32.30 -142.86   75.98   -3.45  125.74

DOCKED: MODEL       17
DOCKED: USER    Run = 17
DOCKED: USER    DPF = ligand_dock.biased.dpf
DOCKED: USER  
DOCKED: USER    Estimated Free Energy of Binding    =   -9.67 kcal/mol  [=(1)+(2)+(3)-(4)]
DOCKED: USER    Estimated Inhibition Constant, Ki   =   80.98 nM (nanomolar)  [Temperature = 298.15 K]
DOCKED: USER    
DOCKED: USER    (1) Final Intermolecular Energy     =  -11.76 kcal/mol
DOCKED: USER        vdW + Hbond + desolv Energy     =  -11.76 kcal/mol
DOCKED: USER        Electrostatic Energy            =   +0.00 kcal/mol
DOCKED: USER    (2) Final Total Internal Energy     =   -1.54 kcal/mol
DOCKED: USER    (3) Torsional Free Energy           =   +2.09 kcal/mol
DOCKED: USER    (4) Unbound System's Energy  [=(2)] =   -1.54 kcal/mol
DOCKED: USER    
DOCKED: USER    
DOCKED: USER    NEWDPF move ligand.pdbqt
DOCKED: USER    NEWDPF about 1.179000 0.138000 -0.353000
DOCKED: USER    NEWDPF tran0 20.285375 -8.739956 -3.111977
DOCKED: USER    NEWDPF quaternion0 0.613819 -0.588920 0.357425 -0.385547
DOCKED: USER    NEWDPF axisangle0 0.665251 -0.638266 0.387374 -134.644621
DOCKED: USER    NEWDPF quat0 0.665251 -0.638266 0.387374 -134.644621
DOCKED: USER    NEWDPF dihe0 29.45 -106.02 -32.30 -142.86 75.98 -3.45 125.74 
DOCKED: USER  keepresnum = 1 
DOCKED: USER  
DOCKED: REMARK  Name = 
DOCKED: REMARK  11 active torsions:
DOCKED: REMARK  status: ('A' for Active; 'I' for Inactive)
DOCKED: REMARK    1  A    between atoms: C_1  and  N_2
DOCKED: REMARK    2  A    between atoms: N_2  and  C_3
DOCKED: REMARK    3  A    between atoms: N_2  and  C_22
DOCKED: REMARK    4  A    between atoms: C_6  and  C_9
DOCKED: REMARK    5  A    between atoms: C_9  and  C_10
DOCKED: REMARK    6  A    between atoms: C_10  and  C_11
DOCKED: REMARK    7  A    between atoms: C_10  and  C_20
DOCKED: REMARK    8  A    between atoms: C_12  and  C_13
DOCKED: REMARK    9  A    between atoms: C_12  and  C_19
DOCKED: REMARK   10  A    between atoms: C_14  and  C_15
DOCKED: REMARK   11  A    between atoms: N_16  and  O_17
DOCKED: REMARK                            x       y       z     vdW  Elec       q    Type
DOCKED: REMARK                         _______ _______ _______ _____ _____    ______ ____
DOCKED: USER                              x       y       z     vdW  Elec       q    Type
DOCKED: USER                           _______ _______ _______ _____ _____    ______ ____
DOCKED: ROOT
DOCKED: ATOM      1  C   UNL     1      20.720 -10.255  -4.208 -0.46 -0.00    +0.000 C 
DOCKED: ATOM      2  C   UNL     1      20.892 -11.602  -4.916 -0.52 -0.00    +0.000 C 
DOCKED: ENDROOT
DOCKED: BRANCH   1   3
DOCKED: ATOM      3  C   UNL     1      20.550 -10.458  -2.717 -0.52 -0.00    +0.000 C 
DOCKED: ATOM      4  C   UNL     1      20.834  -9.529  -1.782 -0.58 -0.00    +0.000 C 
DOCKED: ATOM      5  C   UNL     1      21.379  -8.166  -2.153 -0.49 -0.00    +0.000 C 
DOCKED: BRANCH   4   6
DOCKED: ATOM      6  C   UNL     1      20.657  -9.902  -0.354 -0.65 -0.00    +0.000 C 
DOCKED: ATOM      7  C   UNL     1      20.498 -11.169   0.058 -0.58 -0.00    +0.000 C 
DOCKED: BRANCH   7   8
DOCKED: ATOM      8  C   UNL     1      20.321 -11.547   1.476 -0.76 -0.00    +0.000 C 
DOCKED: ATOM      9  N   UNL     1      20.599 -10.641   2.552 -0.62 -0.00    +0.000 N 
DOCKED: ATOM     10  O   UNL     1      19.888 -12.700   1.739 -1.60 -0.00    +0.000 OA
DOCKED: ATOM     11  H   UNL     1      20.839  -9.707   2.357 -0.56 -0.00    +0.000 HD
DOCKED: BRANCH   9  12
DOCKED: ATOM     12  O   UNL     1      20.530 -11.068   3.835 -0.79 -0.00    +0.000 OA
DOCKED: ATOM     13  H   UNL     1      20.746 -12.012   3.875 -0.54 -0.00    +0.000 HD
DOCKED: ENDBRANCH   9  12
DOCKED: ENDBRANCH   7   8
DOCKED: ENDBRANCH   4   6
DOCKED: ENDBRANCH   1   3
DOCKED: BRANCH   1  14
DOCKED: ATOM     14  C   UNL     1      19.524  -9.527  -4.785 -0.27 -0.00    +0.000 C 
DOCKED: ATOM     15  O   UNL     1      19.479  -8.269  -4.699 -0.21 -0.00    +0.000 OA
DOCKED: BRANCH  14  19
DOCKED: ATOM     16  C   UNL     1      16.264 -11.622  -6.706 -0.31 -0.00    +0.000 A 
DOCKED: ATOM     17  C   UNL     1      17.464 -11.346  -7.394 -0.32 -0.00    +0.000 A 
DOCKED: ATOM     18  C   UNL     1      18.510 -10.666  -6.765 -0.30 -0.00    +0.000 A 
DOCKED: ATOM     19  C   UNL     1      18.394 -10.246  -5.430 -0.25 -0.00    +0.000 A 
DOCKED: ATOM     20  C   UNL     1      17.198 -10.510  -4.742 -0.22 -0.00    +0.000 A 
DOCKED: ATOM     21  C   UNL     1      16.149 -11.189  -5.370 -0.20 -0.00    +0.000 A 
DOCKED: BRANCH  16  23
DOCKED: ATOM     22  C   UNL     1      15.410 -13.626  -8.005 -0.45 +0.00    +0.000 C 
DOCKED: ATOM     23  N   UNL     1      15.176 -12.329  -7.358 -0.34 -0.00    +0.000 N 
DOCKED: ATOM     24  C   UNL     1      13.824 -11.758  -7.383 -0.23 -0.00    +0.000 C 
DOCKED: ENDBRANCH  16  23
DOCKED: ENDBRANCH  14  19
DOCKED: ENDBRANCH   1  14
DOCKED: TORSDOF 7
DOCKED: TER
DOCKED: ENDMDL
________________________________________________________________________________


	BEGINNING GENETIC ALGORITHM DOCKING 18 of 100
Run: 18 Seed: 616829938 757787192 [ Run 18 of 100 GA/GALS ]
Beginning LAMARCKIAN GENETIC ALGORITHM (LGA), with a maximum of 2500000 energy evaluations.

Final-Value: -12.033


	FINAL GENETIC ALGORITHM DOCKED STATE
	_______________________________________________


Detailed state:  trans 18.815 -8.706 -3.753 quatxyzw -0.651422 -0.219309 -0.492741 0.533629 center 1.179 0.138 -0.353 ntor 7 -9.6145 160.3300 30.6442 -109.4789 -54.2137 -42.0311 179.9962
State:	 18.815  -8.706  -3.753  -0.770 -0.259 -0.583 115.498     -9.61  160.33   30.64 -109.48  -54.21  -42.03  180.00

DOCKED: MODEL       18
DOCKED: USER    Run = 18
DOCKED: USER    DPF = ligand_dock.biased.dpf
DOCKED: USER  
DOCKED: USER    Estimated Free Energy of Binding    =   -8.19 kcal/mol  [=(1)+(2)+(3)-(4)]
DOCKED: USER    Estimated Inhibition Constant, Ki   =  988.54 nM (nanomolar)  [Temperature = 298.15 K]
DOCKED: USER    
DOCKED: USER    (1) Final Intermolecular Energy     =  -10.28 kcal/mol
DOCKED: USER        vdW + Hbond + desolv Energy     =  -10.28 kcal/mol
DOCKED: USER        Electrostatic Energy            =   +0.00 kcal/mol
DOCKED: USER    (2) Final Total Internal Energy     =   -1.75 kcal/mol
DOCKED: USER    (3) Torsional Free Energy           =   +2.09 kcal/mol
DOCKED: USER    (4) Unbound System's Energy  [=(2)] =   -1.75 kcal/mol
DOCKED: USER    
DOCKED: USER    
DOCKED: USER    NEWDPF move ligand.pdbqt
DOCKED: USER    NEWDPF about 1.179000 0.138000 -0.353000
DOCKED: USER    NEWDPF tran0 18.815255 -8.706203 -3.752970
DOCKED: USER    NEWDPF quaternion0 -0.651422 -0.219309 -0.492741 0.533629
DOCKED: USER    NEWDPF axisangle0 -0.770258 -0.259317 -0.582630 115.498070
DOCKED: USER    NEWDPF quat0 -0.770258 -0.259317 -0.582630 115.498070
DOCKED: USER    NEWDPF dihe0 -9.61 160.33 30.64 -109.48 -54.21 -42.03 180.00 
DOCKED: USER  keepresnum = 1 
DOCKED: USER  
DOCKED: REMARK  Name = 
DOCKED: REMARK  11 active torsions:
DOCKED: REMARK  status: ('A' for Active; 'I' for Inactive)
DOCKED: REMARK    1  A    between atoms: C_1  and  N_2
DOCKED: REMARK    2  A    between atoms: N_2  and  C_3
DOCKED: REMARK    3  A    between atoms: N_2  and  C_22
DOCKED: REMARK    4  A    between atoms: C_6  and  C_9
DOCKED: REMARK    5  A    between atoms: C_9  and  C_10
DOCKED: REMARK    6  A    between atoms: C_10  and  C_11
DOCKED: REMARK    7  A    between atoms: C_10  and  C_20
DOCKED: REMARK    8  A    between atoms: C_12  and  C_13
DOCKED: REMARK    9  A    between atoms: C_12  and  C_19
DOCKED: REMARK   10  A    between atoms: C_14  and  C_15
DOCKED: REMARK   11  A    between atoms: N_16  and  O_17
DOCKED: REMARK                            x       y       z     vdW  Elec       q    Type
DOCKED: REMARK                         _______ _______ _______ _____ _____    ______ ____
DOCKED: USER                              x       y       z     vdW  Elec       q    Type
DOCKED: USER                           _______ _______ _______ _____ _____    ______ ____
DOCKED: ROOT
DOCKED: ATOM      1  C   UNL     1      20.423  -9.653  -4.201 -0.38 -0.00    +0.000 C 
DOCKED: ATOM      2  C   UNL     1      21.792 -10.333  -4.305 -0.43 -0.00    +0.000 C 
DOCKED: ENDROOT
DOCKED: BRANCH   1   3
DOCKED: ATOM      3  C   UNL     1      20.533  -8.358  -3.423 -0.37 -0.00    +0.000 C 
DOCKED: ATOM      4  C   UNL     1      20.265  -7.138  -3.930 -0.26 -0.00    +0.000 C 
DOCKED: ATOM      5  C   UNL     1      19.835  -6.950  -5.370 -0.14 -0.00    +0.000 C 
DOCKED: BRANCH   4   6
DOCKED: ATOM      6  C   UNL     1      20.467  -5.958  -3.049 -0.26 -0.00    +0.000 C 
DOCKED: ATOM      7  C   UNL     1      21.574  -5.775  -2.313 -0.44 -0.00    +0.000 C 
DOCKED: BRANCH   7   8
DOCKED: ATOM      8  C   UNL     1      21.781  -4.605  -1.434 -0.33 +0.00    +0.000 C 
DOCKED: ATOM      9  N   UNL     1      20.789  -4.162  -0.499 -0.47 +0.00    +0.000 N 
DOCKED: ATOM     10  O   UNL     1      22.882  -3.995  -1.498 -0.89 +0.00    +0.000 OA
DOCKED: ATOM     11  H   UNL     1      19.969  -4.691  -0.367 -0.08 +0.00    +0.000 HD
DOCKED: BRANCH   9  12
DOCKED: ATOM     12  O   UNL     1      20.978  -3.021   0.204 -0.92 +0.00    +0.000 OA
DOCKED: ATOM     13  H   UNL     1      21.886  -2.707   0.075 -0.03 +0.00    +0.000 HD
DOCKED: ENDBRANCH   9  12
DOCKED: ENDBRANCH   7   8
DOCKED: ENDBRANCH   4   6
DOCKED: ENDBRANCH   1   3
DOCKED: BRANCH   1  14
DOCKED: ATOM     14  C   UNL     1      19.441 -10.593  -3.534 -0.42 -0.00    +0.000 C 
DOCKED: ATOM     15  O   UNL     1      18.620 -11.224  -4.255 -0.33 -0.00    +0.000 OA
DOCKED: BRANCH  14  19
DOCKED: ATOM     16  C   UNL     1      19.271 -11.148   0.752 -0.53 -0.00    +0.000 A 
DOCKED: ATOM     17  C   UNL     1      18.115 -11.257  -0.047 -0.41 -0.00    +0.000 A 
DOCKED: ATOM     18  C   UNL     1      18.179 -11.072  -1.430 -0.30 -0.00    +0.000 A 
DOCKED: ATOM     19  C   UNL     1      19.400 -10.781  -2.060 -0.39 -0.00    +0.000 A 
DOCKED: ATOM     20  C   UNL     1      20.555 -10.662  -1.269 -0.48 -0.00    +0.000 A 
DOCKED: ATOM     21  C   UNL     1      20.492 -10.845   0.116 -0.60 -0.00    +0.000 A 
DOCKED: BRANCH  16  23
DOCKED: ATOM     22  C   UNL     1      18.078 -10.805   2.963 -0.52 -0.00    +0.000 C 
DOCKED: ATOM     23  N   UNL     1      19.206 -11.340   2.189 -0.57 -0.00    +0.000 N 
DOCKED: ATOM     24  C   UNL     1      20.267 -12.068   2.895 -0.73 -0.00    +0.000 C 
DOCKED: ENDBRANCH  16  23
DOCKED: ENDBRANCH  14  19
DOCKED: ENDBRANCH   1  14
DOCKED: TORSDOF 7
DOCKED: TER
DOCKED: ENDMDL
________________________________________________________________________________


	BEGINNING GENETIC ALGORITHM DOCKING 19 of 100
Run: 19 Seed: 2093074143 1620834621 [ Run 19 of 100 GA/GALS ]
Beginning LAMARCKIAN GENETIC ALGORITHM (LGA), with a maximum of 2500000 energy evaluations.

Final-Value: -12.372


	FINAL GENETIC ALGORITHM DOCKED STATE
	_______________________________________________


Detailed state:  trans 15.810 -8.868 2.530 quatxyzw 0.647211 -0.105619 -0.357448 -0.664976 center 1.179 0.138 -0.353 ntor 7 -9.6824 87.8293 91.3585 121.9321 -180.0000 -60.8274 -47.5452
State:	 15.810  -8.868   2.530   0.867 -0.141 -0.479 -96.639     -9.68   87.83   91.36  121.93 -180.00  -60.83  -47.55

DOCKED: MODEL       19
DOCKED: USER    Run = 19
DOCKED: USER    DPF = ligand_dock.biased.dpf
DOCKED: USER  
DOCKED: USER    Estimated Free Energy of Binding    =   -8.59 kcal/mol  [=(1)+(2)+(3)-(4)]
DOCKED: USER    Estimated Inhibition Constant, Ki   =  501.85 nM (nanomolar)  [Temperature = 298.15 K]
DOCKED: USER    
DOCKED: USER    (1) Final Intermolecular Energy     =  -10.68 kcal/mol
DOCKED: USER        vdW + Hbond + desolv Energy     =  -10.68 kcal/mol
DOCKED: USER        Electrostatic Energy            =   +0.00 kcal/mol
DOCKED: USER    (2) Final Total Internal Energy     =   -1.69 kcal/mol
DOCKED: USER    (3) Torsional Free Energy           =   +2.09 kcal/mol
DOCKED: USER    (4) Unbound System's Energy  [=(2)] =   -1.69 kcal/mol
DOCKED: USER    
DOCKED: USER    
DOCKED: USER    NEWDPF move ligand.pdbqt
DOCKED: USER    NEWDPF about 1.179000 0.138000 -0.353000
DOCKED: USER    NEWDPF tran0 15.810444 -8.867820 2.530479
DOCKED: USER    NEWDPF quaternion0 0.647211 -0.105619 -0.357448 -0.664976
DOCKED: USER    NEWDPF axisangle0 0.866571 -0.141416 -0.478598 -96.639011
DOCKED: USER    NEWDPF quat0 0.866571 -0.141416 -0.478598 -96.639011
DOCKED: USER    NEWDPF dihe0 -9.68 87.83 91.36 121.93 -180.00 -60.83 -47.55 
DOCKED: USER  keepresnum = 1 
DOCKED: USER  
DOCKED: REMARK  Name = 
DOCKED: REMARK  11 active torsions:
DOCKED: REMARK  status: ('A' for Active; 'I' for Inactive)
DOCKED: REMARK    1  A    between atoms: C_1  and  N_2
DOCKED: REMARK    2  A    between atoms: N_2  and  C_3
DOCKED: REMARK    3  A    between atoms: N_2  and  C_22
DOCKED: REMARK    4  A    between atoms: C_6  and  C_9
DOCKED: REMARK    5  A    between atoms: C_9  and  C_10
DOCKED: REMARK    6  A    between atoms: C_10  and  C_11
DOCKED: REMARK    7  A    between atoms: C_10  and  C_20
DOCKED: REMARK    8  A    between atoms: C_12  and  C_13
DOCKED: REMARK    9  A    between atoms: C_12  and  C_19
DOCKED: REMARK   10  A    between atoms: C_14  and  C_15
DOCKED: REMARK   11  A    between atoms: N_16  and  O_17
DOCKED: REMARK                            x       y       z     vdW  Elec       q    Type
DOCKED: REMARK                         _______ _______ _______ _____ _____    ______ ____
DOCKED: USER                              x       y       z     vdW  Elec       q    Type
DOCKED: USER                           _______ _______ _______ _____ _____    ______ ____
DOCKED: ROOT
DOCKED: ATOM      1  C   UNL     1      14.338 -10.096   2.430 -0.34 +0.00    +0.000 C 
DOCKED: ATOM      2  C   UNL     1      13.341 -11.257   2.466 -0.32 +0.00    +0.000 C 
DOCKED: ENDROOT
DOCKED: BRANCH   1   3
DOCKED: ATOM      3  C   UNL     1      15.735 -10.606   2.141 -0.42 +0.00    +0.000 C 
DOCKED: ATOM      4  C   UNL     1      16.319 -10.587   0.925 -0.36 +0.00    +0.000 C 
DOCKED: ATOM      5  C   UNL     1      15.600 -10.053  -0.295 -0.29 -0.00    +0.000 C 
DOCKED: BRANCH   4   6
DOCKED: ATOM      6  C   UNL     1      17.680 -11.172   0.798 -0.47 -0.00    +0.000 C 
DOCKED: ATOM      7  C   UNL     1      18.796 -10.507   1.131 -0.48 -0.00    +0.000 C 
DOCKED: BRANCH   7   8
DOCKED: ATOM      8  C   UNL     1      20.152 -11.082   1.006 -0.70 -0.00    +0.000 C 
DOCKED: ATOM      9  N   UNL     1      21.089 -10.632   0.020 -0.66 -0.00    +0.000 N 
DOCKED: ATOM     10  O   UNL     1      20.497 -11.984   1.816 -1.57 -0.00    +0.000 OA
DOCKED: ATOM     11  H   UNL     1      20.868  -9.859  -0.550 -0.03 -0.00    +0.000 HD
DOCKED: BRANCH   9  12
DOCKED: ATOM     12  O   UNL     1      22.277 -11.264  -0.130 -0.47 -0.00    +0.000 OA
DOCKED: ATOM     13  H   UNL     1      22.402 -11.894   0.597 -0.59 -0.00    +0.000 HD
DOCKED: ENDBRANCH   9  12
DOCKED: ENDBRANCH   7   8
DOCKED: ENDBRANCH   4   6
DOCKED: ENDBRANCH   1   3
DOCKED: BRANCH   1  14
DOCKED: ATOM     14  C   UNL     1      14.306  -9.359   3.752 -0.38 +0.00    +0.000 C 
DOCKED: ATOM     15  O   UNL     1      14.042 -10.008   4.802 -0.46 +0.00    +0.000 OA
DOCKED: BRANCH  14  19
DOCKED: ATOM     16  C   UNL     1      15.018  -5.100   3.993 -0.34 +0.00    +0.000 A 
DOCKED: ATOM     17  C   UNL     1      14.584  -5.703   2.795 -0.23 +0.00    +0.000 A 
DOCKED: ATOM     18  C   UNL     1      14.360  -7.080   2.726 -0.23 +0.00    +0.000 A 
DOCKED: ATOM     19  C   UNL     1      14.555  -7.897   3.852 -0.30 +0.00    +0.000 A 
DOCKED: ATOM     20  C   UNL     1      14.996  -7.303   5.046 -0.35 +0.00    +0.000 A 
DOCKED: ATOM     21  C   UNL     1      15.223  -5.925   5.116 -0.42 +0.00    +0.000 A 
DOCKED: BRANCH  16  23
DOCKED: ATOM     22  C   UNL     1      16.610  -3.143   4.251 -0.52 -0.00    +0.000 C 
DOCKED: ATOM     23  N   UNL     1      15.251  -3.668   4.066 -0.38 -0.00    +0.000 N 
DOCKED: ATOM     24  C   UNL     1      14.134  -2.723   3.958 -0.40 -0.00    +0.000 C 
DOCKED: ENDBRANCH  16  23
DOCKED: ENDBRANCH  14  19
DOCKED: ENDBRANCH   1  14
DOCKED: TORSDOF 7
DOCKED: TER
DOCKED: ENDMDL
________________________________________________________________________________


	BEGINNING GENETIC ALGORITHM DOCKING 20 of 100
Run: 20 Seed: 1612099503 433598788 [ Run 20 of 100 GA/GALS ]
Beginning LAMARCKIAN GENETIC ALGORITHM (LGA), with a maximum of 2500000 energy evaluations.

Final-Value: -13.599


	FINAL GENETIC ALGORITHM DOCKED STATE
	_______________________________________________


Detailed state:  trans 19.333 -11.404 -3.426 quatxyzw -0.795514 -0.222810 -0.504631 -0.250718 center 1.179 0.138 -0.353 ntor 7 6.2281 124.3534 78.7776 24.0096 74.5857 -21.3092 119.6252
State:	 19.333 -11.404  -3.426  -0.822 -0.230 -0.521 -150.960      6.23  124.35   78.78   24.01   74.59  -21.31  119.63

DOCKED: MODEL       20
DOCKED: USER    Run = 20
DOCKED: USER    DPF = ligand_dock.biased.dpf
DOCKED: USER  
DOCKED: USER    Estimated Free Energy of Binding    =   -9.92 kcal/mol  [=(1)+(2)+(3)-(4)]
DOCKED: USER    Estimated Inhibition Constant, Ki   =   53.21 nM (nanomolar)  [Temperature = 298.15 K]
DOCKED: USER    
DOCKED: USER    (1) Final Intermolecular Energy     =  -12.01 kcal/mol
DOCKED: USER        vdW + Hbond + desolv Energy     =  -12.01 kcal/mol
DOCKED: USER        Electrostatic Energy            =   +0.00 kcal/mol
DOCKED: USER    (2) Final Total Internal Energy     =   -1.59 kcal/mol
DOCKED: USER    (3) Torsional Free Energy           =   +2.09 kcal/mol
DOCKED: USER    (4) Unbound System's Energy  [=(2)] =   -1.59 kcal/mol
DOCKED: USER    
DOCKED: USER    
DOCKED: USER    NEWDPF move ligand.pdbqt
DOCKED: USER    NEWDPF about 1.179000 0.138000 -0.353000
DOCKED: USER    NEWDPF tran0 19.333083 -11.404136 -3.425646
DOCKED: USER    NEWDPF quaternion0 -0.795514 -0.222810 -0.504631 -0.250718
DOCKED: USER    NEWDPF axisangle0 -0.821761 -0.230161 -0.521281 -150.959948
DOCKED: USER    NEWDPF quat0 -0.821761 -0.230161 -0.521281 -150.959948
DOCKED: USER    NEWDPF dihe0 6.23 124.35 78.78 24.01 74.59 -21.31 119.63 
DOCKED: USER  keepresnum = 1 
DOCKED: USER  
DOCKED: REMARK  Name = 
DOCKED: REMARK  11 active torsions:
DOCKED: REMARK  status: ('A' for Active; 'I' for Inactive)
DOCKED: REMARK    1  A    between atoms: C_1  and  N_2
DOCKED: REMARK    2  A    between atoms: N_2  and  C_3
DOCKED: REMARK    3  A    between atoms: N_2  and  C_22
DOCKED: REMARK    4  A    between atoms: C_6  and  C_9
DOCKED: REMARK    5  A    between atoms: C_9  and  C_10
DOCKED: REMARK    6  A    between atoms: C_10  and  C_11
DOCKED: REMARK    7  A    between atoms: C_10  and  C_20
DOCKED: REMARK    8  A    between atoms: C_12  and  C_13
DOCKED: REMARK    9  A    between atoms: C_12  and  C_19
DOCKED: REMARK   10  A    between atoms: C_14  and  C_15
DOCKED: REMARK   11  A    between atoms: N_16  and  O_17
DOCKED: REMARK                            x       y       z     vdW  Elec       q    Type
DOCKED: REMARK                         _______ _______ _______ _____ _____    ______ ____
DOCKED: USER                              x       y       z     vdW  Elec       q    Type
DOCKED: USER                           _______ _______ _______ _____ _____    ______ ____
DOCKED: ROOT
DOCKED: ATOM      1  C   UNL     1      20.204  -9.915  -4.268 -0.38 -0.00    +0.000 C 
DOCKED: ATOM      2  C   UNL     1      21.126  -8.818  -4.808 -0.31 -0.00    +0.000 C 
DOCKED: ENDROOT
DOCKED: BRANCH   1   3
DOCKED: ATOM      3  C   UNL     1      20.576 -10.266  -2.843 -0.52 -0.00    +0.000 C 
DOCKED: ATOM      4  C   UNL     1      19.686 -10.487  -1.853 -0.48 -0.00    +0.000 C 
DOCKED: ATOM      5  C   UNL     1      18.194 -10.384  -2.086 -0.22 -0.00    +0.000 C 
DOCKED: BRANCH   4   6
DOCKED: ATOM      6  C   UNL     1      20.215 -10.775  -0.494 -0.60 -0.00    +0.000 C 
DOCKED: ATOM      7  C   UNL     1      19.426 -11.025   0.561 -0.61 -0.00    +0.000 C 
DOCKED: BRANCH   7   8
DOCKED: ATOM      8  C   UNL     1      19.945 -11.311   1.915 -0.74 -0.00    +0.000 C 
DOCKED: ATOM      9  N   UNL     1      20.053 -10.300   2.925 -0.58 -0.00    +0.000 N 
DOCKED: ATOM     10  O   UNL     1      20.281 -12.494   2.191 -1.50 -0.00    +0.000 OA
DOCKED: ATOM     11  H   UNL     1      19.699  -9.397   2.755 -0.54 -0.00    +0.000 HD
DOCKED: BRANCH   9  12
DOCKED: ATOM     12  O   UNL     1      20.639 -10.584   4.112 -0.79 -0.00    +0.000 OA
DOCKED: ATOM     13  H   UNL     1      21.017 -11.476   4.082 -0.50 -0.00    +0.000 HD
DOCKED: ENDBRANCH   9  12
DOCKED: ENDBRANCH   7   8
DOCKED: ENDBRANCH   4   6
DOCKED: ENDBRANCH   1   3
DOCKED: BRANCH   1  14
DOCKED: ATOM     14  C   UNL     1      20.296 -11.138  -5.158 -0.49 -0.00    +0.000 C 
DOCKED: ATOM     15  O   UNL     1      19.377 -12.001  -5.099 -0.55 -0.00    +0.000 OA
DOCKED: BRANCH  14  19
DOCKED: ATOM     16  C   UNL     1      23.601 -11.762  -7.877 -0.43 -0.00    +0.000 A 
DOCKED: ATOM     17  C   UNL     1      22.512 -10.936  -8.225 -0.28 -0.00    +0.000 A 
DOCKED: ATOM     18  C   UNL     1      21.448 -10.743  -7.341 -0.26 -0.00    +0.000 A 
DOCKED: ATOM     19  C   UNL     1      21.440 -11.362  -6.081 -0.28 -0.00    +0.000 A 
DOCKED: ATOM     20  C   UNL     1      22.517 -12.195  -5.731 -0.48 -0.00    +0.000 A 
DOCKED: ATOM     21  C   UNL     1      23.582 -12.390  -6.616 -0.29 -0.00    +0.000 A 
DOCKED: BRANCH  16  23
DOCKED: ATOM     22  C   UNL     1      24.562 -12.852  -9.955 -0.38 -0.00    +0.000 C 
DOCKED: ATOM     23  N   UNL     1      24.707 -11.964  -8.795 -0.41 -0.00    +0.000 N 
DOCKED: ATOM     24  C   UNL     1      25.991 -11.285  -8.578 -0.41 -0.00    +0.000 C 
DOCKED: ENDBRANCH  16  23
DOCKED: ENDBRANCH  14  19
DOCKED: ENDBRANCH   1  14
DOCKED: TORSDOF 7
DOCKED: TER
DOCKED: ENDMDL
________________________________________________________________________________


	BEGINNING GENETIC ALGORITHM DOCKING 21 of 100
Run: 21 Seed: 2100857876 363444742 [ Run 21 of 100 GA/GALS ]
Beginning LAMARCKIAN GENETIC ALGORITHM (LGA), with a maximum of 2500000 energy evaluations.

Final-Value: -13.042


	FINAL GENETIC ALGORITHM DOCKED STATE
	_______________________________________________


Detailed state:  trans 21.875 -8.669 -2.438 quatxyzw -0.470730 0.766093 -0.239598 0.366206 center 1.179 0.138 -0.353 ntor 7 34.0171 161.5631 -120.6553 179.9766 97.7934 143.8326 -74.9849
State:	 21.875  -8.669  -2.438  -0.506  0.823 -0.257 137.036     34.02  161.56 -120.66  179.98   97.79  143.83  -74.98

DOCKED: MODEL       21
DOCKED: USER    Run = 21
DOCKED: USER    DPF = ligand_dock.biased.dpf
DOCKED: USER  
DOCKED: USER    Estimated Free Energy of Binding    =   -9.53 kcal/mol  [=(1)+(2)+(3)-(4)]
DOCKED: USER    Estimated Inhibition Constant, Ki   =  103.12 nM (nanomolar)  [Temperature = 298.15 K]
DOCKED: USER    
DOCKED: USER    (1) Final Intermolecular Energy     =  -11.62 kcal/mol
DOCKED: USER        vdW + Hbond + desolv Energy     =  -11.62 kcal/mol
DOCKED: USER        Electrostatic Energy            =   +0.00 kcal/mol
DOCKED: USER    (2) Final Total Internal Energy     =   -1.42 kcal/mol
DOCKED: USER    (3) Torsional Free Energy           =   +2.09 kcal/mol
DOCKED: USER    (4) Unbound System's Energy  [=(2)] =   -1.42 kcal/mol
DOCKED: USER    
DOCKED: USER    
DOCKED: USER    NEWDPF move ligand.pdbqt
DOCKED: USER    NEWDPF about 1.179000 0.138000 -0.353000
DOCKED: USER    NEWDPF tran0 21.875042 -8.669333 -2.437557
DOCKED: USER    NEWDPF quaternion0 -0.470730 0.766093 -0.239598 0.366206
DOCKED: USER    NEWDPF axisangle0 -0.505871 0.823284 -0.257485 137.036299
DOCKED: USER    NEWDPF quat0 -0.505871 0.823284 -0.257485 137.036299
DOCKED: USER    NEWDPF dihe0 34.02 161.56 -120.66 179.98 97.79 143.83 -74.98 
DOCKED: USER  keepresnum = 1 
DOCKED: USER  
DOCKED: REMARK  Name = 
DOCKED: REMARK  11 active torsions:
DOCKED: REMARK  status: ('A' for Active; 'I' for Inactive)
DOCKED: REMARK    1  A    between atoms: C_1  and  N_2
DOCKED: REMARK    2  A    between atoms: N_2  and  C_3
DOCKED: REMARK    3  A    between atoms: N_2  and  C_22
DOCKED: REMARK    4  A    between atoms: C_6  and  C_9
DOCKED: REMARK    5  A    between atoms: C_9  and  C_10
DOCKED: REMARK    6  A    between atoms: C_10  and  C_11
DOCKED: REMARK    7  A    between atoms: C_10  and  C_20
DOCKED: REMARK    8  A    between atoms: C_12  and  C_13
DOCKED: REMARK    9  A    between atoms: C_12  and  C_19
DOCKED: REMARK   10  A    between atoms: C_14  and  C_15
DOCKED: REMARK   11  A    between atoms: N_16  and  O_17
DOCKED: REMARK                            x       y       z     vdW  Elec       q    Type
DOCKED: REMARK                         _______ _______ _______ _____ _____    ______ ____
DOCKED: USER                              x       y       z     vdW  Elec       q    Type
DOCKED: USER                           _______ _______ _______ _____ _____    ______ ____
DOCKED: ROOT
DOCKED: ATOM      1  C   UNL     1      21.768 -10.037  -3.780 -0.40 -0.00    +0.000 C 
DOCKED: ATOM      2  C   UNL     1      21.440 -11.193  -4.730 -0.54 -0.00    +0.000 C 
DOCKED: ENDROOT
DOCKED: BRANCH   1   3
DOCKED: ATOM      3  C   UNL     1      21.297 -10.355  -2.376 -0.57 -0.00    +0.000 C 
DOCKED: ATOM      4  C   UNL     1      20.026 -10.666  -2.049 -0.47 -0.00    +0.000 C 
DOCKED: ATOM      5  C   UNL     1      18.924 -10.711  -3.086 -0.37 -0.00    +0.000 C 
DOCKED: BRANCH   4   6
DOCKED: ATOM      6  C   UNL     1      19.716 -10.906  -0.615 -0.55 -0.00    +0.000 C 
DOCKED: ATOM      7  C   UNL     1      20.642 -11.272   0.284 -0.62 -0.00    +0.000 C 
DOCKED: BRANCH   7   8
DOCKED: ATOM      8  C   UNL     1      20.340 -11.512   1.710 -0.77 -0.00    +0.000 C 
DOCKED: ATOM      9  N   UNL     1      20.656 -10.559   2.733 -0.60 -0.00    +0.000 N 
DOCKED: ATOM     10  O   UNL     1      19.762 -12.586   2.028 -1.58 -0.00    +0.000 OA
DOCKED: ATOM     11  H   UNL     1      21.013  -9.675   2.486 -0.57 -0.00    +0.000 HD
DOCKED: BRANCH   9  12
DOCKED: ATOM     12  O   UNL     1      20.463 -10.870   4.036 -0.80 -0.00    +0.000 OA
DOCKED: ATOM     13  H   UNL     1      20.638 -11.814   4.174 -0.47 -0.00    +0.000 HD
DOCKED: ENDBRANCH   9  12
DOCKED: ENDBRANCH   7   8
DOCKED: ENDBRANCH   4   6
DOCKED: ENDBRANCH   1   3
DOCKED: BRANCH   1  14
DOCKED: ATOM     14  C   UNL     1      21.115  -8.767  -4.284 -0.35 -0.00    +0.000 C 
DOCKED: ATOM     15  O   UNL     1      20.373  -8.829  -5.303 -0.20 -0.00    +0.000 OA
DOCKED: BRANCH  14  19
DOCKED: ATOM     16  C   UNL     1      21.731  -4.953  -2.341 -0.35 -0.00    +0.000 A 
DOCKED: ATOM     17  C   UNL     1      21.182  -6.048  -1.645 -0.35 +0.00    +0.000 A 
DOCKED: ATOM     18  C   UNL     1      20.983  -7.275  -2.282 -0.37 -0.00    +0.000 A 
DOCKED: ATOM     19  C   UNL     1      21.333  -7.450  -3.631 -0.32 -0.00    +0.000 A 
DOCKED: ATOM     20  C   UNL     1      21.873  -6.359  -4.334 -0.20 -0.00    +0.000 A 
DOCKED: ATOM     21  C   UNL     1      22.070  -5.129  -3.698 -0.21 -0.00    +0.000 A 
DOCKED: BRANCH  16  23
DOCKED: ATOM     22  C   UNL     1      20.952  -3.165  -0.721 -0.40 -0.00    +0.000 C 
DOCKED: ATOM     23  N   UNL     1      21.938  -3.676  -1.681 -0.30 +0.00    +0.000 N 
DOCKED: ATOM     24  C   UNL     1      23.134  -2.874  -1.963 -0.25 -0.00    +0.000 C 
DOCKED: ENDBRANCH  16  23
DOCKED: ENDBRANCH  14  19
DOCKED: ENDBRANCH   1  14
DOCKED: TORSDOF 7
DOCKED: TER
DOCKED: ENDMDL
________________________________________________________________________________


	BEGINNING GENETIC ALGORITHM DOCKING 22 of 100
Run: 22 Seed: 798672678 1865176983 [ Run 22 of 100 GA/GALS ]
Beginning LAMARCKIAN GENETIC ALGORITHM (LGA), with a maximum of 2500000 energy evaluations.

Final-Value: -12.000


	FINAL GENETIC ALGORITHM DOCKED STATE
	_______________________________________________


Detailed state:  trans 14.877 -8.454 2.110 quatxyzw 0.622942 -0.122069 -0.205976 -0.744725 center 1.179 0.138 -0.353 ntor 7 12.5049 178.8765 -178.5138 75.8955 -138.0240 -110.0950 -93.1635
State:	 14.877  -8.454   2.110   0.933 -0.183 -0.309 -83.729     12.50  178.88 -178.51   75.90 -138.02 -110.09  -93.16

DOCKED: MODEL       22
DOCKED: USER    Run = 22
DOCKED: USER    DPF = ligand_dock.biased.dpf
DOCKED: USER  
DOCKED: USER    Estimated Free Energy of Binding    =   -8.55 kcal/mol  [=(1)+(2)+(3)-(4)]
DOCKED: USER    Estimated Inhibition Constant, Ki   =  542.51 nM (nanomolar)  [Temperature = 298.15 K]
DOCKED: USER    
DOCKED: USER    (1) Final Intermolecular Energy     =  -10.64 kcal/mol
DOCKED: USER        vdW + Hbond + desolv Energy     =  -10.64 kcal/mol
DOCKED: USER        Electrostatic Energy            =   +0.00 kcal/mol
DOCKED: USER    (2) Final Total Internal Energy     =   -1.36 kcal/mol
DOCKED: USER    (3) Torsional Free Energy           =   +2.09 kcal/mol
DOCKED: USER    (4) Unbound System's Energy  [=(2)] =   -1.36 kcal/mol
DOCKED: USER    
DOCKED: USER    
DOCKED: USER    NEWDPF move ligand.pdbqt
DOCKED: USER    NEWDPF about 1.179000 0.138000 -0.353000
DOCKED: USER    NEWDPF tran0 14.876548 -8.453680 2.110113
DOCKED: USER    NEWDPF quaternion0 0.622942 -0.122069 -0.205976 -0.744725
DOCKED: USER    NEWDPF axisangle0 0.933427 -0.182911 -0.308638 -83.728987
DOCKED: USER    NEWDPF quat0 0.933427 -0.182911 -0.308638 -83.728987
DOCKED: USER    NEWDPF dihe0 12.50 178.88 -178.51 75.90 -138.02 -110.09 -93.16 
DOCKED: USER  keepresnum = 1 
DOCKED: USER  
DOCKED: REMARK  Name = 
DOCKED: REMARK  11 active torsions:
DOCKED: REMARK  status: ('A' for Active; 'I' for Inactive)
DOCKED: REMARK    1  A    between atoms: C_1  and  N_2
DOCKED: REMARK    2  A    between atoms: N_2  and  C_3
DOCKED: REMARK    3  A    between atoms: N_2  and  C_22
DOCKED: REMARK    4  A    between atoms: C_6  and  C_9
DOCKED: REMARK    5  A    between atoms: C_9  and  C_10
DOCKED: REMARK    6  A    between atoms: C_10  and  C_11
DOCKED: REMARK    7  A    between atoms: C_10  and  C_20
DOCKED: REMARK    8  A    between atoms: C_12  and  C_13
DOCKED: REMARK    9  A    between atoms: C_12  and  C_19
DOCKED: REMARK   10  A    between atoms: C_14  and  C_15
DOCKED: REMARK   11  A    between atoms: N_16  and  O_17
DOCKED: REMARK                            x       y       z     vdW  Elec       q    Type
DOCKED: REMARK                         _______ _______ _______ _____ _____    ______ ____
DOCKED: USER                              x       y       z     vdW  Elec       q    Type
DOCKED: USER                           _______ _______ _______ _____ _____    ______ ____
DOCKED: ROOT
DOCKED: ATOM      1  C   UNL     1      13.750 -10.005   2.020 -0.28 +0.00    +0.000 C 
DOCKED: ATOM      2  C   UNL     1      13.035 -11.356   2.125 -0.36 +0.00    +0.000 C 
DOCKED: ENDROOT
DOCKED: BRANCH   1   3
DOCKED: ATOM      3  C   UNL     1      15.252 -10.196   2.065 -0.36 +0.00    +0.000 C 
DOCKED: ATOM      4  C   UNL     1      15.932 -11.082   1.309 -0.40 +0.00    +0.000 C 
DOCKED: ATOM      5  C   UNL     1      15.229 -12.000   0.332 -0.48 +0.00    +0.000 C 
DOCKED: BRANCH   4   6
DOCKED: ATOM      6  C   UNL     1      17.402 -11.181   1.507 -0.47 +0.00    +0.000 C 
DOCKED: ATOM      7  C   UNL     1      18.285 -11.083   0.503 -0.49 -0.00    +0.000 C 
DOCKED: BRANCH   7   8
DOCKED: ATOM      8  C   UNL     1      19.747 -11.182   0.693 -0.66 -0.00    +0.000 C 
DOCKED: ATOM      9  N   UNL     1      20.683 -10.684  -0.271 -0.61 -0.00    +0.000 N 
DOCKED: ATOM     10  O   UNL     1      20.179 -11.704   1.756 -1.55 -0.00    +0.000 OA
DOCKED: ATOM     11  H   UNL     1      20.359 -10.183  -1.055 -0.02 -0.00    +0.000 HD
DOCKED: BRANCH   9  12
DOCKED: ATOM     12  O   UNL     1      22.009 -10.897  -0.106 -0.70 -0.00    +0.000 OA
DOCKED: ATOM     13  H   UNL     1      22.147 -11.559   0.589 -0.56 -0.00    +0.000 HD
DOCKED: ENDBRANCH   9  12
DOCKED: ENDBRANCH   7   8
DOCKED: ENDBRANCH   4   6
DOCKED: ENDBRANCH   1   3
DOCKED: BRANCH   1  14
DOCKED: ATOM     14  C   UNL     1      13.295  -9.102   3.148 -0.26 +0.00    +0.000 C 
DOCKED: ATOM     15  O   UNL     1      12.265  -9.422   3.803 -0.22 +0.00    +0.000 OA
DOCKED: BRANCH  14  19
DOCKED: ATOM     16  C   UNL     1      15.363  -5.429   4.114 -0.32 +0.00    +0.000 A 
DOCKED: ATOM     17  C   UNL     1      14.712  -5.598   2.875 -0.23 +0.00    +0.000 A 
DOCKED: ATOM     18  C   UNL     1      14.050  -6.790   2.571 -0.20 +0.00    +0.000 A 
DOCKED: ATOM     19  C   UNL     1      14.010  -7.846   3.495 -0.23 +0.00    +0.000 A 
DOCKED: ATOM     20  C   UNL     1      14.665  -7.687   4.729 -0.37 +0.00    +0.000 A 
DOCKED: ATOM     21  C   UNL     1      15.330  -6.496   5.034 -0.41 +0.00    +0.000 A 
DOCKED: BRANCH  16  23
DOCKED: ATOM     22  C   UNL     1      16.500  -3.291   3.362 -0.44 -0.00    +0.000 C 
DOCKED: ATOM     23  N   UNL     1      16.052  -4.191   4.432 -0.46 -0.00    +0.000 N 
DOCKED: ATOM     24  C   UNL     1      16.316  -3.820   5.827 -0.54 -0.00    +0.000 C 
DOCKED: ENDBRANCH  16  23
DOCKED: ENDBRANCH  14  19
DOCKED: ENDBRANCH   1  14
DOCKED: TORSDOF 7
DOCKED: TER
DOCKED: ENDMDL
________________________________________________________________________________


	BEGINNING GENETIC ALGORITHM DOCKING 23 of 100
Run: 23 Seed: 616969985 1046233079 [ Run 23 of 100 GA/GALS ]
Beginning LAMARCKIAN GENETIC ALGORITHM (LGA), with a maximum of 2500000 energy evaluations.

Final-Value: -13.068


	FINAL GENETIC ALGORITHM DOCKED STATE
	_______________________________________________


Detailed state:  trans 19.645 -9.550 -3.038 quatxyzw 0.786910 -0.335060 0.467195 -0.224133 center 1.179 0.138 -0.353 ntor 7 8.5167 -5.5835 28.1666 142.0855 -77.5999 -25.2914 -96.7539
State:	 19.645  -9.550  -3.038   0.807 -0.344  0.479 -154.096      8.52   -5.58   28.17  142.09  -77.60  -25.29  -96.75

DOCKED: MODEL       23
DOCKED: USER    Run = 23
DOCKED: USER    DPF = ligand_dock.biased.dpf
DOCKED: USER  
DOCKED: USER    Estimated Free Energy of Binding    =   -9.17 kcal/mol  [=(1)+(2)+(3)-(4)]
DOCKED: USER    Estimated Inhibition Constant, Ki   =  189.63 nM (nanomolar)  [Temperature = 298.15 K]
DOCKED: USER    
DOCKED: USER    (1) Final Intermolecular Energy     =  -11.26 kcal/mol
DOCKED: USER        vdW + Hbond + desolv Energy     =  -11.26 kcal/mol
DOCKED: USER        Electrostatic Energy            =   +0.00 kcal/mol
DOCKED: USER    (2) Final Total Internal Energy     =   -1.81 kcal/mol
DOCKED: USER    (3) Torsional Free Energy           =   +2.09 kcal/mol
DOCKED: USER    (4) Unbound System's Energy  [=(2)] =   -1.81 kcal/mol
DOCKED: USER    
DOCKED: USER    
DOCKED: USER    NEWDPF move ligand.pdbqt
DOCKED: USER    NEWDPF about 1.179000 0.138000 -0.353000
DOCKED: USER    NEWDPF tran0 19.645468 -9.550047 -3.037665
DOCKED: USER    NEWDPF quaternion0 0.786910 -0.335060 0.467195 -0.224133
DOCKED: USER    NEWDPF axisangle0 0.807453 -0.343807 0.479391 -154.096194
DOCKED: USER    NEWDPF quat0 0.807453 -0.343807 0.479391 -154.096194
DOCKED: USER    NEWDPF dihe0 8.52 -5.58 28.17 142.09 -77.60 -25.29 -96.75 
DOCKED: USER  keepresnum = 1 
DOCKED: USER  
DOCKED: REMARK  Name = 
DOCKED: REMARK  11 active torsions:
DOCKED: REMARK  status: ('A' for Active; 'I' for Inactive)
DOCKED: REMARK    1  A    between atoms: C_1  and  N_2
DOCKED: REMARK    2  A    between atoms: N_2  and  C_3
DOCKED: REMARK    3  A    between atoms: N_2  and  C_22
DOCKED: REMARK    4  A    between atoms: C_6  and  C_9
DOCKED: REMARK    5  A    between atoms: C_9  and  C_10
DOCKED: REMARK    6  A    between atoms: C_10  and  C_11
DOCKED: REMARK    7  A    between atoms: C_10  and  C_20
DOCKED: REMARK    8  A    between atoms: C_12  and  C_13
DOCKED: REMARK    9  A    between atoms: C_12  and  C_19
DOCKED: REMARK   10  A    between atoms: C_14  and  C_15
DOCKED: REMARK   11  A    between atoms: N_16  and  O_17
DOCKED: REMARK                            x       y       z     vdW  Elec       q    Type
DOCKED: REMARK                         _______ _______ _______ _____ _____    ______ ____
DOCKED: USER                              x       y       z     vdW  Elec       q    Type
DOCKED: USER                           _______ _______ _______ _____ _____    ______ ____
DOCKED: ROOT
DOCKED: ATOM      1  C   UNL     1      20.978 -10.362  -4.155 -0.48 -0.00    +0.000 C 
DOCKED: ATOM      2  C   UNL     1      22.004 -11.235  -4.884 -0.45 -0.00    +0.000 C 
DOCKED: ENDROOT
DOCKED: BRANCH   1   3
DOCKED: ATOM      3  C   UNL     1      20.992 -10.660  -2.670 -0.50 -0.00    +0.000 C 
DOCKED: ATOM      4  C   UNL     1      20.997  -9.720  -1.702 -0.61 -0.00    +0.000 C 
DOCKED: ATOM      5  C   UNL     1      21.008  -8.242  -2.029 -0.48 -0.00    +0.000 C 
DOCKED: BRANCH   4   6
DOCKED: ATOM      6  C   UNL     1      21.059 -10.176  -0.289 -0.70 -0.00    +0.000 C 
DOCKED: ATOM      7  C   UNL     1      20.116 -10.946   0.274 -0.65 -0.00    +0.000 C 
DOCKED: BRANCH   7   8
DOCKED: ATOM      8  C   UNL     1      20.172 -11.402   1.679 -0.76 -0.00    +0.000 C 
DOCKED: ATOM      9  N   UNL     1      20.491 -10.519   2.761 -0.63 -0.00    +0.000 N 
DOCKED: ATOM     10  O   UNL     1      19.904 -12.609   1.928 -1.62 -0.00    +0.000 OA
DOCKED: ATOM     11  H   UNL     1      20.601  -9.555   2.591 -0.53 -0.00    +0.000 HD
DOCKED: BRANCH   9  12
DOCKED: ATOM     12  O   UNL     1      20.640 -11.006   4.016 -0.76 -0.00    +0.000 OA
DOCKED: ATOM     13  H   UNL     1      20.633 -11.975   3.990 -0.52 -0.00    +0.000 HD
DOCKED: ENDBRANCH   9  12
DOCKED: ENDBRANCH   7   8
DOCKED: ENDBRANCH   4   6
DOCKED: ENDBRANCH   1   3
DOCKED: BRANCH   1  14
DOCKED: ATOM     14  C   UNL     1      19.601 -10.609  -4.733 -0.40 -0.00    +0.000 C 
DOCKED: ATOM     15  O   UNL     1      19.508 -11.155  -5.867 -0.42 -0.00    +0.000 OA
DOCKED: BRANCH  14  19
DOCKED: ATOM     16  C   UNL     1      15.972  -9.428  -2.699 -0.17 -0.00    +0.000 A 
DOCKED: ATOM     17  C   UNL     1      16.245  -9.003  -4.015 -0.17 -0.00    +0.000 A 
DOCKED: ATOM     18  C   UNL     1      17.421  -9.387  -4.662 -0.19 -0.00    +0.000 A 
DOCKED: ATOM     19  C   UNL     1      18.359 -10.212  -4.020 -0.27 -0.00    +0.000 A 
DOCKED: ATOM     20  C   UNL     1      18.097 -10.632  -2.705 -0.15 -0.00    +0.000 A 
DOCKED: ATOM     21  C   UNL     1      16.921 -10.247  -2.054 -0.16 -0.00    +0.000 A 
DOCKED: BRANCH  16  23
DOCKED: ATOM     22  C   UNL     1      14.182  -9.861  -0.955 -0.25 -0.00    +0.000 C 
DOCKED: ATOM     23  N   UNL     1      14.750  -9.030  -2.024 -0.20 -0.00    +0.000 N 
DOCKED: ATOM     24  C   UNL     1      14.059  -7.790  -2.400 -0.18 -0.00    +0.000 C 
DOCKED: ENDBRANCH  16  23
DOCKED: ENDBRANCH  14  19
DOCKED: ENDBRANCH   1  14
DOCKED: TORSDOF 7
DOCKED: TER
DOCKED: ENDMDL
________________________________________________________________________________


	BEGINNING GENETIC ALGORITHM DOCKING 24 of 100
Run: 24 Seed: 46441772 215304016 [ Run 24 of 100 GA/GALS ]
Beginning LAMARCKIAN GENETIC ALGORITHM (LGA), with a maximum of 2500000 energy evaluations.

Final-Value: -12.665


	FINAL GENETIC ALGORITHM DOCKED STATE
	_______________________________________________


Detailed state:  trans 22.979 -6.907 -2.315 quatxyzw 0.213822 -0.763624 -0.343054 -0.503460 center 1.179 0.138 -0.353 ntor 7 29.4822 108.3870 -50.4028 -35.8340 -38.4567 -69.4958 167.8025
State:	 22.979  -6.907  -2.315   0.247 -0.884 -0.397 -119.542     29.48  108.39  -50.40  -35.83  -38.46  -69.50  167.80

DOCKED: MODEL       24
DOCKED: USER    Run = 24
DOCKED: USER    DPF = ligand_dock.biased.dpf
DOCKED: USER  
DOCKED: USER    Estimated Free Energy of Binding    =   -9.16 kcal/mol  [=(1)+(2)+(3)-(4)]
DOCKED: USER    Estimated Inhibition Constant, Ki   =  193.06 nM (nanomolar)  [Temperature = 298.15 K]
DOCKED: USER    
DOCKED: USER    (1) Final Intermolecular Energy     =  -11.25 kcal/mol
DOCKED: USER        vdW + Hbond + desolv Energy     =  -11.25 kcal/mol
DOCKED: USER        Electrostatic Energy            =   +0.00 kcal/mol
DOCKED: USER    (2) Final Total Internal Energy     =   -1.42 kcal/mol
DOCKED: USER    (3) Torsional Free Energy           =   +2.09 kcal/mol
DOCKED: USER    (4) Unbound System's Energy  [=(2)] =   -1.42 kcal/mol
DOCKED: USER    
DOCKED: USER    
DOCKED: USER    NEWDPF move ligand.pdbqt
DOCKED: USER    NEWDPF about 1.179000 0.138000 -0.353000
DOCKED: USER    NEWDPF tran0 22.978555 -6.906586 -2.315392
DOCKED: USER    NEWDPF quaternion0 0.213822 -0.763624 -0.343054 -0.503460
DOCKED: USER    NEWDPF axisangle0 0.247474 -0.883806 -0.397045 -119.541673
DOCKED: USER    NEWDPF quat0 0.247474 -0.883806 -0.397045 -119.541673
DOCKED: USER    NEWDPF dihe0 29.48 108.39 -50.40 -35.83 -38.46 -69.50 167.80 
DOCKED: USER  keepresnum = 1 
DOCKED: USER  
DOCKED: REMARK  Name = 
DOCKED: REMARK  11 active torsions:
DOCKED: REMARK  status: ('A' for Active; 'I' for Inactive)
DOCKED: REMARK    1  A    between atoms: C_1  and  N_2
DOCKED: REMARK    2  A    between atoms: N_2  and  C_3
DOCKED: REMARK    3  A    between atoms: N_2  and  C_22
DOCKED: REMARK    4  A    between atoms: C_6  and  C_9
DOCKED: REMARK    5  A    between atoms: C_9  and  C_10
DOCKED: REMARK    6  A    between atoms: C_10  and  C_11
DOCKED: REMARK    7  A    between atoms: C_10  and  C_20
DOCKED: REMARK    8  A    between atoms: C_12  and  C_13
DOCKED: REMARK    9  A    between atoms: C_12  and  C_19
DOCKED: REMARK   10  A    between atoms: C_14  and  C_15
DOCKED: REMARK   11  A    between atoms: N_16  and  O_17
DOCKED: REMARK                            x       y       z     vdW  Elec       q    Type
DOCKED: REMARK                         _______ _______ _______ _____ _____    ______ ____
DOCKED: USER                              x       y       z     vdW  Elec       q    Type
DOCKED: USER                           _______ _______ _______ _____ _____    ______ ____
DOCKED: ROOT
DOCKED: ATOM      1  C   UNL     1      21.399  -6.474  -3.316 -0.36 -0.00    +0.000 C 
DOCKED: ATOM      2  C   UNL     1      20.013  -6.123  -3.865 -0.20 -0.00    +0.000 C 
DOCKED: ENDROOT
DOCKED: BRANCH   1   3
DOCKED: ATOM      3  C   UNL     1      21.277  -7.404  -2.127 -0.47 -0.00    +0.000 C 
DOCKED: ATOM      4  C   UNL     1      21.262  -8.750  -2.209 -0.51 -0.00    +0.000 C 
DOCKED: ATOM      5  C   UNL     1      21.353  -9.468  -3.539 -0.46 -0.00    +0.000 C 
DOCKED: BRANCH   4   6
DOCKED: ATOM      6  C   UNL     1      21.087  -9.522  -0.951 -0.65 -0.00    +0.000 C 
DOCKED: ATOM      7  C   UNL     1      20.075 -10.379  -0.751 -0.57 -0.00    +0.000 C 
DOCKED: BRANCH   7   8
DOCKED: ATOM      8  C   UNL     1      19.895 -11.148   0.497 -0.66 -0.00    +0.000 C 
DOCKED: ATOM      9  N   UNL     1      21.003 -11.598   1.288 -0.70 -0.00    +0.000 N 
DOCKED: ATOM     10  O   UNL     1      18.722 -11.394   0.887 -0.68 -0.00    +0.000 OA
DOCKED: ATOM     11  H   UNL     1      21.918 -11.325   1.050 -0.51 -0.00    +0.000 HD
DOCKED: BRANCH   9  12
DOCKED: ATOM     12  O   UNL     1      20.793 -12.394   2.362 -1.19 -0.00    +0.000 OA
DOCKED: ATOM     13  H   UNL     1      20.000 -12.933   2.217 -0.41 -0.00    +0.000 HD
DOCKED: ENDBRANCH   9  12
DOCKED: ENDBRANCH   7   8
DOCKED: ENDBRANCH   4   6
DOCKED: ENDBRANCH   1   3
DOCKED: BRANCH   1  14
DOCKED: ATOM     14  C   UNL     1      22.125  -5.204  -2.924 -0.33 -0.00    +0.000 C 
DOCKED: ATOM     15  O   UNL     1      23.151  -4.866  -3.577 -0.23 -0.00    +0.000 OA
DOCKED: BRANCH  14  19
DOCKED: ATOM     16  C   UNL     1      20.878  -2.711   0.383 -0.40 +0.00    +0.000 A 
DOCKED: ATOM     17  C   UNL     1      22.159  -2.579  -0.191 -0.30 +0.00    +0.000 A 
DOCKED: ATOM     18  C   UNL     1      22.554  -3.391  -1.257 -0.26 +0.00    +0.000 A 
DOCKED: ATOM     19  C   UNL     1      21.681  -4.355  -1.788 -0.36 +0.00    +0.000 A 
DOCKED: ATOM     20  C   UNL     1      20.406  -4.498  -1.214 -0.36 -0.00    +0.000 A 
DOCKED: ATOM     21  C   UNL     1      20.010  -3.688  -0.145 -0.23 +0.00    +0.000 A 
DOCKED: BRANCH  16  23
DOCKED: ATOM     22  C   UNL     1      20.669  -2.307   2.877 -0.73 -0.00    +0.000 C 
DOCKED: ATOM     23  N   UNL     1      20.467  -1.868   1.491 -0.42 -0.00    +0.000 N 
DOCKED: ATOM     24  C   UNL     1      19.840  -0.564   1.245 -0.27 -0.00    +0.000 C 
DOCKED: ENDBRANCH  16  23
DOCKED: ENDBRANCH  14  19
DOCKED: ENDBRANCH   1  14
DOCKED: TORSDOF 7
DOCKED: TER
DOCKED: ENDMDL
________________________________________________________________________________


	BEGINNING GENETIC ALGORITHM DOCKING 25 of 100
Run: 25 Seed: 234556891 122281370 [ Run 25 of 100 GA/GALS ]
Beginning LAMARCKIAN GENETIC ALGORITHM (LGA), with a maximum of 2500000 energy evaluations.

Final-Value: -12.809


	FINAL GENETIC ALGORITHM DOCKED STATE
	_______________________________________________


Detailed state:  trans 19.050 -11.045 -3.297 quatxyzw 0.733878 0.128910 0.610979 0.267414 center 1.179 0.138 -0.353 ntor 7 -1.3085 175.4950 -179.0494 -95.1327 91.3510 -10.4421 -9.8058
State:	 19.050 -11.045  -3.297   0.762  0.134  0.634 148.979     -1.31  175.50 -179.05  -95.13   91.35  -10.44   -9.81

DOCKED: MODEL       25
DOCKED: USER    Run = 25
DOCKED: USER    DPF = ligand_dock.biased.dpf
DOCKED: USER  
DOCKED: USER    Estimated Free Energy of Binding    =   -9.02 kcal/mol  [=(1)+(2)+(3)-(4)]
DOCKED: USER    Estimated Inhibition Constant, Ki   =  245.95 nM (nanomolar)  [Temperature = 298.15 K]
DOCKED: USER    
DOCKED: USER    (1) Final Intermolecular Energy     =  -11.10 kcal/mol
DOCKED: USER        vdW + Hbond + desolv Energy     =  -11.10 kcal/mol
DOCKED: USER        Electrostatic Energy            =   +0.00 kcal/mol
DOCKED: USER    (2) Final Total Internal Energy     =   -1.70 kcal/mol
DOCKED: USER    (3) Torsional Free Energy           =   +2.09 kcal/mol
DOCKED: USER    (4) Unbound System's Energy  [=(2)] =   -1.70 kcal/mol
DOCKED: USER    
DOCKED: USER    
DOCKED: USER    NEWDPF move ligand.pdbqt
DOCKED: USER    NEWDPF about 1.179000 0.138000 -0.353000
DOCKED: USER    NEWDPF tran0 19.050439 -11.045380 -3.297458
DOCKED: USER    NEWDPF quaternion0 0.733878 0.128910 0.610979 0.267414
DOCKED: USER    NEWDPF axisangle0 0.761614 0.133782 0.634071 148.979087
DOCKED: USER    NEWDPF quat0 0.761614 0.133782 0.634071 148.979087
DOCKED: USER    NEWDPF dihe0 -1.31 175.50 -179.05 -95.13 91.35 -10.44 -9.81 
DOCKED: USER  keepresnum = 1 
DOCKED: USER  
DOCKED: REMARK  Name = 
DOCKED: REMARK  11 active torsions:
DOCKED: REMARK  status: ('A' for Active; 'I' for Inactive)
DOCKED: REMARK    1  A    between atoms: C_1  and  N_2
DOCKED: REMARK    2  A    between atoms: N_2  and  C_3
DOCKED: REMARK    3  A    between atoms: N_2  and  C_22
DOCKED: REMARK    4  A    between atoms: C_6  and  C_9
DOCKED: REMARK    5  A    between atoms: C_9  and  C_10
DOCKED: REMARK    6  A    between atoms: C_10  and  C_11
DOCKED: REMARK    7  A    between atoms: C_10  and  C_20
DOCKED: REMARK    8  A    between atoms: C_12  and  C_13
DOCKED: REMARK    9  A    between atoms: C_12  and  C_19
DOCKED: REMARK   10  A    between atoms: C_14  and  C_15
DOCKED: REMARK   11  A    between atoms: N_16  and  O_17
DOCKED: REMARK                            x       y       z     vdW  Elec       q    Type
DOCKED: REMARK                         _______ _______ _______ _____ _____    ______ ____
DOCKED: USER                              x       y       z     vdW  Elec       q    Type
DOCKED: USER                           _______ _______ _______ _____ _____    ______ ____
DOCKED: ROOT
DOCKED: ATOM      1  C   UNL     1      20.264  -9.602  -3.657 -0.40 -0.00    +0.000 C 
DOCKED: ATOM      2  C   UNL     1      21.416  -8.602  -3.799 -0.39 -0.00    +0.000 C 
DOCKED: ENDROOT
DOCKED: BRANCH   1   3
DOCKED: ATOM      3  C   UNL     1      20.305 -10.268  -2.297 -0.52 -0.00    +0.000 C 
DOCKED: ATOM      4  C   UNL     1      19.218 -10.697  -1.624 -0.44 -0.00    +0.000 C 
DOCKED: ATOM      5  C   UNL     1      17.820 -10.530  -2.179 -0.27 -0.00    +0.000 C 
DOCKED: BRANCH   4   6
DOCKED: ATOM      6  C   UNL     1      19.424 -11.287  -0.275 -0.55 -0.00    +0.000 C 
DOCKED: ATOM      7  C   UNL     1      19.950 -10.603   0.752 -0.64 -0.00    +0.000 C 
DOCKED: BRANCH   7   8
DOCKED: ATOM      8  C   UNL     1      20.158 -11.184   2.094 -0.75 -0.00    +0.000 C 
DOCKED: ATOM      9  N   UNL     1      20.336 -10.374   3.263 -0.63 -0.00    +0.000 N 
DOCKED: ATOM     10  O   UNL     1      20.153 -12.439   2.211 -1.58 -0.00    +0.000 OA
DOCKED: ATOM     11  H   UNL     1      20.240  -9.396   3.201 -0.58 -0.00    +0.000 HD
DOCKED: BRANCH   9  12
DOCKED: ATOM     12  O   UNL     1      20.635 -10.949   4.451 -0.67 -0.00    +0.000 OA
DOCKED: ATOM     13  H   UNL     1      20.673 -11.913   4.344 -0.47 -0.00    +0.000 HD
DOCKED: ENDBRANCH   9  12
DOCKED: ENDBRANCH   7   8
DOCKED: ENDBRANCH   4   6
DOCKED: ENDBRANCH   1   3
DOCKED: BRANCH   1  14
DOCKED: ATOM     14  C   UNL     1      20.353 -10.638  -4.758 -0.45 -0.00    +0.000 C 
DOCKED: ATOM     15  O   UNL     1      21.304 -11.468  -4.735 -0.59 -0.00    +0.000 OA
DOCKED: BRANCH  14  19
DOCKED: ATOM     16  C   UNL     1      17.462 -10.823  -7.970 -0.26 -0.00    +0.000 A 
DOCKED: ATOM     17  C   UNL     1      17.092 -11.086  -6.635 -0.31 -0.00    +0.000 A 
DOCKED: ATOM     18  C   UNL     1      18.034 -11.026  -5.605 -0.31 -0.00    +0.000 A 
DOCKED: ATOM     19  C   UNL     1      19.372 -10.697  -5.873 -0.32 -0.00    +0.000 A 
DOCKED: ATOM     20  C   UNL     1      19.750 -10.444  -7.203 -0.26 -0.00    +0.000 A 
DOCKED: ATOM     21  C   UNL     1      18.809 -10.504  -8.235 -0.19 -0.00    +0.000 A 
DOCKED: BRANCH  16  23
DOCKED: ATOM     22  C   UNL     1      15.279 -11.710  -8.905 -0.22 -0.00    +0.000 C 
DOCKED: ATOM     23  N   UNL     1      16.485 -10.884  -9.041 -0.18 -0.00    +0.000 N 
DOCKED: ATOM     24  C   UNL     1      16.686 -10.124 -10.280 -0.13 -0.00    +0.000 C 
DOCKED: ENDBRANCH  16  23
DOCKED: ENDBRANCH  14  19
DOCKED: ENDBRANCH   1  14
DOCKED: TORSDOF 7
DOCKED: TER
DOCKED: ENDMDL
________________________________________________________________________________


	BEGINNING GENETIC ALGORITHM DOCKING 26 of 100
Run: 26 Seed: 1916163291 1166369354 [ Run 26 of 100 GA/GALS ]
Beginning LAMARCKIAN GENETIC ALGORITHM (LGA), with a maximum of 2500000 energy evaluations.

Final-Value: -12.774


	FINAL GENETIC ALGORITHM DOCKED STATE
	_______________________________________________


Detailed state:  trans 15.123 -10.254 2.399 quatxyzw 0.396859 0.715334 -0.357267 0.450734 center 1.179 0.138 -0.353 ntor 7 -8.4222 -140.2218 -121.7888 15.9300 173.8537 -29.2550 -69.8484
State:	 15.123 -10.254   2.399   0.445  0.801 -0.400 126.418     -8.42 -140.22 -121.79   15.93  173.85  -29.25  -69.85

DOCKED: MODEL       26
DOCKED: USER    Run = 26
DOCKED: USER    DPF = ligand_dock.biased.dpf
DOCKED: USER  
DOCKED: USER    Estimated Free Energy of Binding    =   -8.97 kcal/mol  [=(1)+(2)+(3)-(4)]
DOCKED: USER    Estimated Inhibition Constant, Ki   =  268.21 nM (nanomolar)  [Temperature = 298.15 K]
DOCKED: USER    
DOCKED: USER    (1) Final Intermolecular Energy     =  -11.05 kcal/mol
DOCKED: USER        vdW + Hbond + desolv Energy     =  -11.05 kcal/mol
DOCKED: USER        Electrostatic Energy            =   +0.00 kcal/mol
DOCKED: USER    (2) Final Total Internal Energy     =   -1.72 kcal/mol
DOCKED: USER    (3) Torsional Free Energy           =   +2.09 kcal/mol
DOCKED: USER    (4) Unbound System's Energy  [=(2)] =   -1.72 kcal/mol
DOCKED: USER    
DOCKED: USER    
DOCKED: USER    NEWDPF move ligand.pdbqt
DOCKED: USER    NEWDPF about 1.179000 0.138000 -0.353000
DOCKED: USER    NEWDPF tran0 15.122908 -10.253636 2.398599
DOCKED: USER    NEWDPF quaternion0 0.396859 0.715334 -0.357267 0.450734
DOCKED: USER    NEWDPF axisangle0 0.444581 0.801352 -0.400229 126.418450
DOCKED: USER    NEWDPF quat0 0.444581 0.801352 -0.400229 126.418450
DOCKED: USER    NEWDPF dihe0 -8.42 -140.22 -121.79 15.93 173.85 -29.25 -69.85 
DOCKED: USER  keepresnum = 1 
DOCKED: USER  
DOCKED: REMARK  Name = 
DOCKED: REMARK  11 active torsions:
DOCKED: REMARK  status: ('A' for Active; 'I' for Inactive)
DOCKED: REMARK    1  A    between atoms: C_1  and  N_2
DOCKED: REMARK    2  A    between atoms: N_2  and  C_3
DOCKED: REMARK    3  A    between atoms: N_2  and  C_22
DOCKED: REMARK    4  A    between atoms: C_6  and  C_9
DOCKED: REMARK    5  A    between atoms: C_9  and  C_10
DOCKED: REMARK    6  A    between atoms: C_10  and  C_11
DOCKED: REMARK    7  A    between atoms: C_10  and  C_20
DOCKED: REMARK    8  A    between atoms: C_12  and  C_13
DOCKED: REMARK    9  A    between atoms: C_12  and  C_19
DOCKED: REMARK   10  A    between atoms: C_14  and  C_15
DOCKED: REMARK   11  A    between atoms: N_16  and  O_17
DOCKED: REMARK                            x       y       z     vdW  Elec       q    Type
DOCKED: REMARK                         _______ _______ _______ _____ _____    ______ ____
DOCKED: USER                              x       y       z     vdW  Elec       q    Type
DOCKED: USER                           _______ _______ _______ _____ _____    ______ ____
DOCKED: ROOT
DOCKED: ATOM      1  C   UNL     1      13.377 -10.989   2.091 -0.38 +0.00    +0.000 C 
DOCKED: ATOM      2  C   UNL     1      11.924 -11.325   1.740 -0.34 +0.00    +0.000 C 
DOCKED: ENDROOT
DOCKED: BRANCH   1   3
DOCKED: ATOM      3  C   UNL     1      13.492  -9.550   2.548 -0.26 +0.00    +0.000 C 
DOCKED: ATOM      4  C   UNL     1      14.118  -9.154   3.675 -0.35 +0.00    +0.000 C 
DOCKED: ATOM      5  C   UNL     1      14.765 -10.146   4.617 -0.44 +0.00    +0.000 C 
DOCKED: BRANCH   4   6
DOCKED: ATOM      6  C   UNL     1      14.100  -7.705   4.008 -0.32 +0.00    +0.000 C 
DOCKED: ATOM      7  C   UNL     1      14.563  -7.214   5.167 -0.46 +0.00    +0.000 C 
DOCKED: BRANCH   7   8
DOCKED: ATOM      8  C   UNL     1      14.549  -5.775   5.504 -0.47 +0.00    +0.000 C 
DOCKED: ATOM      9  N   UNL     1      15.728  -4.962   5.455 -0.49 +0.00    +0.000 N 
DOCKED: ATOM     10  O   UNL     1      13.450  -5.245   5.822 -0.92 +0.00    +0.000 OA
DOCKED: ATOM     11  H   UNL     1      16.570  -5.340   5.110 -0.63 -0.00    +0.000 HD
DOCKED: BRANCH   9  12
DOCKED: ATOM     12  O   UNL     1      15.688  -3.678   5.880 -0.64 +0.00    +0.000 OA
DOCKED: ATOM     13  H   UNL     1      14.770  -3.424   6.059 -0.23 +0.00    +0.000 HD
DOCKED: ENDBRANCH   9  12
DOCKED: ENDBRANCH   7   8
DOCKED: ENDBRANCH   4   6
DOCKED: ENDBRANCH   1   3
DOCKED: BRANCH   1  14
DOCKED: ATOM     14  C   UNL     1      14.260 -11.236   0.886 -0.39 +0.00    +0.000 C 
DOCKED: ATOM     15  O   UNL     1      13.714 -11.490  -0.224 -0.39 +0.00    +0.000 OA
DOCKED: BRANCH  14  19
DOCKED: ATOM     16  C   UNL     1      18.574 -11.157   1.182 -0.48 -0.00    +0.000 A 
DOCKED: ATOM     17  C   UNL     1      17.763 -11.273   2.330 -0.40 +0.00    +0.000 A 
DOCKED: ATOM     18  C   UNL     1      16.370 -11.294   2.224 -0.40 +0.00    +0.000 A 
DOCKED: ATOM     19  C   UNL     1      15.743 -11.208   0.971 -0.34 +0.00    +0.000 A 
DOCKED: ATOM     20  C   UNL     1      16.545 -11.082  -0.176 -0.32 +0.00    +0.000 A 
DOCKED: ATOM     21  C   UNL     1      17.939 -11.058  -0.072 -0.38 -0.00    +0.000 A 
DOCKED: BRANCH  16  23
DOCKED: ATOM     22  C   UNL     1      20.687 -11.643   2.496 -0.71 -0.00    +0.000 C 
DOCKED: ATOM     23  N   UNL     1      20.021 -11.134   1.290 -0.61 -0.00    +0.000 N 
DOCKED: ATOM     24  C   UNL     1      20.844 -10.600   0.198 -0.70 -0.00    +0.000 C 
DOCKED: ENDBRANCH  16  23
DOCKED: ENDBRANCH  14  19
DOCKED: ENDBRANCH   1  14
DOCKED: TORSDOF 7
DOCKED: TER
DOCKED: ENDMDL
________________________________________________________________________________


	BEGINNING GENETIC ALGORITHM DOCKING 27 of 100
Run: 27 Seed: 232599146 906886582 [ Run 27 of 100 GA/GALS ]
Beginning LAMARCKIAN GENETIC ALGORITHM (LGA), with a maximum of 2500000 energy evaluations.

Final-Value: -13.193


	FINAL GENETIC ALGORITHM DOCKED STATE
	_______________________________________________


Detailed state:  trans 20.327 -12.473 -3.610 quatxyzw -0.393994 -0.651769 -0.520163 -0.386518 center 1.179 0.138 -0.353 ntor 7 34.7731 12.1024 -140.9654 -25.4166 2.9510 148.0275 24.6347
State:	 20.327 -12.473  -3.610  -0.427 -0.707 -0.564 -134.524     34.77   12.10 -140.97  -25.42    2.95  148.03   24.63

DOCKED: MODEL       27
DOCKED: USER    Run = 27
DOCKED: USER    DPF = ligand_dock.biased.dpf
DOCKED: USER  
DOCKED: USER    Estimated Free Energy of Binding    =  -10.01 kcal/mol  [=(1)+(2)+(3)-(4)]
DOCKED: USER    Estimated Inhibition Constant, Ki   =   45.80 nM (nanomolar)  [Temperature = 298.15 K]
DOCKED: USER    
DOCKED: USER    (1) Final Intermolecular Energy     =  -12.10 kcal/mol
DOCKED: USER        vdW + Hbond + desolv Energy     =  -12.10 kcal/mol
DOCKED: USER        Electrostatic Energy            =   +0.00 kcal/mol
DOCKED: USER    (2) Final Total Internal Energy     =   -1.09 kcal/mol
DOCKED: USER    (3) Torsional Free Energy           =   +2.09 kcal/mol
DOCKED: USER    (4) Unbound System's Energy  [=(2)] =   -1.09 kcal/mol
DOCKED: USER    
DOCKED: USER    
DOCKED: USER    NEWDPF move ligand.pdbqt
DOCKED: USER    NEWDPF about 1.179000 0.138000 -0.353000
DOCKED: USER    NEWDPF tran0 20.327254 -12.472695 -3.610453
DOCKED: USER    NEWDPF quaternion0 -0.393994 -0.651769 -0.520163 -0.386518
DOCKED: USER    NEWDPF axisangle0 -0.427195 -0.706692 -0.563996 -134.523974
DOCKED: USER    NEWDPF quat0 -0.427195 -0.706692 -0.563996 -134.523974
DOCKED: USER    NEWDPF dihe0 34.77 12.10 -140.97 -25.42 2.95 148.03 24.63 
DOCKED: USER  keepresnum = 1 
DOCKED: USER  
DOCKED: REMARK  Name = 
DOCKED: REMARK  11 active torsions:
DOCKED: REMARK  status: ('A' for Active; 'I' for Inactive)
DOCKED: REMARK    1  A    between atoms: C_1  and  N_2
DOCKED: REMARK    2  A    between atoms: N_2  and  C_3
DOCKED: REMARK    3  A    between atoms: N_2  and  C_22
DOCKED: REMARK    4  A    between atoms: C_6  and  C_9
DOCKED: REMARK    5  A    between atoms: C_9  and  C_10
DOCKED: REMARK    6  A    between atoms: C_10  and  C_11
DOCKED: REMARK    7  A    between atoms: C_10  and  C_20
DOCKED: REMARK    8  A    between atoms: C_12  and  C_13
DOCKED: REMARK    9  A    between atoms: C_12  and  C_19
DOCKED: REMARK   10  A    between atoms: C_14  and  C_15
DOCKED: REMARK   11  A    between atoms: N_16  and  O_17
DOCKED: REMARK                            x       y       z     vdW  Elec       q    Type
DOCKED: REMARK                         _______ _______ _______ _____ _____    ______ ____
DOCKED: USER                              x       y       z     vdW  Elec       q    Type
DOCKED: USER                           _______ _______ _______ _____ _____    ______ ____
DOCKED: ROOT
DOCKED: ATOM      1  C   UNL     1      19.826 -10.769  -4.338 -0.45 -0.00    +0.000 C 
DOCKED: ATOM      2  C   UNL     1      19.512  -9.307  -4.674 -0.26 -0.00    +0.000 C 
DOCKED: ENDROOT
DOCKED: BRANCH   1   3
DOCKED: ATOM      3  C   UNL     1      19.548 -11.048  -2.876 -0.41 -0.00    +0.000 C 
DOCKED: ATOM      4  C   UNL     1      20.043 -10.322  -1.852 -0.51 -0.00    +0.000 C 
DOCKED: ATOM      5  C   UNL     1      20.960  -9.140  -2.084 -0.54 -0.00    +0.000 C 
DOCKED: BRANCH   4   6
DOCKED: ATOM      6  C   UNL     1      19.713 -10.756  -0.469 -0.56 -0.00    +0.000 C 
DOCKED: ATOM      7  C   UNL     1      20.635 -10.889   0.496 -0.71 -0.00    +0.000 C 
DOCKED: BRANCH   7   8
DOCKED: ATOM      8  C   UNL     1      20.314 -11.320   1.873 -0.76 -0.00    +0.000 C 
DOCKED: ATOM      9  N   UNL     1      20.640 -10.527   3.022 -0.63 -0.00    +0.000 N 
DOCKED: ATOM     10  O   UNL     1      19.711 -12.415   2.032 -1.64 -0.00    +0.000 OA
DOCKED: ATOM     11  H   UNL     1      21.017  -9.625   2.904 -0.60 -0.00    +0.000 HD
DOCKED: BRANCH   9  12
DOCKED: ATOM     12  O   UNL     1      20.428 -11.014   4.267 -0.73 -0.00    +0.000 OA
DOCKED: ATOM     13  H   UNL     1      20.593 -11.970   4.274 -0.45 -0.00    +0.000 HD
DOCKED: ENDBRANCH   9  12
DOCKED: ENDBRANCH   7   8
DOCKED: ENDBRANCH   4   6
DOCKED: ENDBRANCH   1   3
DOCKED: BRANCH   1  14
DOCKED: ATOM     14  C   UNL     1      21.273 -11.065  -4.669 -0.53 -0.00    +0.000 C 
DOCKED: ATOM     15  O   UNL     1      22.109 -11.136  -3.726 -0.53 -0.00    +0.000 OA
DOCKED: BRANCH  14  19
DOCKED: ATOM     16  C   UNL     1      22.683 -11.648  -8.716 -0.30 -0.00    +0.000 A 
DOCKED: ATOM     17  C   UNL     1      23.352 -12.224  -7.618 -0.43 -0.00    +0.000 A 
DOCKED: ATOM     18  C   UNL     1      22.891 -12.027  -6.314 -0.45 -0.00    +0.000 A 
DOCKED: ATOM     19  C   UNL     1      21.745 -11.256  -6.066 -0.43 -0.00    +0.000 A 
DOCKED: ATOM     20  C   UNL     1      21.078 -10.670  -7.156 -0.25 -0.00    +0.000 A 
DOCKED: ATOM     21  C   UNL     1      21.539 -10.864  -8.461 -0.23 -0.00    +0.000 A 
DOCKED: BRANCH  16  23
DOCKED: ATOM     22  C   UNL     1      22.362 -11.403 -11.219 -0.16 -0.00    +0.000 C 
DOCKED: ATOM     23  N   UNL     1      23.161 -11.851 -10.072 -0.23 -0.00    +0.000 N 
DOCKED: ATOM     24  C   UNL     1      24.450 -12.509 -10.319 -0.30 -0.00    +0.000 C 
DOCKED: ENDBRANCH  16  23
DOCKED: ENDBRANCH  14  19
DOCKED: ENDBRANCH   1  14
DOCKED: TORSDOF 7
DOCKED: TER
DOCKED: ENDMDL
________________________________________________________________________________


	BEGINNING GENETIC ALGORITHM DOCKING 28 of 100
Run: 28 Seed: 1760482876 494986341 [ Run 28 of 100 GA/GALS ]
Beginning LAMARCKIAN GENETIC ALGORITHM (LGA), with a maximum of 2500000 energy evaluations.

Final-Value: -13.023


	FINAL GENETIC ALGORITHM DOCKED STATE
	_______________________________________________


Detailed state:  trans 21.715 -8.122 -1.978 quatxyzw 0.544735 -0.760035 0.182363 -0.303898 center 1.179 0.138 -0.353 ntor 7 16.3210 9.5422 -157.1240 -147.4862 67.7294 146.0488 -59.5534
State:	 21.715  -8.122  -1.978   0.572 -0.798  0.191 -144.616     16.32    9.54 -157.12 -147.49   67.73  146.05  -59.55

DOCKED: MODEL       28
DOCKED: USER    Run = 28
DOCKED: USER    DPF = ligand_dock.biased.dpf
DOCKED: USER  
DOCKED: USER    Estimated Free Energy of Binding    =   -9.38 kcal/mol  [=(1)+(2)+(3)-(4)]
DOCKED: USER    Estimated Inhibition Constant, Ki   =  133.70 nM (nanomolar)  [Temperature = 298.15 K]
DOCKED: USER    
DOCKED: USER    (1) Final Intermolecular Energy     =  -11.47 kcal/mol
DOCKED: USER        vdW + Hbond + desolv Energy     =  -11.47 kcal/mol
DOCKED: USER        Electrostatic Energy            =   +0.00 kcal/mol
DOCKED: USER    (2) Final Total Internal Energy     =   -1.56 kcal/mol
DOCKED: USER    (3) Torsional Free Energy           =   +2.09 kcal/mol
DOCKED: USER    (4) Unbound System's Energy  [=(2)] =   -1.56 kcal/mol
DOCKED: USER    
DOCKED: USER    
DOCKED: USER    NEWDPF move ligand.pdbqt
DOCKED: USER    NEWDPF about 1.179000 0.138000 -0.353000
DOCKED: USER    NEWDPF tran0 21.714779 -8.122430 -1.978289
DOCKED: USER    NEWDPF quaternion0 0.544735 -0.760035 0.182363 -0.303898
DOCKED: USER    NEWDPF axisangle0 0.571778 -0.797766 0.191416 -144.616205
DOCKED: USER    NEWDPF quat0 0.571778 -0.797766 0.191416 -144.616205
DOCKED: USER    NEWDPF dihe0 16.32 9.54 -157.12 -147.49 67.73 146.05 -59.55 
DOCKED: USER  keepresnum = 1 
DOCKED: USER  
DOCKED: REMARK  Name = 
DOCKED: REMARK  11 active torsions:
DOCKED: REMARK  status: ('A' for Active; 'I' for Inactive)
DOCKED: REMARK    1  A    between atoms: C_1  and  N_2
DOCKED: REMARK    2  A    between atoms: N_2  and  C_3
DOCKED: REMARK    3  A    between atoms: N_2  and  C_22
DOCKED: REMARK    4  A    between atoms: C_6  and  C_9
DOCKED: REMARK    5  A    between atoms: C_9  and  C_10
DOCKED: REMARK    6  A    between atoms: C_10  and  C_11
DOCKED: REMARK    7  A    between atoms: C_10  and  C_20
DOCKED: REMARK    8  A    between atoms: C_12  and  C_13
DOCKED: REMARK    9  A    between atoms: C_12  and  C_19
DOCKED: REMARK   10  A    between atoms: C_14  and  C_15
DOCKED: REMARK   11  A    between atoms: N_16  and  O_17
DOCKED: REMARK                            x       y       z     vdW  Elec       q    Type
DOCKED: REMARK                         _______ _______ _______ _____ _____    ______ ____
DOCKED: USER                              x       y       z     vdW  Elec       q    Type
DOCKED: USER                           _______ _______ _______ _____ _____    ______ ____
DOCKED: ROOT
DOCKED: ATOM      1  C   UNL     1      21.742  -9.203  -3.565 -0.34 -0.00    +0.000 C 
DOCKED: ATOM      2  C   UNL     1      21.530 -10.178  -4.726 -0.45 -0.00    +0.000 C 
DOCKED: ENDROOT
DOCKED: BRANCH   1   3
DOCKED: ATOM      3  C   UNL     1      21.320  -9.839  -2.256 -0.57 -0.00    +0.000 C 
DOCKED: ATOM      4  C   UNL     1      20.106 -10.380  -2.026 -0.51 -0.00    +0.000 C 
DOCKED: ATOM      5  C   UNL     1      19.023 -10.384  -3.083 -0.38 -0.00    +0.000 C 
DOCKED: BRANCH   4   6
DOCKED: ATOM      6  C   UNL     1      19.833 -10.923  -0.669 -0.55 -0.00    +0.000 C 
DOCKED: ATOM      7  C   UNL     1      20.656 -10.738   0.373 -0.70 -0.00    +0.000 C 
DOCKED: BRANCH   7   8
DOCKED: ATOM      8  C   UNL     1      20.390 -11.275   1.724 -0.75 -0.00    +0.000 C 
DOCKED: ATOM      9  N   UNL     1      20.644 -10.520   2.915 -0.62 -0.00    +0.000 N 
DOCKED: ATOM     10  O   UNL     1      19.899 -12.432   1.823 -1.73 -0.00    +0.000 OA
DOCKED: ATOM     11  H   UNL     1      20.930  -9.580   2.847 -0.59 -0.00    +0.000 HD
DOCKED: BRANCH   9  12
DOCKED: ATOM     12  O   UNL     1      20.491 -11.094   4.131 -0.73 -0.00    +0.000 OA
DOCKED: ATOM     13  H   UNL     1      20.462 -12.058   4.033 -0.40 -0.00    +0.000 HD
DOCKED: ENDBRANCH   9  12
DOCKED: ENDBRANCH   7   8
DOCKED: ENDBRANCH   4   6
DOCKED: ENDBRANCH   1   3
DOCKED: BRANCH   1  14
DOCKED: ATOM     14  C   UNL     1      20.953  -7.935  -3.817 -0.35 -0.00    +0.000 C 
DOCKED: ATOM     15  O   UNL     1      20.003  -7.967  -4.648 -0.21 -0.00    +0.000 OA
DOCKED: BRANCH  14  19
DOCKED: ATOM     16  C   UNL     1      21.847  -4.219  -1.795 -0.34 +0.00    +0.000 A 
DOCKED: ATOM     17  C   UNL     1      20.949  -5.155  -1.243 -0.36 +0.00    +0.000 A 
DOCKED: ATOM     18  C   UNL     1      20.664  -6.351  -1.905 -0.17 -0.00    +0.000 A 
DOCKED: ATOM     19  C   UNL     1      21.271  -6.654  -3.135 -0.34 -0.00    +0.000 A 
DOCKED: ATOM     20  C   UNL     1      22.159  -5.721  -3.695 -0.20 -0.00    +0.000 A 
DOCKED: ATOM     21  C   UNL     1      22.444  -4.522  -3.035 -0.24 -0.00    +0.000 A 
DOCKED: BRANCH  16  23
DOCKED: ATOM     22  C   UNL     1      23.247  -2.118  -1.559 -0.23 -0.00    +0.000 C 
DOCKED: ATOM     23  N   UNL     1      22.144  -2.975  -1.107 -0.30 +0.00    +0.000 N 
DOCKED: ATOM     24  C   UNL     1      21.348  -2.554   0.052 -0.42 -0.00    +0.000 C 
DOCKED: ENDBRANCH  16  23
DOCKED: ENDBRANCH  14  19
DOCKED: ENDBRANCH   1  14
DOCKED: TORSDOF 7
DOCKED: TER
DOCKED: ENDMDL
________________________________________________________________________________


	BEGINNING GENETIC ALGORITHM DOCKING 29 of 100
Run: 29 Seed: 649717368 1210632655 [ Run 29 of 100 GA/GALS ]
Beginning LAMARCKIAN GENETIC ALGORITHM (LGA), with a maximum of 2500000 energy evaluations.

Final-Value: -12.903


	FINAL GENETIC ALGORITHM DOCKED STATE
	_______________________________________________


Detailed state:  trans 15.415 -8.143 2.496 quatxyzw -0.636400 0.090725 0.283848 0.711473 center 1.179 0.138 -0.353 ntor 7 -19.1900 -76.5507 -125.8418 165.1888 -164.7948 137.5034 -70.4029
State:	 15.415  -8.143   2.496  -0.906  0.129  0.404 89.290    -19.19  -76.55 -125.84  165.19 -164.79  137.50  -70.40

DOCKED: MODEL       29
DOCKED: USER    Run = 29
DOCKED: USER    DPF = ligand_dock.biased.dpf
DOCKED: USER  
DOCKED: USER    Estimated Free Energy of Binding    =   -9.20 kcal/mol  [=(1)+(2)+(3)-(4)]
DOCKED: USER    Estimated Inhibition Constant, Ki   =  180.43 nM (nanomolar)  [Temperature = 298.15 K]
DOCKED: USER    
DOCKED: USER    (1) Final Intermolecular Energy     =  -11.29 kcal/mol
DOCKED: USER        vdW + Hbond + desolv Energy     =  -11.29 kcal/mol
DOCKED: USER        Electrostatic Energy            =   +0.00 kcal/mol
DOCKED: USER    (2) Final Total Internal Energy     =   -1.61 kcal/mol
DOCKED: USER    (3) Torsional Free Energy           =   +2.09 kcal/mol
DOCKED: USER    (4) Unbound System's Energy  [=(2)] =   -1.61 kcal/mol
DOCKED: USER    
DOCKED: USER    
DOCKED: USER    NEWDPF move ligand.pdbqt
DOCKED: USER    NEWDPF about 1.179000 0.138000 -0.353000
DOCKED: USER    NEWDPF tran0 15.414601 -8.142521 2.496373
DOCKED: USER    NEWDPF quaternion0 -0.636400 0.090725 0.283848 0.711473
DOCKED: USER    NEWDPF axisangle0 -0.905633 0.129106 0.403932 89.290224
DOCKED: USER    NEWDPF quat0 -0.905633 0.129106 0.403932 89.290224
DOCKED: USER    NEWDPF dihe0 -19.19 -76.55 -125.84 165.19 -164.79 137.50 -70.40 
DOCKED: USER  keepresnum = 1 
DOCKED: USER  
DOCKED: REMARK  Name = 
DOCKED: REMARK  11 active torsions:
DOCKED: REMARK  status: ('A' for Active; 'I' for Inactive)
DOCKED: REMARK    1  A    between atoms: C_1  and  N_2
DOCKED: REMARK    2  A    between atoms: N_2  and  C_3
DOCKED: REMARK    3  A    between atoms: N_2  and  C_22
DOCKED: REMARK    4  A    between atoms: C_6  and  C_9
DOCKED: REMARK    5  A    between atoms: C_9  and  C_10
DOCKED: REMARK    6  A    between atoms: C_10  and  C_11
DOCKED: REMARK    7  A    between atoms: C_10  and  C_20
DOCKED: REMARK    8  A    between atoms: C_12  and  C_13
DOCKED: REMARK    9  A    between atoms: C_12  and  C_19
DOCKED: REMARK   10  A    between atoms: C_14  and  C_15
DOCKED: REMARK   11  A    between atoms: N_16  and  O_17
DOCKED: REMARK                            x       y       z     vdW  Elec       q    Type
DOCKED: REMARK                         _______ _______ _______ _____ _____    ______ ____
DOCKED: USER                              x       y       z     vdW  Elec       q    Type
DOCKED: USER                           _______ _______ _______ _____ _____    ______ ____
DOCKED: ROOT
DOCKED: ATOM      1  C   UNL     1      14.146  -9.581   2.423 -0.29 +0.00    +0.000 C 
DOCKED: ATOM      2  C   UNL     1      13.327 -10.873   2.503 -0.34 +0.00    +0.000 C 
DOCKED: ENDROOT
DOCKED: BRANCH   1   3
DOCKED: ATOM      3  C   UNL     1      15.617  -9.897   2.250 -0.38 +0.00    +0.000 C 
DOCKED: ATOM      4  C   UNL     1      16.368 -10.558   3.154 -0.51 +0.00    +0.000 C 
DOCKED: ATOM      5  C   UNL     1      15.790 -11.043   4.467 -0.49 +0.00    +0.000 C 
DOCKED: BRANCH   4   6
DOCKED: ATOM      6  C   UNL     1      17.812 -10.746   2.856 -0.53 +0.00    +0.000 C 
DOCKED: ATOM      7  C   UNL     1      18.278 -11.004   1.625 -0.53 -0.00    +0.000 C 
DOCKED: BRANCH   7   8
DOCKED: ATOM      8  C   UNL     1      19.712 -11.193   1.322 -0.68 -0.00    +0.000 C 
DOCKED: ATOM      9  N   UNL     1      20.482 -10.214   0.612 -0.60 -0.00    +0.000 N 
DOCKED: ATOM     10  O   UNL     1      20.277 -12.244   1.727 -1.70 -0.00    +0.000 OA
DOCKED: ATOM     11  H   UNL     1      20.078  -9.346   0.381 -0.08 -0.00    +0.000 HD
DOCKED: BRANCH   9  12
DOCKED: ATOM     12  O   UNL     1      21.762 -10.480   0.259 -0.71 -0.00    +0.000 OA
DOCKED: ATOM     13  H   UNL     1      22.102 -11.210   0.800 -0.49 -0.00    +0.000 HD
DOCKED: ENDBRANCH   9  12
DOCKED: ENDBRANCH   7   8
DOCKED: ENDBRANCH   4   6
DOCKED: ENDBRANCH   1   3
DOCKED: BRANCH   1  14
DOCKED: ATOM     14  C   UNL     1      13.922  -8.760   3.675 -0.31 +0.00    +0.000 C 
DOCKED: ATOM     15  O   UNL     1      13.279  -9.276   4.631 -0.40 +0.00    +0.000 OA
DOCKED: BRANCH  14  19
DOCKED: ATOM     16  C   UNL     1      15.353  -4.693   4.014 -0.35 -0.00    +0.000 A 
DOCKED: ATOM     17  C   UNL     1      14.833  -5.187   2.801 -0.21 -0.00    +0.000 A 
DOCKED: ATOM     18  C   UNL     1      14.376  -6.504   2.700 -0.22 +0.00    +0.000 A 
DOCKED: ATOM     19  C   UNL     1      14.418  -7.365   3.808 -0.28 +0.00    +0.000 A 
DOCKED: ATOM     20  C   UNL     1      14.945  -6.882   5.018 -0.40 +0.00    +0.000 A 
DOCKED: ATOM     21  C   UNL     1      15.404  -5.565   5.120 -0.43 +0.00    +0.000 A 
DOCKED: BRANCH  16  23
DOCKED: ATOM     22  C   UNL     1      14.888  -2.226   4.368 -0.43 -0.00    +0.000 C 
DOCKED: ATOM     23  N   UNL     1      15.829  -3.326   4.120 -0.44 -0.00    +0.000 N 
DOCKED: ATOM     24  C   UNL     1      17.257  -3.018   3.979 -0.49 -0.00    +0.000 C 
DOCKED: ENDBRANCH  16  23
DOCKED: ENDBRANCH  14  19
DOCKED: ENDBRANCH   1  14
DOCKED: TORSDOF 7
DOCKED: TER
DOCKED: ENDMDL
________________________________________________________________________________


	BEGINNING GENETIC ALGORITHM DOCKING 30 of 100
Run: 30 Seed: 978399833 641960973 [ Run 30 of 100 GA/GALS ]
Beginning LAMARCKIAN GENETIC ALGORITHM (LGA), with a maximum of 2500000 energy evaluations.

Final-Value: -13.547


	FINAL GENETIC ALGORITHM DOCKED STATE
	_______________________________________________


Detailed state:  trans 20.633 -9.068 -2.997 quatxyzw -0.652103 0.632520 -0.353475 0.223013 center 1.179 0.138 -0.353 ntor 7 33.3584 -165.3642 176.7753 -0.0927 -94.9406 3.3417 158.3360
State:	 20.633  -9.068  -2.997  -0.669  0.649 -0.363 154.228     33.36 -165.36  176.78   -0.09  -94.94    3.34  158.34

DOCKED: MODEL       30
DOCKED: USER    Run = 30
DOCKED: USER    DPF = ligand_dock.biased.dpf
DOCKED: USER  
DOCKED: USER    Estimated Free Energy of Binding    =   -9.93 kcal/mol  [=(1)+(2)+(3)-(4)]
DOCKED: USER    Estimated Inhibition Constant, Ki   =   52.44 nM (nanomolar)  [Temperature = 298.15 K]
DOCKED: USER    
DOCKED: USER    (1) Final Intermolecular Energy     =  -12.02 kcal/mol
DOCKED: USER        vdW + Hbond + desolv Energy     =  -12.02 kcal/mol
DOCKED: USER        Electrostatic Energy            =   +0.00 kcal/mol
DOCKED: USER    (2) Final Total Internal Energy     =   -1.53 kcal/mol
DOCKED: USER    (3) Torsional Free Energy           =   +2.09 kcal/mol
DOCKED: USER    (4) Unbound System's Energy  [=(2)] =   -1.53 kcal/mol
DOCKED: USER    
DOCKED: USER    
DOCKED: USER    NEWDPF move ligand.pdbqt
DOCKED: USER    NEWDPF about 1.179000 0.138000 -0.353000
DOCKED: USER    NEWDPF tran0 20.632558 -9.067543 -2.996627
DOCKED: USER    NEWDPF quaternion0 -0.652103 0.632520 -0.353475 0.223013
DOCKED: USER    NEWDPF axisangle0 -0.668951 0.648861 -0.362608 154.227861
DOCKED: USER    NEWDPF quat0 -0.668951 0.648861 -0.362608 154.227861
DOCKED: USER    NEWDPF dihe0 33.36 -165.36 176.78 -0.09 -94.94 3.34 158.34 
DOCKED: USER  keepresnum = 1 
DOCKED: USER  
DOCKED: REMARK  Name = 
DOCKED: REMARK  11 active torsions:
DOCKED: REMARK  status: ('A' for Active; 'I' for Inactive)
DOCKED: REMARK    1  A    between atoms: C_1  and  N_2
DOCKED: REMARK    2  A    between atoms: N_2  and  C_3
DOCKED: REMARK    3  A    between atoms: N_2  and  C_22
DOCKED: REMARK    4  A    between atoms: C_6  and  C_9
DOCKED: REMARK    5  A    between atoms: C_9  and  C_10
DOCKED: REMARK    6  A    between atoms: C_10  and  C_11
DOCKED: REMARK    7  A    between atoms: C_10  and  C_20
DOCKED: REMARK    8  A    between atoms: C_12  and  C_13
DOCKED: REMARK    9  A    between atoms: C_12  and  C_19
DOCKED: REMARK   10  A    between atoms: C_14  and  C_15
DOCKED: REMARK   11  A    between atoms: N_16  and  O_17
DOCKED: REMARK                            x       y       z     vdW  Elec       q    Type
DOCKED: REMARK                         _______ _______ _______ _____ _____    ______ ____
DOCKED: USER                              x       y       z     vdW  Elec       q    Type
DOCKED: USER                           _______ _______ _______ _____ _____    ______ ____
DOCKED: ROOT
DOCKED: ATOM      1  C   UNL     1      21.445 -10.190  -4.325 -0.47 -0.00    +0.000 C 
DOCKED: ATOM      2  C   UNL     1      21.910 -11.277  -5.298 -0.53 -0.00    +0.000 C 
DOCKED: ENDROOT
DOCKED: BRANCH   1   3
DOCKED: ATOM      3  C   UNL     1      21.042 -10.803  -3.000 -0.46 -0.00    +0.000 C 
DOCKED: ATOM      4  C   UNL     1      20.909 -10.113  -1.848 -0.60 -0.00    +0.000 C 
DOCKED: ATOM      5  C   UNL     1      21.174  -8.624  -1.777 -0.52 -0.00    +0.000 C 
DOCKED: BRANCH   4   6
DOCKED: ATOM      6  C   UNL     1      20.553 -10.871  -0.620 -0.58 -0.00    +0.000 C 
DOCKED: ATOM      7  C   UNL     1      20.824 -10.431   0.617 -0.68 -0.00    +0.000 C 
DOCKED: BRANCH   7   8
DOCKED: ATOM      8  C   UNL     1      20.474 -11.181   1.841 -0.74 -0.00    +0.000 C 
DOCKED: ATOM      9  N   UNL     1      20.483 -10.576   3.141 -0.67 -0.00    +0.000 N 
DOCKED: ATOM     10  O   UNL     1      20.132 -12.389   1.727 -1.72 -0.00    +0.000 OA
DOCKED: ATOM     11  H   UNL     1      20.648  -9.610   3.231 -0.59 -0.00    +0.000 HD
DOCKED: BRANCH   9  12
DOCKED: ATOM     12  O   UNL     1      20.265 -11.330   4.244 -0.79 -0.00    +0.000 OA
DOCKED: ATOM     13  H   UNL     1      20.629 -12.219   4.107 -0.51 -0.00    +0.000 HD
DOCKED: ENDBRANCH   9  12
DOCKED: ENDBRANCH   7   8
DOCKED: ENDBRANCH   4   6
DOCKED: ENDBRANCH   1   3
DOCKED: BRANCH   1  14
DOCKED: ATOM     14  C   UNL     1      20.285  -9.429  -4.932 -0.29 -0.00    +0.000 C 
DOCKED: ATOM     15  O   UNL     1      20.386  -8.178  -5.071 -0.19 -0.00    +0.000 OA
DOCKED: BRANCH  14  19
DOCKED: ATOM     16  C   UNL     1      16.604 -11.366  -6.114 -0.27 -0.00    +0.000 A 
DOCKED: ATOM     17  C   UNL     1      16.662 -10.539  -4.974 -0.22 -0.00    +0.000 A 
DOCKED: ATOM     18  C   UNL     1      17.857  -9.921  -4.598 -0.23 -0.00    +0.000 A 
DOCKED: ATOM     19  C   UNL     1      19.028 -10.102  -5.352 -0.25 -0.00    +0.000 A 
DOCKED: ATOM     20  C   UNL     1      18.978 -10.932  -6.485 -0.33 -0.00    +0.000 A 
DOCKED: ATOM     21  C   UNL     1      17.784 -11.554  -6.861 -0.32 -0.00    +0.000 A 
DOCKED: BRANCH  16  23
DOCKED: ATOM     22  C   UNL     1      14.172 -11.917  -5.651 -0.30 -0.00    +0.000 C 
DOCKED: ATOM     23  N   UNL     1      15.363 -12.010  -6.505 -0.32 -0.00    +0.000 N 
DOCKED: ATOM     24  C   UNL     1      15.277 -12.768  -7.759 -0.43 -0.00    +0.000 C 
DOCKED: ENDBRANCH  16  23
DOCKED: ENDBRANCH  14  19
DOCKED: ENDBRANCH   1  14
DOCKED: TORSDOF 7
DOCKED: TER
DOCKED: ENDMDL
________________________________________________________________________________


	BEGINNING GENETIC ALGORITHM DOCKING 31 of 100
Run: 31 Seed: 867276193 538737374 [ Run 31 of 100 GA/GALS ]
Beginning LAMARCKIAN GENETIC ALGORITHM (LGA), with a maximum of 2500000 energy evaluations.

Final-Value: -13.496


	FINAL GENETIC ALGORITHM DOCKED STATE
	_______________________________________________


Detailed state:  trans 20.663 -8.846 -3.262 quatxyzw 0.585190 -0.634809 0.428301 -0.266699 center 1.179 0.138 -0.353 ntor 7 51.8643 -166.8925 -113.8404 -75.4763 66.2732 -0.7909 163.1599
State:	 20.663  -8.846  -3.262   0.607 -0.659  0.444 -149.064     51.86 -166.89 -113.84  -75.48   66.27   -0.79  163.16

DOCKED: MODEL       31
DOCKED: USER    Run = 31
DOCKED: USER    DPF = ligand_dock.biased.dpf
DOCKED: USER  
DOCKED: USER    Estimated Free Energy of Binding    =   -9.95 kcal/mol  [=(1)+(2)+(3)-(4)]
DOCKED: USER    Estimated Inhibition Constant, Ki   =   50.93 nM (nanomolar)  [Temperature = 298.15 K]
DOCKED: USER    
DOCKED: USER    (1) Final Intermolecular Energy     =  -12.04 kcal/mol
DOCKED: USER        vdW + Hbond + desolv Energy     =  -12.04 kcal/mol
DOCKED: USER        Electrostatic Energy            =   +0.00 kcal/mol
DOCKED: USER    (2) Final Total Internal Energy     =   -1.46 kcal/mol
DOCKED: USER    (3) Torsional Free Energy           =   +2.09 kcal/mol
DOCKED: USER    (4) Unbound System's Energy  [=(2)] =   -1.46 kcal/mol
DOCKED: USER    
DOCKED: USER    
DOCKED: USER    NEWDPF move ligand.pdbqt
DOCKED: USER    NEWDPF about 1.179000 0.138000 -0.353000
DOCKED: USER    NEWDPF tran0 20.663244 -8.846164 -3.261531
DOCKED: USER    NEWDPF quaternion0 0.585190 -0.634809 0.428301 -0.266699
DOCKED: USER    NEWDPF axisangle0 0.607182 -0.658666 0.444397 -149.064126
DOCKED: USER    NEWDPF quat0 0.607182 -0.658666 0.444397 -149.064126
DOCKED: USER    NEWDPF dihe0 51.86 -166.89 -113.84 -75.48 66.27 -0.79 163.16 
DOCKED: USER  keepresnum = 1 
DOCKED: USER  
DOCKED: REMARK  Name = 
DOCKED: REMARK  11 active torsions:
DOCKED: REMARK  status: ('A' for Active; 'I' for Inactive)
DOCKED: REMARK    1  A    between atoms: C_1  and  N_2
DOCKED: REMARK    2  A    between atoms: N_2  and  C_3
DOCKED: REMARK    3  A    between atoms: N_2  and  C_22
DOCKED: REMARK    4  A    between atoms: C_6  and  C_9
DOCKED: REMARK    5  A    between atoms: C_9  and  C_10
DOCKED: REMARK    6  A    between atoms: C_10  and  C_11
DOCKED: REMARK    7  A    between atoms: C_10  and  C_20
DOCKED: REMARK    8  A    between atoms: C_12  and  C_13
DOCKED: REMARK    9  A    between atoms: C_12  and  C_19
DOCKED: REMARK   10  A    between atoms: C_14  and  C_15
DOCKED: REMARK   11  A    between atoms: N_16  and  O_17
DOCKED: REMARK                            x       y       z     vdW  Elec       q    Type
DOCKED: REMARK                         _______ _______ _______ _____ _____    ______ ____
DOCKED: USER                              x       y       z     vdW  Elec       q    Type
DOCKED: USER                           _______ _______ _______ _____ _____    ______ ____
DOCKED: ROOT
DOCKED: ATOM      1  C   UNL     1      21.475 -10.251  -4.287 -0.48 -0.00    +0.000 C 
DOCKED: ATOM      2  C   UNL     1      21.916 -11.530  -5.005 -0.51 -0.00    +0.000 C 
DOCKED: ENDROOT
DOCKED: BRANCH   1   3
DOCKED: ATOM      3  C   UNL     1      20.909 -10.579  -2.921 -0.53 -0.00    +0.000 C 
DOCKED: ATOM      4  C   UNL     1      20.819  -9.701  -1.901 -0.58 -0.00    +0.000 C 
DOCKED: ATOM      5  C   UNL     1      21.306  -8.274  -2.033 -0.50 -0.00    +0.000 C 
DOCKED: BRANCH   4   6
DOCKED: ATOM      6  C   UNL     1      20.283 -10.194  -0.605 -0.60 -0.00    +0.000 C 
DOCKED: ATOM      7  C   UNL     1      21.027 -10.861   0.290 -0.70 -0.00    +0.000 C 
DOCKED: BRANCH   7   8
DOCKED: ATOM      8  C   UNL     1      20.499 -11.354   1.579 -0.75 -0.00    +0.000 C 
DOCKED: ATOM      9  N   UNL     1      20.640 -10.615   2.799 -0.63 -0.00    +0.000 N 
DOCKED: ATOM     10  O   UNL     1      19.883 -12.453   1.594 -1.68 -0.00    +0.000 OA
DOCKED: ATOM     11  H   UNL     1      21.027  -9.709   2.782 -0.59 -0.00    +0.000 HD
DOCKED: BRANCH   9  12
DOCKED: ATOM     12  O   UNL     1      20.240 -11.157   3.974 -0.83 -0.00    +0.000 OA
DOCKED: ATOM     13  H   UNL     1      20.640 -12.035   4.078 -0.53 -0.00    +0.000 HD
DOCKED: ENDBRANCH   9  12
DOCKED: ENDBRANCH   7   8
DOCKED: ENDBRANCH   4   6
DOCKED: ENDBRANCH   1   3
DOCKED: BRANCH   1  14
DOCKED: ATOM     14  C   UNL     1      20.445  -9.527  -5.129 -0.30 -0.00    +0.000 C 
DOCKED: ATOM     15  O   UNL     1      20.712  -8.368  -5.551 -0.19 -0.00    +0.000 OA
DOCKED: BRANCH  14  19
DOCKED: ATOM     16  C   UNL     1      16.625 -11.294  -6.127 -0.29 -0.00    +0.000 A 
DOCKED: ATOM     17  C   UNL     1      17.750 -11.462  -6.960 -0.33 -0.00    +0.000 A 
DOCKED: ATOM     18  C   UNL     1      18.978 -10.885  -6.631 -0.32 -0.00    +0.000 A 
DOCKED: ATOM     19  C   UNL     1      19.125 -10.128  -5.457 -0.26 -0.00    +0.000 A 
DOCKED: ATOM     20  C   UNL     1      18.006  -9.948  -4.627 -0.24 -0.00    +0.000 A 
DOCKED: ATOM     21  C   UNL     1      16.775 -10.523  -4.956 -0.22 -0.00    +0.000 A 
DOCKED: BRANCH  16  23
DOCKED: ATOM     22  C   UNL     1      15.155 -12.552  -7.765 -0.40 -0.00    +0.000 C 
DOCKED: ATOM     23  N   UNL     1      15.347 -11.893  -6.468 -0.31 -0.00    +0.000 N 
DOCKED: ATOM     24  C   UNL     1      14.225 -11.847  -5.523 -0.30 -0.00    +0.000 C 
DOCKED: ENDBRANCH  16  23
DOCKED: ENDBRANCH  14  19
DOCKED: ENDBRANCH   1  14
DOCKED: TORSDOF 7
DOCKED: TER
DOCKED: ENDMDL
________________________________________________________________________________


	BEGINNING GENETIC ALGORITHM DOCKING 32 of 100
Run: 32 Seed: 1872740093 1334588437 [ Run 32 of 100 GA/GALS ]
Beginning LAMARCKIAN GENETIC ALGORITHM (LGA), with a maximum of 2500000 energy evaluations.

Final-Value: -11.974


	FINAL GENETIC ALGORITHM DOCKED STATE
	_______________________________________________


Detailed state:  trans 19.186 -9.188 -1.401 quatxyzw 0.402379 -0.523875 0.735080 0.152655 center 1.179 0.138 -0.353 ntor 7 8.2614 169.5641 112.1527 161.5346 37.5569 -99.8108 -143.9770
State:	 19.186  -9.188  -1.401   0.407 -0.530  0.744 162.438      8.26  169.56  112.15  161.53   37.56  -99.81 -143.98

DOCKED: MODEL       32
DOCKED: USER    Run = 32
DOCKED: USER    DPF = ligand_dock.biased.dpf
DOCKED: USER  
DOCKED: USER    Estimated Free Energy of Binding    =   -8.20 kcal/mol  [=(1)+(2)+(3)-(4)]
DOCKED: USER    Estimated Inhibition Constant, Ki   =  980.73 nM (nanomolar)  [Temperature = 298.15 K]
DOCKED: USER    
DOCKED: USER    (1) Final Intermolecular Energy     =  -10.29 kcal/mol
DOCKED: USER        vdW + Hbond + desolv Energy     =  -10.29 kcal/mol
DOCKED: USER        Electrostatic Energy            =   +0.00 kcal/mol
DOCKED: USER    (2) Final Total Internal Energy     =   -1.69 kcal/mol
DOCKED: USER    (3) Torsional Free Energy           =   +2.09 kcal/mol
DOCKED: USER    (4) Unbound System's Energy  [=(2)] =   -1.69 kcal/mol
DOCKED: USER    
DOCKED: USER    
DOCKED: USER    NEWDPF move ligand.pdbqt
DOCKED: USER    NEWDPF about 1.179000 0.138000 -0.353000
DOCKED: USER    NEWDPF tran0 19.185582 -9.187845 -1.400897
DOCKED: USER    NEWDPF quaternion0 0.402379 -0.523875 0.735080 0.152655
DOCKED: USER    NEWDPF axisangle0 0.407151 -0.530088 0.743798 162.438343
DOCKED: USER    NEWDPF quat0 0.407151 -0.530088 0.743798 162.438343
DOCKED: USER    NEWDPF dihe0 8.26 169.56 112.15 161.53 37.56 -99.81 -143.98 
DOCKED: USER  keepresnum = 1 
DOCKED: USER  
DOCKED: REMARK  Name = 
DOCKED: REMARK  11 active torsions:
DOCKED: REMARK  status: ('A' for Active; 'I' for Inactive)
DOCKED: REMARK    1  A    between atoms: C_1  and  N_2
DOCKED: REMARK    2  A    between atoms: N_2  and  C_3
DOCKED: REMARK    3  A    between atoms: N_2  and  C_22
DOCKED: REMARK    4  A    between atoms: C_6  and  C_9
DOCKED: REMARK    5  A    between atoms: C_9  and  C_10
DOCKED: REMARK    6  A    between atoms: C_10  and  C_11
DOCKED: REMARK    7  A    between atoms: C_10  and  C_20
DOCKED: REMARK    8  A    between atoms: C_12  and  C_13
DOCKED: REMARK    9  A    between atoms: C_12  and  C_19
DOCKED: REMARK   10  A    between atoms: C_14  and  C_15
DOCKED: REMARK   11  A    between atoms: N_16  and  O_17
DOCKED: REMARK                            x       y       z     vdW  Elec       q    Type
DOCKED: REMARK                         _______ _______ _______ _____ _____    ______ ____
DOCKED: USER                              x       y       z     vdW  Elec       q    Type
DOCKED: USER                           _______ _______ _______ _____ _____    ______ ____
DOCKED: ROOT
DOCKED: ATOM      1  C   UNL     1      20.837 -10.004  -0.860 -0.66 -0.00    +0.000 C 
DOCKED: ATOM      2  C   UNL     1      22.030 -10.894  -0.501 -0.35 -0.00    +0.000 C 
DOCKED: ENDROOT
DOCKED: BRANCH   1   3
DOCKED: ATOM      3  C   UNL     1      19.535 -10.707  -0.535 -0.53 -0.00    +0.000 C 
DOCKED: ATOM      4  C   UNL     1      19.183 -11.129   0.697 -0.59 -0.00    +0.000 C 
DOCKED: ATOM      5  C   UNL     1      20.093 -10.946   1.892 -0.72 -0.00    +0.000 C 
DOCKED: BRANCH   4   6
DOCKED: ATOM      6  C   UNL     1      17.889 -11.847   0.842 -0.54 -0.00    +0.000 C 
DOCKED: ATOM      7  C   UNL     1      16.766 -11.468   0.214 -0.43 +0.00    +0.000 C 
DOCKED: BRANCH   7   8
DOCKED: ATOM      8  C   UNL     1      15.477 -12.176   0.354 -0.50 +0.00    +0.000 C 
DOCKED: ATOM      9  N   UNL     1      14.254 -11.493   0.658 -0.36 +0.00    +0.000 N 
DOCKED: ATOM     10  O   UNL     1      15.456 -13.424   0.176 -1.02 +0.00    +0.000 OA
DOCKED: ATOM     11  H   UNL     1      14.239 -10.509   0.697 +0.01 +0.00    +0.000 HD
DOCKED: BRANCH   9  12
DOCKED: ATOM     12  O   UNL     1      13.120 -12.196   0.888 -0.50 +0.00    +0.000 OA
DOCKED: ATOM     13  H   UNL     1      13.330 -13.141   0.940 -0.25 +0.00    +0.000 HD
DOCKED: ENDBRANCH   9  12
DOCKED: ENDBRANCH   7   8
DOCKED: ENDBRANCH   4   6
DOCKED: ENDBRANCH   1   3
DOCKED: BRANCH   1  14
DOCKED: ATOM     14  C   UNL     1      20.895  -9.648  -2.331 -0.55 -0.00    +0.000 C 
DOCKED: ATOM     15  O   UNL     1      21.852  -8.938  -2.746 -0.47 -0.00    +0.000 OA
DOCKED: BRANCH  14  19
DOCKED: ATOM     16  C   UNL     1      17.903 -10.962  -5.164 -0.24 -0.00    +0.000 A 
DOCKED: ATOM     17  C   UNL     1      19.256 -11.331  -5.305 -0.40 -0.00    +0.000 A 
DOCKED: ATOM     18  C   UNL     1      20.216 -10.899  -4.386 -0.43 -0.00    +0.000 A 
DOCKED: ATOM     19  C   UNL     1      19.854 -10.092  -3.296 -0.37 -0.00    +0.000 A 
DOCKED: ATOM     20  C   UNL     1      18.508  -9.713  -3.155 -0.15 -0.00    +0.000 A 
DOCKED: ATOM     21  C   UNL     1      17.547 -10.143  -4.075 -0.24 -0.00    +0.000 A 
DOCKED: BRANCH  16  23
DOCKED: ATOM     22  C   UNL     1      17.266 -11.643  -7.522 -0.37 -0.00    +0.000 C 
DOCKED: ATOM     23  N   UNL     1      16.905 -11.410  -6.119 -0.32 -0.00    +0.000 N 
DOCKED: ATOM     24  C   UNL     1      15.517 -11.636  -5.697 -0.28 -0.00    +0.000 C 
DOCKED: ENDBRANCH  16  23
DOCKED: ENDBRANCH  14  19
DOCKED: ENDBRANCH   1  14
DOCKED: TORSDOF 7
DOCKED: TER
DOCKED: ENDMDL
________________________________________________________________________________


	BEGINNING GENETIC ALGORITHM DOCKING 33 of 100
Run: 33 Seed: 1795115752 897484304 [ Run 33 of 100 GA/GALS ]
Beginning LAMARCKIAN GENETIC ALGORITHM (LGA), with a maximum of 2500000 energy evaluations.

Final-Value: -13.085


	FINAL GENETIC ALGORITHM DOCKED STATE
	_______________________________________________


Detailed state:  trans 21.837 -8.569 -2.372 quatxyzw -0.482935 0.761149 -0.235509 0.363266 center 1.179 0.138 -0.353 ntor 7 23.7539 170.4791 -115.7871 179.6809 95.6366 142.1031 -71.1698
State:	 21.837  -8.569  -2.372  -0.518  0.817 -0.253 137.398     23.75  170.48 -115.79  179.68   95.64  142.10  -71.17

DOCKED: MODEL       33
DOCKED: USER    Run = 33
DOCKED: USER    DPF = ligand_dock.biased.dpf
DOCKED: USER  
DOCKED: USER    Estimated Free Energy of Binding    =   -9.46 kcal/mol  [=(1)+(2)+(3)-(4)]
DOCKED: USER    Estimated Inhibition Constant, Ki   =  115.71 nM (nanomolar)  [Temperature = 298.15 K]
DOCKED: USER    
DOCKED: USER    (1) Final Intermolecular Energy     =  -11.55 kcal/mol
DOCKED: USER        vdW + Hbond + desolv Energy     =  -11.55 kcal/mol
DOCKED: USER        Electrostatic Energy            =   +0.00 kcal/mol
DOCKED: USER    (2) Final Total Internal Energy     =   -1.53 kcal/mol
DOCKED: USER    (3) Torsional Free Energy           =   +2.09 kcal/mol
DOCKED: USER    (4) Unbound System's Energy  [=(2)] =   -1.53 kcal/mol
DOCKED: USER    
DOCKED: USER    
DOCKED: USER    NEWDPF move ligand.pdbqt
DOCKED: USER    NEWDPF about 1.179000 0.138000 -0.353000
DOCKED: USER    NEWDPF tran0 21.836734 -8.568922 -2.371568
DOCKED: USER    NEWDPF quaternion0 -0.482935 0.761149 -0.235509 0.363266
DOCKED: USER    NEWDPF axisangle0 -0.518345 0.816959 -0.252777 137.398200
DOCKED: USER    NEWDPF quat0 -0.518345 0.816959 -0.252777 137.398200
DOCKED: USER    NEWDPF dihe0 23.75 170.48 -115.79 179.68 95.64 142.10 -71.17 
DOCKED: USER  keepresnum = 1 
DOCKED: USER  
DOCKED: REMARK  Name = 
DOCKED: REMARK  11 active torsions:
DOCKED: REMARK  status: ('A' for Active; 'I' for Inactive)
DOCKED: REMARK    1  A    between atoms: C_1  and  N_2
DOCKED: REMARK    2  A    between atoms: N_2  and  C_3
DOCKED: REMARK    3  A    between atoms: N_2  and  C_22
DOCKED: REMARK    4  A    between atoms: C_6  and  C_9
DOCKED: REMARK    5  A    between atoms: C_9  and  C_10
DOCKED: REMARK    6  A    between atoms: C_10  and  C_11
DOCKED: REMARK    7  A    between atoms: C_10  and  C_20
DOCKED: REMARK    8  A    between atoms: C_12  and  C_13
DOCKED: REMARK    9  A    between atoms: C_12  and  C_19
DOCKED: REMARK   10  A    between atoms: C_14  and  C_15
DOCKED: REMARK   11  A    between atoms: N_16  and  O_17
DOCKED: REMARK                            x       y       z     vdW  Elec       q    Type
DOCKED: REMARK                         _______ _______ _______ _____ _____    ______ ____
DOCKED: USER                              x       y       z     vdW  Elec       q    Type
DOCKED: USER                           _______ _______ _______ _____ _____    ______ ____
DOCKED: ROOT
DOCKED: ATOM      1  C   UNL     1      21.747  -9.917  -3.735 -0.39 -0.00    +0.000 C 
DOCKED: ATOM      2  C   UNL     1      21.436 -11.066  -4.699 -0.53 -0.00    +0.000 C 
DOCKED: ENDROOT
DOCKED: BRANCH   1   3
DOCKED: ATOM      3  C   UNL     1      21.296 -10.267  -2.332 -0.57 -0.00    +0.000 C 
DOCKED: ATOM      4  C   UNL     1      20.028 -10.579  -1.992 -0.49 -0.00    +0.000 C 
DOCKED: ATOM      5  C   UNL     1      18.911 -10.591  -3.013 -0.38 -0.00    +0.000 C 
DOCKED: BRANCH   4   6
DOCKED: ATOM      6  C   UNL     1      19.739 -10.852  -0.560 -0.56 -0.00    +0.000 C 
DOCKED: ATOM      7  C   UNL     1      20.675 -11.252   0.314 -0.63 -0.00    +0.000 C 
DOCKED: BRANCH   7   8
DOCKED: ATOM      8  C   UNL     1      20.394 -11.525   1.738 -0.77 -0.00    +0.000 C 
DOCKED: ATOM      9  N   UNL     1      20.643 -10.562   2.769 -0.62 -0.00    +0.000 N 
DOCKED: ATOM     10  O   UNL     1      19.894 -12.641   2.047 -1.58 -0.00    +0.000 OA
DOCKED: ATOM     11  H   UNL     1      20.936  -9.652   2.530 -0.56 -0.00    +0.000 HD
DOCKED: BRANCH   9  12
DOCKED: ATOM     12  O   UNL     1      20.475 -10.897   4.070 -0.79 -0.00    +0.000 OA
DOCKED: ATOM     13  H   UNL     1      20.558 -11.858   4.170 -0.42 -0.00    +0.000 HD
DOCKED: ENDBRANCH   9  12
DOCKED: ENDBRANCH   7   8
DOCKED: ENDBRANCH   4   6
DOCKED: ENDBRANCH   1   3
DOCKED: BRANCH   1  14
DOCKED: ATOM     14  C   UNL     1      21.062  -8.654  -4.213 -0.35 -0.00    +0.000 C 
DOCKED: ATOM     15  O   UNL     1      20.256  -8.731  -5.181 -0.20 -0.00    +0.000 OA
DOCKED: BRANCH  14  19
DOCKED: ATOM     16  C   UNL     1      21.799  -4.813  -2.367 -0.33 -0.00    +0.000 A 
DOCKED: ATOM     17  C   UNL     1      21.254  -5.886  -1.632 -0.36 +0.00    +0.000 A 
DOCKED: ATOM     18  C   UNL     1      21.017  -7.122  -2.238 -0.39 -0.00    +0.000 A 
DOCKED: ATOM     19  C   UNL     1      21.321  -7.328  -3.593 -0.32 -0.00    +0.000 A 
DOCKED: ATOM     20  C   UNL     1      21.856  -6.260  -4.334 -0.20 -0.00    +0.000 A 
DOCKED: ATOM     21  C   UNL     1      22.092  -5.022  -3.730 -0.20 -0.00    +0.000 A 
DOCKED: BRANCH  16  23
DOCKED: ATOM     22  C   UNL     1      21.209  -3.070  -0.623 -0.40 +0.00    +0.000 C 
DOCKED: ATOM     23  N   UNL     1      22.046  -3.528  -1.739 -0.28 -0.00    +0.000 N 
DOCKED: ATOM     24  C   UNL     1      23.134  -2.663  -2.210 -0.21 -0.00    +0.000 C 
DOCKED: ENDBRANCH  16  23
DOCKED: ENDBRANCH  14  19
DOCKED: ENDBRANCH   1  14
DOCKED: TORSDOF 7
DOCKED: TER
DOCKED: ENDMDL
________________________________________________________________________________


	BEGINNING GENETIC ALGORITHM DOCKING 34 of 100
Run: 34 Seed: 991387380 760196874 [ Run 34 of 100 GA/GALS ]
Beginning LAMARCKIAN GENETIC ALGORITHM (LGA), with a maximum of 2500000 energy evaluations.

Final-Value: -13.318


	FINAL GENETIC ALGORITHM DOCKED STATE
	_______________________________________________


Detailed state:  trans 18.920 -10.493 -3.329 quatxyzw 0.818520 -0.031812 0.562044 0.114544 center 1.179 0.138 -0.353 ntor 7 18.6898 -124.4554 83.6072 119.6639 138.7301 -95.8429 -50.7637
State:	 18.920 -10.493  -3.329   0.824 -0.032  0.566 166.845     18.69 -124.46   83.61  119.66  138.73  -95.84  -50.76

DOCKED: MODEL       34
DOCKED: USER    Run = 34
DOCKED: USER    DPF = ligand_dock.biased.dpf
DOCKED: USER  
DOCKED: USER    Estimated Free Energy of Binding    =   -9.74 kcal/mol  [=(1)+(2)+(3)-(4)]
DOCKED: USER    Estimated Inhibition Constant, Ki   =   72.16 nM (nanomolar)  [Temperature = 298.15 K]
DOCKED: USER    
DOCKED: USER    (1) Final Intermolecular Energy     =  -11.83 kcal/mol
DOCKED: USER        vdW + Hbond + desolv Energy     =  -11.83 kcal/mol
DOCKED: USER        Electrostatic Energy            =   +0.00 kcal/mol
DOCKED: USER    (2) Final Total Internal Energy     =   -1.49 kcal/mol
DOCKED: USER    (3) Torsional Free Energy           =   +2.09 kcal/mol
DOCKED: USER    (4) Unbound System's Energy  [=(2)] =   -1.49 kcal/mol
DOCKED: USER    
DOCKED: USER    
DOCKED: USER    NEWDPF move ligand.pdbqt
DOCKED: USER    NEWDPF about 1.179000 0.138000 -0.353000
DOCKED: USER    NEWDPF tran0 18.920089 -10.493099 -3.328716
DOCKED: USER    NEWDPF quaternion0 0.818520 -0.031812 0.562044 0.114544
DOCKED: USER    NEWDPF axisangle0 0.823943 -0.032023 0.565768 166.845312
DOCKED: USER    NEWDPF quat0 0.823943 -0.032023 0.565768 166.845312
DOCKED: USER    NEWDPF dihe0 18.69 -124.46 83.61 119.66 138.73 -95.84 -50.76 
DOCKED: USER  keepresnum = 1 
DOCKED: USER  
DOCKED: REMARK  Name = 
DOCKED: REMARK  11 active torsions:
DOCKED: REMARK  status: ('A' for Active; 'I' for Inactive)
DOCKED: REMARK    1  A    between atoms: C_1  and  N_2
DOCKED: REMARK    2  A    between atoms: N_2  and  C_3
DOCKED: REMARK    3  A    between atoms: N_2  and  C_22
DOCKED: REMARK    4  A    between atoms: C_6  and  C_9
DOCKED: REMARK    5  A    between atoms: C_9  and  C_10
DOCKED: REMARK    6  A    between atoms: C_10  and  C_11
DOCKED: REMARK    7  A    between atoms: C_10  and  C_20
DOCKED: REMARK    8  A    between atoms: C_12  and  C_13
DOCKED: REMARK    9  A    between atoms: C_12  and  C_19
DOCKED: REMARK   10  A    between atoms: C_14  and  C_15
DOCKED: REMARK   11  A    between atoms: N_16  and  O_17
DOCKED: REMARK                            x       y       z     vdW  Elec       q    Type
DOCKED: REMARK                         _______ _______ _______ _____ _____    ______ ____
DOCKED: USER                              x       y       z     vdW  Elec       q    Type
DOCKED: USER                           _______ _______ _______ _____ _____    ______ ____
DOCKED: ROOT
DOCKED: ATOM      1  C   UNL     1      20.486  -9.699  -4.105 -0.39 -0.00    +0.000 C 
DOCKED: ATOM      2  C   UNL     1      21.872  -9.274  -4.600 -0.28 -0.00    +0.000 C 
DOCKED: ENDROOT
DOCKED: BRANCH   1   3
DOCKED: ATOM      3  C   UNL     1      20.576 -10.271  -2.705 -0.53 -0.00    +0.000 C 
DOCKED: ATOM      4  C   UNL     1      20.967  -9.574  -1.619 -0.61 -0.00    +0.000 C 
DOCKED: ATOM      5  C   UNL     1      21.378  -8.120  -1.712 -0.50 -0.00    +0.000 C 
DOCKED: BRANCH   4   6
DOCKED: ATOM      6  C   UNL     1      21.048 -10.295  -0.322 -0.70 -0.00    +0.000 C 
DOCKED: ATOM      7  C   UNL     1      19.987 -10.493   0.474 -0.62 -0.00    +0.000 C 
DOCKED: BRANCH   7   8
DOCKED: ATOM      8  C   UNL     1      20.062 -11.208   1.765 -0.74 -0.00    +0.000 C 
DOCKED: ATOM      9  N   UNL     1      20.085 -10.522   3.023 -0.67 -0.00    +0.000 N 
DOCKED: ATOM     10  O   UNL     1      20.080 -12.468   1.752 -1.69 -0.00    +0.000 OA
DOCKED: ATOM     11  H   UNL     1      19.968  -9.544   3.051 -0.55 -0.00    +0.000 HD
DOCKED: BRANCH   9  12
DOCKED: ATOM     12  O   UNL     1      20.267 -11.213   4.172 -0.80 -0.00    +0.000 OA
DOCKED: ATOM     13  H   UNL     1      20.652 -12.081   3.971 -0.54 -0.00    +0.000 HD
DOCKED: ENDBRANCH   9  12
DOCKED: ENDBRANCH   7   8
DOCKED: ENDBRANCH   4   6
DOCKED: ENDBRANCH   1   3
DOCKED: BRANCH   1  14
DOCKED: ATOM     14  C   UNL     1      19.898 -10.718  -5.058 -0.42 -0.00    +0.000 C 
DOCKED: ATOM     15  O   UNL     1      20.682 -11.457  -5.716 -0.49 -0.00    +0.000 OA
DOCKED: BRANCH  14  19
DOCKED: ATOM     16  C   UNL     1      15.625 -11.120  -5.595 -0.24 -0.00    +0.000 A 
DOCKED: ATOM     17  C   UNL     1      16.163 -10.469  -4.466 -0.20 -0.00    +0.000 A 
DOCKED: ATOM     18  C   UNL     1      17.545 -10.347  -4.300 -0.21 -0.00    +0.000 A 
DOCKED: ATOM     19  C   UNL     1      18.432 -10.865  -5.258 -0.32 -0.00    +0.000 A 
DOCKED: ATOM     20  C   UNL     1      17.903 -11.524  -6.380 -0.30 -0.00    +0.000 A 
DOCKED: ATOM     21  C   UNL     1      16.520 -11.649  -6.547 -0.30 -0.00    +0.000 A 
DOCKED: BRANCH  16  23
DOCKED: ATOM     22  C   UNL     1      13.286 -10.179  -5.326 -0.17 -0.00    +0.000 C 
DOCKED: ATOM     23  N   UNL     1      14.189 -11.248  -5.768 -0.24 -0.00    +0.000 N 
DOCKED: ATOM     24  C   UNL     1      13.616 -12.450  -6.387 -0.33 -0.00    +0.000 C 
DOCKED: ENDBRANCH  16  23
DOCKED: ENDBRANCH  14  19
DOCKED: ENDBRANCH   1  14
DOCKED: TORSDOF 7
DOCKED: TER
DOCKED: ENDMDL
________________________________________________________________________________


	BEGINNING GENETIC ALGORITHM DOCKING 35 of 100
Run: 35 Seed: 378737696 1443734833 [ Run 35 of 100 GA/GALS ]
Beginning LAMARCKIAN GENETIC ALGORITHM (LGA), with a maximum of 2500000 energy evaluations.

Final-Value: -12.234


	FINAL GENETIC ALGORITHM DOCKED STATE
	_______________________________________________


Detailed state:  trans 15.448 -10.019 2.620 quatxyzw 0.341256 0.744165 -0.232020 0.525290 center 1.179 0.138 -0.353 ntor 7 -7.5534 64.4019 68.4632 -177.9747 125.3121 -27.8179 -64.7439
State:	 15.448 -10.019   2.620   0.401  0.875 -0.273 116.624     -7.55   64.40   68.46 -177.97  125.31  -27.82  -64.74

DOCKED: MODEL       35
DOCKED: USER    Run = 35
DOCKED: USER    DPF = ligand_dock.biased.dpf
DOCKED: USER  
DOCKED: USER    Estimated Free Energy of Binding    =   -8.46 kcal/mol  [=(1)+(2)+(3)-(4)]
DOCKED: USER    Estimated Inhibition Constant, Ki   =  634.13 nM (nanomolar)  [Temperature = 298.15 K]
DOCKED: USER    
DOCKED: USER    (1) Final Intermolecular Energy     =  -10.54 kcal/mol
DOCKED: USER        vdW + Hbond + desolv Energy     =  -10.54 kcal/mol
DOCKED: USER        Electrostatic Energy            =   +0.00 kcal/mol
DOCKED: USER    (2) Final Total Internal Energy     =   -1.69 kcal/mol
DOCKED: USER    (3) Torsional Free Energy           =   +2.09 kcal/mol
DOCKED: USER    (4) Unbound System's Energy  [=(2)] =   -1.69 kcal/mol
DOCKED: USER    
DOCKED: USER    
DOCKED: USER    NEWDPF move ligand.pdbqt
DOCKED: USER    NEWDPF about 1.179000 0.138000 -0.353000
DOCKED: USER    NEWDPF tran0 15.448418 -10.018545 2.619931
DOCKED: USER    NEWDPF quaternion0 0.341256 0.744165 -0.232020 0.525290
DOCKED: USER    NEWDPF axisangle0 0.401042 0.874538 -0.272668 116.624462
DOCKED: USER    NEWDPF quat0 0.401042 0.874538 -0.272668 116.624462
DOCKED: USER    NEWDPF dihe0 -7.55 64.40 68.46 -177.97 125.31 -27.82 -64.74 
DOCKED: USER  keepresnum = 1 
DOCKED: USER  
DOCKED: REMARK  Name = 
DOCKED: REMARK  11 active torsions:
DOCKED: REMARK  status: ('A' for Active; 'I' for Inactive)
DOCKED: REMARK    1  A    between atoms: C_1  and  N_2
DOCKED: REMARK    2  A    between atoms: N_2  and  C_3
DOCKED: REMARK    3  A    between atoms: N_2  and  C_22
DOCKED: REMARK    4  A    between atoms: C_6  and  C_9
DOCKED: REMARK    5  A    between atoms: C_9  and  C_10
DOCKED: REMARK    6  A    between atoms: C_10  and  C_11
DOCKED: REMARK    7  A    between atoms: C_10  and  C_20
DOCKED: REMARK    8  A    between atoms: C_12  and  C_13
DOCKED: REMARK    9  A    between atoms: C_12  and  C_19
DOCKED: REMARK   10  A    between atoms: C_14  and  C_15
DOCKED: REMARK   11  A    between atoms: N_16  and  O_17
DOCKED: REMARK                            x       y       z     vdW  Elec       q    Type
DOCKED: REMARK                         _______ _______ _______ _____ _____    ______ ____
DOCKED: USER                              x       y       z     vdW  Elec       q    Type
DOCKED: USER                           _______ _______ _______ _____ _____    ______ ____
DOCKED: ROOT
DOCKED: ATOM      1  C   UNL     1      13.654 -10.519   2.157 -0.34 +0.00    +0.000 C 
DOCKED: ATOM      2  C   UNL     1      12.179 -10.644   1.764 -0.30 +0.00    +0.000 C 
DOCKED: ENDROOT
DOCKED: BRANCH   1   3
DOCKED: ATOM      3  C   UNL     1      13.869  -9.298   3.026 -0.29 +0.00    +0.000 C 
DOCKED: ATOM      4  C   UNL     1      14.556  -9.298   4.187 -0.42 +0.00    +0.000 C 
DOCKED: ATOM      5  C   UNL     1      15.175 -10.561   4.746 -0.36 +0.00    +0.000 C 
DOCKED: BRANCH   4   6
DOCKED: ATOM      6  C   UNL     1      14.635  -8.024   4.949 -0.40 +0.00    +0.000 C 
DOCKED: ATOM      7  C   UNL     1      14.439  -6.821   4.387 -0.38 +0.00    +0.000 C 
DOCKED: BRANCH   7   8
DOCKED: ATOM      8  C   UNL     1      14.518  -5.551   5.138 -0.45 +0.00    +0.000 C 
DOCKED: ATOM      9  N   UNL     1      15.753  -4.853   5.340 -0.49 +0.00    +0.000 N 
DOCKED: ATOM     10  O   UNL     1      13.451  -5.058   5.595 -0.84 +0.00    +0.000 OA
DOCKED: ATOM     11  H   UNL     1      16.575  -5.175   4.902 -0.61 -0.00    +0.000 HD
DOCKED: BRANCH   9  12
DOCKED: ATOM     12  O   UNL     1      15.793  -3.754   6.129 -0.67 +0.00    +0.000 OA
DOCKED: ATOM     13  H   UNL     1      14.891  -3.505   6.383 -0.20 +0.00    +0.000 HD
DOCKED: ENDBRANCH   9  12
DOCKED: ENDBRANCH   7   8
DOCKED: ENDBRANCH   4   6
DOCKED: ENDBRANCH   1   3
DOCKED: BRANCH   1  14
DOCKED: ATOM     14  C   UNL     1      14.506 -10.438   0.907 -0.29 +0.00    +0.000 C 
DOCKED: ATOM     15  O   UNL     1      13.941 -10.209  -0.198 -0.23 +0.00    +0.000 OA
DOCKED: BRANCH  14  19
DOCKED: ATOM     16  C   UNL     1      18.792 -10.994   1.039 -0.49 -0.00    +0.000 A 
DOCKED: ATOM     17  C   UNL     1      18.094 -10.426   2.124 -0.46 -0.00    +0.000 A 
DOCKED: ATOM     18  C   UNL     1      16.710 -10.247   2.071 -0.38 +0.00    +0.000 A 
DOCKED: ATOM     19  C   UNL     1      15.979 -10.636   0.937 -0.31 +0.00    +0.000 A 
DOCKED: ATOM     20  C   UNL     1      16.670 -11.194  -0.152 -0.33 +0.00    +0.000 A 
DOCKED: ATOM     21  C   UNL     1      18.056 -11.371  -0.101 -0.42 -0.00    +0.000 A 
DOCKED: BRANCH  16  23
DOCKED: ATOM     22  C   UNL     1      21.072 -10.833  -0.059 -0.67 -0.00    +0.000 C 
DOCKED: ATOM     23  N   UNL     1      20.231 -11.180   1.093 -0.63 -0.00    +0.000 N 
DOCKED: ATOM     24  C   UNL     1      20.870 -11.719   2.299 -0.59 -0.00    +0.000 C 
DOCKED: ENDBRANCH  16  23
DOCKED: ENDBRANCH  14  19
DOCKED: ENDBRANCH   1  14
DOCKED: TORSDOF 7
DOCKED: TER
DOCKED: ENDMDL
________________________________________________________________________________


	BEGINNING GENETIC ALGORITHM DOCKING 36 of 100
Run: 36 Seed: 283087608 389318371 [ Run 36 of 100 GA/GALS ]
Beginning LAMARCKIAN GENETIC ALGORITHM (LGA), with a maximum of 2500000 energy evaluations.

Final-Value: -13.143


	FINAL GENETIC ALGORITHM DOCKED STATE
	_______________________________________________


Detailed state:  trans 18.597 -9.842 0.559 quatxyzw 0.052522 -0.304364 0.950230 -0.040838 center 1.179 0.138 -0.353 ntor 7 2.9370 144.1184 -154.6838 51.0506 -121.6874 118.7919 -67.7805
State:	 18.597  -9.842   0.559   0.053 -0.305  0.951 -175.319      2.94  144.12 -154.68   51.05 -121.69  118.79  -67.78

DOCKED: MODEL       36
DOCKED: USER    Run = 36
DOCKED: USER    DPF = ligand_dock.biased.dpf
DOCKED: USER  
DOCKED: USER    Estimated Free Energy of Binding    =   -9.80 kcal/mol  [=(1)+(2)+(3)-(4)]
DOCKED: USER    Estimated Inhibition Constant, Ki   =   65.01 nM (nanomolar)  [Temperature = 298.15 K]
DOCKED: USER    
DOCKED: USER    (1) Final Intermolecular Energy     =  -11.89 kcal/mol
DOCKED: USER        vdW + Hbond + desolv Energy     =  -11.89 kcal/mol
DOCKED: USER        Electrostatic Energy            =   +0.00 kcal/mol
DOCKED: USER    (2) Final Total Internal Energy     =   -1.25 kcal/mol
DOCKED: USER    (3) Torsional Free Energy           =   +2.09 kcal/mol
DOCKED: USER    (4) Unbound System's Energy  [=(2)] =   -1.25 kcal/mol
DOCKED: USER    
DOCKED: USER    
DOCKED: USER    NEWDPF move ligand.pdbqt
DOCKED: USER    NEWDPF about 1.179000 0.138000 -0.353000
DOCKED: USER    NEWDPF tran0 18.597200 -9.841857 0.558914
DOCKED: USER    NEWDPF quaternion0 0.052522 -0.304364 0.950230 -0.040838
DOCKED: USER    NEWDPF axisangle0 0.052566 -0.304618 0.951023 -175.318994
DOCKED: USER    NEWDPF quat0 0.052566 -0.304618 0.951023 -175.318994
DOCKED: USER    NEWDPF dihe0 2.94 144.12 -154.68 51.05 -121.69 118.79 -67.78 
DOCKED: USER  keepresnum = 1 
DOCKED: USER  
DOCKED: REMARK  Name = 
DOCKED: REMARK  11 active torsions:
DOCKED: REMARK  status: ('A' for Active; 'I' for Inactive)
DOCKED: REMARK    1  A    between atoms: C_1  and  N_2
DOCKED: REMARK    2  A    between atoms: N_2  and  C_3
DOCKED: REMARK    3  A    between atoms: N_2  and  C_22
DOCKED: REMARK    4  A    between atoms: C_6  and  C_9
DOCKED: REMARK    5  A    between atoms: C_9  and  C_10
DOCKED: REMARK    6  A    between atoms: C_10  and  C_11
DOCKED: REMARK    7  A    between atoms: C_10  and  C_20
DOCKED: REMARK    8  A    between atoms: C_12  and  C_13
DOCKED: REMARK    9  A    between atoms: C_12  and  C_19
DOCKED: REMARK   10  A    between atoms: C_14  and  C_15
DOCKED: REMARK   11  A    between atoms: N_16  and  O_17
DOCKED: REMARK                            x       y       z     vdW  Elec       q    Type
DOCKED: REMARK                         _______ _______ _______ _____ _____    ______ ____
DOCKED: USER                              x       y       z     vdW  Elec       q    Type
DOCKED: USER                           _______ _______ _______ _____ _____    ______ ____
DOCKED: ROOT
DOCKED: ATOM      1  C   UNL     1      19.064 -10.538   2.286 -0.63 -0.00    +0.000 C 
DOCKED: ATOM      2  C   UNL     1      19.220 -11.265   3.625 -0.57 -0.00    +0.000 C 
DOCKED: ENDROOT
DOCKED: BRANCH   1   3
DOCKED: ATOM      3  C   UNL     1      17.599 -10.395   1.929 -0.46 -0.00    +0.000 C 
DOCKED: ATOM      4  C   UNL     1      16.855 -11.363   1.355 -0.45 +0.00    +0.000 C 
DOCKED: ATOM      5  C   UNL     1      17.443 -12.710   0.993 -0.44 +0.00    +0.000 C 
DOCKED: BRANCH   4   6
DOCKED: ATOM      6  C   UNL     1      15.441 -11.048   1.023 -0.37 +0.00    +0.000 C 
DOCKED: ATOM      7  C   UNL     1      14.475 -11.978   0.973 -0.48 +0.00    +0.000 C 
DOCKED: BRANCH   7   8
DOCKED: ATOM      8  C   UNL     1      13.068 -11.671   0.643 -0.43 +0.00    +0.000 C 
DOCKED: ATOM      9  N   UNL     1      11.968 -12.237   1.367 -0.41 +0.00    +0.000 N 
DOCKED: ATOM     10  O   UNL     1      12.835 -10.863  -0.296 -0.32 +0.00    +0.000 OA
DOCKED: ATOM     11  H   UNL     1      12.139 -12.788   2.166 -0.59 +0.00    +0.000 HD
DOCKED: BRANCH   9  12
DOCKED: ATOM     12  O   UNL     1      10.697 -12.016   0.957 -0.51 +0.00    +0.000 OA
DOCKED: ATOM     13  H   UNL     1      10.706 -11.498   0.137 -0.03 +0.00    +0.000 HD
DOCKED: ENDBRANCH   9  12
DOCKED: ENDBRANCH   7   8
DOCKED: ENDBRANCH   4   6
DOCKED: ENDBRANCH   1   3
DOCKED: BRANCH   1  14
DOCKED: ATOM     14  C   UNL     1      19.802 -11.301   1.206 -0.70 -0.00    +0.000 C 
DOCKED: ATOM     15  O   UNL     1      20.228 -12.460   1.466 -1.58 -0.00    +0.000 OA
DOCKED: BRANCH  14  19
DOCKED: ATOM     16  C   UNL     1      20.582  -9.595  -2.691 -0.44 -0.00    +0.000 A 
DOCKED: ATOM     17  C   UNL     1      21.393  -9.284  -1.580 -0.51 -0.00    +0.000 A 
DOCKED: ATOM     18  C   UNL     1      21.131  -9.838  -0.325 -0.62 -0.00    +0.000 A 
DOCKED: ATOM     19  C   UNL     1      20.057 -10.723  -0.140 -0.55 -0.00    +0.000 A 
DOCKED: ATOM     20  C   UNL     1      19.239 -11.030  -1.241 -0.40 -0.00    +0.000 A 
DOCKED: ATOM     21  C   UNL     1      19.498 -10.475  -2.498 -0.39 -0.00    +0.000 A 
DOCKED: BRANCH  16  23
DOCKED: ATOM     22  C   UNL     1      20.915  -7.564  -4.172 -0.30 -0.00    +0.000 C 
DOCKED: ATOM     23  N   UNL     1      20.853  -9.021  -3.997 -0.33 -0.00    +0.000 N 
DOCKED: ATOM     24  C   UNL     1      21.067  -9.885  -5.163 -0.37 -0.00    +0.000 C 
DOCKED: ENDBRANCH  16  23
DOCKED: ENDBRANCH  14  19
DOCKED: ENDBRANCH   1  14
DOCKED: TORSDOF 7
DOCKED: TER
DOCKED: ENDMDL
________________________________________________________________________________


	BEGINNING GENETIC ALGORITHM DOCKING 37 of 100
Run: 37 Seed: 339344063 807106283 [ Run 37 of 100 GA/GALS ]
Beginning LAMARCKIAN GENETIC ALGORITHM (LGA), with a maximum of 2500000 energy evaluations.

Final-Value: -12.363


	FINAL GENETIC ALGORITHM DOCKED STATE
	_______________________________________________


Detailed state:  trans 23.324 -6.914 -2.613 quatxyzw 0.236999 -0.764736 -0.274771 -0.532458 center 1.179 0.138 -0.353 ntor 7 -64.5677 -161.2306 -146.7940 -31.5492 134.9740 -93.4574 176.0738
State:	 23.324  -6.914  -2.613   0.280 -0.903 -0.325 -115.657    -64.57 -161.23 -146.79  -31.55  134.97  -93.46  176.07

DOCKED: MODEL       37
DOCKED: USER    Run = 37
DOCKED: USER    DPF = ligand_dock.biased.dpf
DOCKED: USER  
DOCKED: USER    Estimated Free Energy of Binding    =   -9.12 kcal/mol  [=(1)+(2)+(3)-(4)]
DOCKED: USER    Estimated Inhibition Constant, Ki   =  207.29 nM (nanomolar)  [Temperature = 298.15 K]
DOCKED: USER    
DOCKED: USER    (1) Final Intermolecular Energy     =  -11.21 kcal/mol
DOCKED: USER        vdW + Hbond + desolv Energy     =  -11.21 kcal/mol
DOCKED: USER        Electrostatic Energy            =   +0.00 kcal/mol
DOCKED: USER    (2) Final Total Internal Energy     =   -1.16 kcal/mol
DOCKED: USER    (3) Torsional Free Energy           =   +2.09 kcal/mol
DOCKED: USER    (4) Unbound System's Energy  [=(2)] =   -1.16 kcal/mol
DOCKED: USER    
DOCKED: USER    
DOCKED: USER    NEWDPF move ligand.pdbqt
DOCKED: USER    NEWDPF about 1.179000 0.138000 -0.353000
DOCKED: USER    NEWDPF tran0 23.324101 -6.913646 -2.612790
DOCKED: USER    NEWDPF quaternion0 0.236999 -0.764736 -0.274771 -0.532458
DOCKED: USER    NEWDPF axisangle0 0.279989 -0.903455 -0.324614 -115.656637
DOCKED: USER    NEWDPF quat0 0.279989 -0.903455 -0.324614 -115.656637
DOCKED: USER    NEWDPF dihe0 -64.57 -161.23 -146.79 -31.55 134.97 -93.46 176.07 
DOCKED: USER  keepresnum = 1 
DOCKED: USER  
DOCKED: REMARK  Name = 
DOCKED: REMARK  11 active torsions:
DOCKED: REMARK  status: ('A' for Active; 'I' for Inactive)
DOCKED: REMARK    1  A    between atoms: C_1  and  N_2
DOCKED: REMARK    2  A    between atoms: N_2  and  C_3
DOCKED: REMARK    3  A    between atoms: N_2  and  C_22
DOCKED: REMARK    4  A    between atoms: C_6  and  C_9
DOCKED: REMARK    5  A    between atoms: C_9  and  C_10
DOCKED: REMARK    6  A    between atoms: C_10  and  C_11
DOCKED: REMARK    7  A    between atoms: C_10  and  C_20
DOCKED: REMARK    8  A    between atoms: C_12  and  C_13
DOCKED: REMARK    9  A    between atoms: C_12  and  C_19
DOCKED: REMARK   10  A    between atoms: C_14  and  C_15
DOCKED: REMARK   11  A    between atoms: N_16  and  O_17
DOCKED: REMARK                            x       y       z     vdW  Elec       q    Type
DOCKED: REMARK                         _______ _______ _______ _____ _____    ______ ____
DOCKED: USER                              x       y       z     vdW  Elec       q    Type
DOCKED: USER                           _______ _______ _______ _____ _____    ______ ____
DOCKED: ROOT
DOCKED: ATOM      1  C   UNL     1      21.711  -6.774  -3.643 -0.30 -0.00    +0.000 C 
DOCKED: ATOM      2  C   UNL     1      20.296  -6.650  -4.218 -0.23 -0.00    +0.000 C 
DOCKED: ENDROOT
DOCKED: BRANCH   1   3
DOCKED: ATOM      3  C   UNL     1      21.695  -7.598  -2.372 -0.33 -0.00    +0.000 C 
DOCKED: ATOM      4  C   UNL     1      21.387  -8.909  -2.315 -0.51 -0.00    +0.000 C 
DOCKED: ATOM      5  C   UNL     1      21.002  -9.691  -3.553 -0.48 -0.00    +0.000 C 
DOCKED: BRANCH   4   6
DOCKED: ATOM      6  C   UNL     1      21.370  -9.563  -0.980 -0.65 -0.00    +0.000 C 
DOCKED: ATOM      7  C   UNL     1      20.311 -10.234  -0.506 -0.61 -0.00    +0.000 C 
DOCKED: BRANCH   7   8
DOCKED: ATOM      8  C   UNL     1      20.288 -10.885   0.821 -0.69 -0.00    +0.000 C 
DOCKED: ATOM      9  N   UNL     1      19.899 -12.253   0.998 -0.63 -0.00    +0.000 N 
DOCKED: ATOM     10  O   UNL     1      20.647 -10.213   1.824 -0.66 -0.00    +0.000 OA
DOCKED: ATOM     11  H   UNL     1      19.716 -12.817   0.212 -0.41 -0.00    +0.000 HD
DOCKED: BRANCH   9  12
DOCKED: ATOM     12  O   UNL     1      19.786 -12.773   2.243 -1.42 -0.00    +0.000 OA
DOCKED: ATOM     13  H   UNL     1      20.656 -12.779   2.672 -0.58 -0.00    +0.000 HD
DOCKED: ENDBRANCH   9  12
DOCKED: ENDBRANCH   7   8
DOCKED: ENDBRANCH   4   6
DOCKED: ENDBRANCH   1   3
DOCKED: BRANCH   1  14
DOCKED: ATOM     14  C   UNL     1      22.272  -5.394  -3.375 -0.24 -0.00    +0.000 C 
DOCKED: ATOM     15  O   UNL     1      23.146  -4.931  -4.160 -0.20 -0.00    +0.000 OA
DOCKED: BRANCH  14  19
DOCKED: ATOM     16  C   UNL     1      20.980  -3.039   0.014 -0.39 +0.00    +0.000 A 
DOCKED: ATOM     17  C   UNL     1      20.179  -4.076  -0.504 -0.28 +0.00    +0.000 A 
DOCKED: ATOM     18  C   UNL     1      20.604  -4.829  -1.602 -0.38 -0.00    +0.000 A 
DOCKED: ATOM     19  C   UNL     1      21.843  -4.575  -2.211 -0.33 -0.00    +0.000 A 
DOCKED: ATOM     20  C   UNL     1      22.642  -3.536  -1.706 -0.28 +0.00    +0.000 A 
DOCKED: ATOM     21  C   UNL     1      22.218  -2.780  -0.609 -0.29 +0.00    +0.000 A 
DOCKED: BRANCH  16  23
DOCKED: ATOM     22  C   UNL     1      19.231  -2.504   1.770 -0.43 -0.00    +0.000 C 
DOCKED: ATOM     23  N   UNL     1      20.540  -2.255   1.154 -0.44 -0.00    +0.000 N 
DOCKED: ATOM     24  C   UNL     1      21.395  -1.198   1.709 -0.44 -0.00    +0.000 C 
DOCKED: ENDBRANCH  16  23
DOCKED: ENDBRANCH  14  19
DOCKED: ENDBRANCH   1  14
DOCKED: TORSDOF 7
DOCKED: TER
DOCKED: ENDMDL
________________________________________________________________________________


	BEGINNING GENETIC ALGORITHM DOCKING 38 of 100
Run: 38 Seed: 709527130 1867997342 [ Run 38 of 100 GA/GALS ]
Beginning LAMARCKIAN GENETIC ALGORITHM (LGA), with a maximum of 2500000 energy evaluations.

Final-Value: -13.349


	FINAL GENETIC ALGORITHM DOCKED STATE
	_______________________________________________


Detailed state:  trans 21.118 -8.491 -2.805 quatxyzw -0.595622 0.624298 -0.373554 0.340506 center 1.179 0.138 -0.353 ntor 7 27.0739 -163.5900 -39.3329 -163.3549 -107.0699 22.1665 153.3591
State:	 21.118  -8.491  -2.805  -0.633  0.664 -0.397 140.185     27.07 -163.59  -39.33 -163.35 -107.07   22.17  153.36

DOCKED: MODEL       38
DOCKED: USER    Run = 38
DOCKED: USER    DPF = ligand_dock.biased.dpf
DOCKED: USER  
DOCKED: USER    Estimated Free Energy of Binding    =   -9.62 kcal/mol  [=(1)+(2)+(3)-(4)]
DOCKED: USER    Estimated Inhibition Constant, Ki   =   88.54 nM (nanomolar)  [Temperature = 298.15 K]
DOCKED: USER    
DOCKED: USER    (1) Final Intermolecular Energy     =  -11.71 kcal/mol
DOCKED: USER        vdW + Hbond + desolv Energy     =  -11.71 kcal/mol
DOCKED: USER        Electrostatic Energy            =   +0.00 kcal/mol
DOCKED: USER    (2) Final Total Internal Energy     =   -1.64 kcal/mol
DOCKED: USER    (3) Torsional Free Energy           =   +2.09 kcal/mol
DOCKED: USER    (4) Unbound System's Energy  [=(2)] =   -1.64 kcal/mol
DOCKED: USER    
DOCKED: USER    
DOCKED: USER    NEWDPF move ligand.pdbqt
DOCKED: USER    NEWDPF about 1.179000 0.138000 -0.353000
DOCKED: USER    NEWDPF tran0 21.118019 -8.491486 -2.805076
DOCKED: USER    NEWDPF quaternion0 -0.595622 0.624298 -0.373554 0.340506
DOCKED: USER    NEWDPF axisangle0 -0.633477 0.663976 -0.397295 140.184632
DOCKED: USER    NEWDPF quat0 -0.633477 0.663976 -0.397295 140.184632
DOCKED: USER    NEWDPF dihe0 27.07 -163.59 -39.33 -163.35 -107.07 22.17 153.36 
DOCKED: USER  keepresnum = 1 
DOCKED: USER  
DOCKED: REMARK  Name = 
DOCKED: REMARK  11 active torsions:
DOCKED: REMARK  status: ('A' for Active; 'I' for Inactive)
DOCKED: REMARK    1  A    between atoms: C_1  and  N_2
DOCKED: REMARK    2  A    between atoms: N_2  and  C_3
DOCKED: REMARK    3  A    between atoms: N_2  and  C_22
DOCKED: REMARK    4  A    between atoms: C_6  and  C_9
DOCKED: REMARK    5  A    between atoms: C_9  and  C_10
DOCKED: REMARK    6  A    between atoms: C_10  and  C_11
DOCKED: REMARK    7  A    between atoms: C_10  and  C_20
DOCKED: REMARK    8  A    between atoms: C_12  and  C_13
DOCKED: REMARK    9  A    between atoms: C_12  and  C_19
DOCKED: REMARK   10  A    between atoms: C_14  and  C_15
DOCKED: REMARK   11  A    between atoms: N_16  and  O_17
DOCKED: REMARK                            x       y       z     vdW  Elec       q    Type
DOCKED: REMARK                         _______ _______ _______ _____ _____    ______ ____
DOCKED: USER                              x       y       z     vdW  Elec       q    Type
DOCKED: USER                           _______ _______ _______ _____ _____    ______ ____
DOCKED: ROOT
DOCKED: ATOM      1  C   UNL     1      21.648  -9.963  -3.918 -0.43 -0.00    +0.000 C 
DOCKED: ATOM      2  C   UNL     1      21.875 -11.280  -4.667 -0.46 -0.00    +0.000 C 
DOCKED: ENDROOT
DOCKED: BRANCH   1   3
DOCKED: ATOM      3  C   UNL     1      21.306 -10.232  -2.467 -0.57 -0.00    +0.000 C 
DOCKED: ATOM      4  C   UNL     1      21.021  -9.275  -1.559 -0.60 -0.00    +0.000 C 
DOCKED: ATOM      5  C   UNL     1      21.035  -7.806  -1.920 -0.45 -0.00    +0.000 C 
DOCKED: BRANCH   4   6
DOCKED: ATOM      6  C   UNL     1      20.753  -9.701  -0.161 -0.64 -0.00    +0.000 C 
DOCKED: ATOM      7  C   UNL     1      20.656 -10.987   0.208 -0.67 -0.00    +0.000 C 
DOCKED: BRANCH   7   8
DOCKED: ATOM      8  C   UNL     1      20.388 -11.417   1.596 -0.76 -0.00    +0.000 C 
DOCKED: ATOM      9  N   UNL     1      20.645 -10.572   2.725 -0.61 -0.00    +0.000 N 
DOCKED: ATOM     10  O   UNL     1      19.895 -12.561   1.785 -1.67 -0.00    +0.000 OA
DOCKED: ATOM     11  H   UNL     1      20.933  -9.640   2.584 -0.56 -0.00    +0.000 HD
DOCKED: BRANCH   9  12
DOCKED: ATOM     12  O   UNL     1      20.490 -11.049   3.982 -0.78 -0.00    +0.000 OA
DOCKED: ATOM     13  H   UNL     1      20.629 -12.009   3.983 -0.53 -0.00    +0.000 HD
DOCKED: ENDBRANCH   9  12
DOCKED: ENDBRANCH   7   8
DOCKED: ENDBRANCH   4   6
DOCKED: ENDBRANCH   1   3
DOCKED: BRANCH   1  14
DOCKED: ATOM     14  C   UNL     1      20.537  -9.183  -4.589 -0.32 -0.00    +0.000 C 
DOCKED: ATOM     15  O   UNL     1      20.750  -7.982  -4.913 -0.22 -0.00    +0.000 OA
DOCKED: BRANCH  14  19
DOCKED: ATOM     16  C   UNL     1      16.637 -10.895  -5.340 -0.23 -0.00    +0.000 A 
DOCKED: ATOM     17  C   UNL     1      16.888 -10.121  -4.188 -0.22 -0.00    +0.000 A 
DOCKED: ATOM     18  C   UNL     1      18.152  -9.575  -3.953 -0.23 -0.00    +0.000 A 
DOCKED: ATOM     19  C   UNL     1      19.203  -9.778  -4.862 -0.24 -0.00    +0.000 A 
DOCKED: ATOM     20  C   UNL     1      18.962 -10.556  -6.007 -0.30 -0.00    +0.000 A 
DOCKED: ATOM     21  C   UNL     1      17.698 -11.105  -6.243 -0.32 -0.00    +0.000 A 
DOCKED: BRANCH  16  23
DOCKED: ATOM     22  C   UNL     1      14.251 -11.318  -4.594 -0.30 -0.00    +0.000 C 
DOCKED: ATOM     23  N   UNL     1      15.324 -11.463  -5.585 -0.28 -0.00    +0.000 N 
DOCKED: ATOM     24  C   UNL     1      15.048 -12.195  -6.827 -0.35 -0.00    +0.000 C 
DOCKED: ENDBRANCH  16  23
DOCKED: ENDBRANCH  14  19
DOCKED: ENDBRANCH   1  14
DOCKED: TORSDOF 7
DOCKED: TER
DOCKED: ENDMDL
________________________________________________________________________________


	BEGINNING GENETIC ALGORITHM DOCKING 39 of 100
Run: 39 Seed: 1430731363 478220937 [ Run 39 of 100 GA/GALS ]
Beginning LAMARCKIAN GENETIC ALGORITHM (LGA), with a maximum of 2500000 energy evaluations.

Final-Value: -13.048


	FINAL GENETIC ALGORITHM DOCKED STATE
	_______________________________________________


Detailed state:  trans 18.248 -10.492 0.290 quatxyzw 0.026692 -0.223629 0.968559 0.105696 center 1.179 0.138 -0.353 ntor 7 -180.0000 126.2952 65.2068 31.2777 90.4328 -101.6836 -70.0156
State:	 18.248 -10.492   0.290   0.027 -0.225  0.974 167.865   -180.00  126.30   65.21   31.28   90.43 -101.68  -70.02

DOCKED: MODEL       39
DOCKED: USER    Run = 39
DOCKED: USER    DPF = ligand_dock.biased.dpf
DOCKED: USER  
DOCKED: USER    Estimated Free Energy of Binding    =  -10.03 kcal/mol  [=(1)+(2)+(3)-(4)]
DOCKED: USER    Estimated Inhibition Constant, Ki   =   44.42 nM (nanomolar)  [Temperature = 298.15 K]
DOCKED: USER    
DOCKED: USER    (1) Final Intermolecular Energy     =  -12.12 kcal/mol
DOCKED: USER        vdW + Hbond + desolv Energy     =  -12.12 kcal/mol
DOCKED: USER        Electrostatic Energy            =   +0.00 kcal/mol
DOCKED: USER    (2) Final Total Internal Energy     =   -0.93 kcal/mol
DOCKED: USER    (3) Torsional Free Energy           =   +2.09 kcal/mol
DOCKED: USER    (4) Unbound System's Energy  [=(2)] =   -0.93 kcal/mol
DOCKED: USER    
DOCKED: USER    
DOCKED: USER    NEWDPF move ligand.pdbqt
DOCKED: USER    NEWDPF about 1.179000 0.138000 -0.353000
DOCKED: USER    NEWDPF tran0 18.248389 -10.491914 0.289795
DOCKED: USER    NEWDPF quaternion0 0.026692 -0.223629 0.968559 0.105696
DOCKED: USER    NEWDPF axisangle0 0.026842 -0.224889 0.974015 167.865499
DOCKED: USER    NEWDPF quat0 0.026842 -0.224889 0.974015 167.865499
DOCKED: USER    NEWDPF dihe0 -180.00 126.30 65.21 31.28 90.43 -101.68 -70.02 
DOCKED: USER  keepresnum = 1 
DOCKED: USER  
DOCKED: REMARK  Name = 
DOCKED: REMARK  11 active torsions:
DOCKED: REMARK  status: ('A' for Active; 'I' for Inactive)
DOCKED: REMARK    1  A    between atoms: C_1  and  N_2
DOCKED: REMARK    2  A    between atoms: N_2  and  C_3
DOCKED: REMARK    3  A    between atoms: N_2  and  C_22
DOCKED: REMARK    4  A    between atoms: C_6  and  C_9
DOCKED: REMARK    5  A    between atoms: C_9  and  C_10
DOCKED: REMARK    6  A    between atoms: C_10  and  C_11
DOCKED: REMARK    7  A    between atoms: C_10  and  C_20
DOCKED: REMARK    8  A    between atoms: C_12  and  C_13
DOCKED: REMARK    9  A    between atoms: C_12  and  C_19
DOCKED: REMARK   10  A    between atoms: C_14  and  C_15
DOCKED: REMARK   11  A    between atoms: N_16  and  O_17
DOCKED: REMARK                            x       y       z     vdW  Elec       q    Type
DOCKED: REMARK                         _______ _______ _______ _____ _____    ______ ____
DOCKED: USER                              x       y       z     vdW  Elec       q    Type
DOCKED: USER                           _______ _______ _______ _____ _____    ______ ____
DOCKED: ROOT
DOCKED: ATOM      1  C   UNL     1      18.611 -10.798   2.150 -0.58 -0.00    +0.000 C 
DOCKED: ATOM      2  C   UNL     1      18.744 -11.271   3.601 -0.39 -0.00    +0.000 C 
DOCKED: ENDROOT
DOCKED: BRANCH   1   3
DOCKED: ATOM      3  C   UNL     1      17.231 -11.118   1.613 -0.46 +0.00    +0.000 C 
DOCKED: ATOM      4  C   UNL     1      16.078 -10.686   2.165 -0.43 +0.00    +0.000 C 
DOCKED: ATOM      5  C   UNL     1      16.063  -9.832   3.415 -0.46 +0.00    +0.000 C 
DOCKED: BRANCH   4   6
DOCKED: ATOM      6  C   UNL     1      14.802 -11.128   1.544 -0.41 +0.00    +0.000 C 
DOCKED: ATOM      7  C   UNL     1      13.604 -10.642   1.904 -0.34 +0.00    +0.000 C 
DOCKED: BRANCH   7   8
DOCKED: ATOM      8  C   UNL     1      12.332 -11.078   1.292 -0.38 +0.00    +0.000 C 
DOCKED: ATOM      9  N   UNL     1      11.640 -12.259   1.717 -0.42 +0.00    +0.000 N 
DOCKED: ATOM     10  O   UNL     1      11.832 -10.368   0.379 -0.25 +0.00    +0.000 OA
DOCKED: ATOM     11  H   UNL     1      11.967 -12.765   2.497 -0.60 +0.00    +0.000 HD
DOCKED: BRANCH   9  12
DOCKED: ATOM     12  O   UNL     1      10.539 -12.680   1.052 -0.41 +0.00    +0.000 OA
DOCKED: ATOM     13  H   UNL     1      10.197 -13.486   1.469 -0.60 -0.00    +0.000 HD
DOCKED: ENDBRANCH   9  12
DOCKED: ENDBRANCH   7   8
DOCKED: ENDBRANCH   4   6
DOCKED: ENDBRANCH   1   3
DOCKED: BRANCH   1  14
DOCKED: ATOM     14  C   UNL     1      19.676 -11.459   1.302 -0.70 -0.00    +0.000 C 
DOCKED: ATOM     15  O   UNL     1      20.372 -12.380   1.811 -1.64 -0.00    +0.000 OA
DOCKED: BRANCH  14  19
DOCKED: ATOM     16  C   UNL     1      20.404 -10.278  -2.795 -0.45 -0.00    +0.000 A 
DOCKED: ATOM     17  C   UNL     1      19.193 -10.891  -2.414 -0.38 -0.00    +0.000 A 
DOCKED: ATOM     18  C   UNL     1      18.969 -11.272  -1.089 -0.41 -0.00    +0.000 A 
DOCKED: ATOM     19  C   UNL     1      19.942 -11.047  -0.102 -0.53 -0.00    +0.000 A 
DOCKED: ATOM     20  C   UNL     1      21.155 -10.445  -0.477 -0.63 -0.00    +0.000 A 
DOCKED: ATOM     21  C   UNL     1      21.382 -10.064  -1.803 -0.53 -0.00    +0.000 A 
DOCKED: BRANCH  16  23
DOCKED: ATOM     22  C   UNL     1      20.927 -10.890  -5.199 -0.49 -0.00    +0.000 C 
DOCKED: ATOM     23  N   UNL     1      20.639  -9.882  -4.172 -0.35 -0.00    +0.000 N 
DOCKED: ATOM     24  C   UNL     1      20.594  -8.467  -4.560 -0.29 -0.00    +0.000 C 
DOCKED: ENDBRANCH  16  23
DOCKED: ENDBRANCH  14  19
DOCKED: ENDBRANCH   1  14
DOCKED: TORSDOF 7
DOCKED: TER
DOCKED: ENDMDL
________________________________________________________________________________


	BEGINNING GENETIC ALGORITHM DOCKING 40 of 100
Run: 40 Seed: 370338646 1345677335 [ Run 40 of 100 GA/GALS ]
Beginning LAMARCKIAN GENETIC ALGORITHM (LGA), with a maximum of 2500000 energy evaluations.

Final-Value: -12.951


	FINAL GENETIC ALGORITHM DOCKED STATE
	_______________________________________________


Detailed state:  trans 19.181 -9.860 -3.673 quatxyzw 0.760947 -0.353285 0.538333 -0.079667 center 1.179 0.138 -0.353 ntor 7 23.7966 133.6725 180.0000 7.3614 5.9409 -47.7611 -99.1988
State:	 19.181  -9.860  -3.673   0.763 -0.354  0.540 -170.861     23.80  133.67  180.00    7.36    5.94  -47.76  -99.20

DOCKED: MODEL       40
DOCKED: USER    Run = 40
DOCKED: USER    DPF = ligand_dock.biased.dpf
DOCKED: USER  
DOCKED: USER    Estimated Free Energy of Binding    =   -9.26 kcal/mol  [=(1)+(2)+(3)-(4)]
DOCKED: USER    Estimated Inhibition Constant, Ki   =  164.21 nM (nanomolar)  [Temperature = 298.15 K]
DOCKED: USER    
DOCKED: USER    (1) Final Intermolecular Energy     =  -11.34 kcal/mol
DOCKED: USER        vdW + Hbond + desolv Energy     =  -11.34 kcal/mol
DOCKED: USER        Electrostatic Energy            =   +0.00 kcal/mol
DOCKED: USER    (2) Final Total Internal Energy     =   -1.61 kcal/mol
DOCKED: USER    (3) Torsional Free Energy           =   +2.09 kcal/mol
DOCKED: USER    (4) Unbound System's Energy  [=(2)] =   -1.61 kcal/mol
DOCKED: USER    
DOCKED: USER    
DOCKED: USER    NEWDPF move ligand.pdbqt
DOCKED: USER    NEWDPF about 1.179000 0.138000 -0.353000
DOCKED: USER    NEWDPF tran0 19.180562 -9.859829 -3.672659
DOCKED: USER    NEWDPF quaternion0 0.760947 -0.353285 0.538333 -0.079667
DOCKED: USER    NEWDPF axisangle0 0.763373 -0.354411 0.540050 -170.861114
DOCKED: USER    NEWDPF quat0 0.763373 -0.354411 0.540050 -170.861114
DOCKED: USER    NEWDPF dihe0 23.80 133.67 180.00 7.36 5.94 -47.76 -99.20 
DOCKED: USER  keepresnum = 1 
DOCKED: USER  
DOCKED: REMARK  Name = 
DOCKED: REMARK  11 active torsions:
DOCKED: REMARK  status: ('A' for Active; 'I' for Inactive)
DOCKED: REMARK    1  A    between atoms: C_1  and  N_2
DOCKED: REMARK    2  A    between atoms: N_2  and  C_3
DOCKED: REMARK    3  A    between atoms: N_2  and  C_22
DOCKED: REMARK    4  A    between atoms: C_6  and  C_9
DOCKED: REMARK    5  A    between atoms: C_9  and  C_10
DOCKED: REMARK    6  A    between atoms: C_10  and  C_11
DOCKED: REMARK    7  A    between atoms: C_10  and  C_20
DOCKED: REMARK    8  A    between atoms: C_12  and  C_13
DOCKED: REMARK    9  A    between atoms: C_12  and  C_19
DOCKED: REMARK   10  A    between atoms: C_14  and  C_15
DOCKED: REMARK   11  A    between atoms: N_16  and  O_17
DOCKED: REMARK                            x       y       z     vdW  Elec       q    Type
DOCKED: REMARK                         _______ _______ _______ _____ _____    ______ ____
DOCKED: USER                              x       y       z     vdW  Elec       q    Type
DOCKED: USER                           _______ _______ _______ _____ _____    ______ ____
DOCKED: ROOT
DOCKED: ATOM      1  C   UNL     1      20.833 -10.303  -4.542 -0.45 -0.00    +0.000 C 
DOCKED: ATOM      2  C   UNL     1      22.111 -10.911  -5.129 -0.39 -0.00    +0.000 C 
DOCKED: ENDROOT
DOCKED: BRANCH   1   3
DOCKED: ATOM      3  C   UNL     1      20.551 -10.885  -3.173 -0.47 -0.00    +0.000 C 
DOCKED: ATOM      4  C   UNL     1      20.630 -10.192  -2.018 -0.57 -0.00    +0.000 C 
DOCKED: ATOM      5  C   UNL     1      21.035  -8.734  -1.990 -0.53 -0.00    +0.000 C 
DOCKED: BRANCH   4   6
DOCKED: ATOM      6  C   UNL     1      20.368 -10.923  -0.750 -0.53 -0.00    +0.000 C 
DOCKED: ATOM      7  C   UNL     1      20.709 -10.443   0.456 -0.69 -0.00    +0.000 C 
DOCKED: BRANCH   7   8
DOCKED: ATOM      8  C   UNL     1      20.453 -11.165   1.719 -0.74 -0.00    +0.000 C 
DOCKED: ATOM      9  N   UNL     1      20.467 -10.509   2.994 -0.64 -0.00    +0.000 N 
DOCKED: ATOM     10  O   UNL     1      20.189 -12.396   1.664 -1.69 -0.00    +0.000 OA
DOCKED: ATOM     11  H   UNL     1      20.570  -9.531   3.041 -0.58 -0.00    +0.000 HD
DOCKED: BRANCH   9  12
DOCKED: ATOM     12  O   UNL     1      20.338 -11.231   4.132 -0.78 -0.00    +0.000 OA
DOCKED: ATOM     13  H   UNL     1      20.618 -12.146   3.969 -0.52 -0.00    +0.000 HD
DOCKED: ENDBRANCH   9  12
DOCKED: ENDBRANCH   7   8
DOCKED: ENDBRANCH   4   6
DOCKED: ENDBRANCH   1   3
DOCKED: BRANCH   1  14
DOCKED: ATOM     14  C   UNL     1      19.672 -10.563  -5.479 -0.37 -0.00    +0.000 C 
DOCKED: ATOM     15  O   UNL     1      19.916 -10.835  -6.687 -0.35 -0.00    +0.000 OA
DOCKED: BRANCH  14  19
DOCKED: ATOM     16  C   UNL     1      15.544 -10.380  -4.202 -0.21 -0.00    +0.000 A 
DOCKED: ATOM     17  C   UNL     1      15.947 -11.222  -5.259 -0.18 -0.00    +0.000 A 
DOCKED: ATOM     18  C   UNL     1      17.282 -11.272  -5.666 -0.25 -0.00    +0.000 A 
DOCKED: ATOM     19  C   UNL     1      18.258 -10.488  -5.028 -0.28 -0.00    +0.000 A 
DOCKED: ATOM     20  C   UNL     1      17.861  -9.640  -3.980 -0.22 -0.00    +0.000 A 
DOCKED: ATOM     21  C   UNL     1      16.525  -9.588  -3.573 -0.21 -0.00    +0.000 A 
DOCKED: BRANCH  16  23
DOCKED: ATOM     22  C   UNL     1      13.125  -9.780  -4.667 -0.17 -0.00    +0.000 C 
DOCKED: ATOM     23  N   UNL     1      14.157 -10.327  -3.778 -0.22 -0.00    +0.000 N 
DOCKED: ATOM     24  C   UNL     1      13.762 -10.818  -2.452 -0.31 -0.00    +0.000 C 
DOCKED: ENDBRANCH  16  23
DOCKED: ENDBRANCH  14  19
DOCKED: ENDBRANCH   1  14
DOCKED: TORSDOF 7
DOCKED: TER
DOCKED: ENDMDL
________________________________________________________________________________


	BEGINNING GENETIC ALGORITHM DOCKING 41 of 100
Run: 41 Seed: 978540014 1183895058 [ Run 41 of 100 GA/GALS ]
Beginning LAMARCKIAN GENETIC ALGORITHM (LGA), with a maximum of 2500000 energy evaluations.

Final-Value: -13.023


	FINAL GENETIC ALGORITHM DOCKED STATE
	_______________________________________________


Detailed state:  trans 21.112 -9.027 -3.024 quatxyzw -0.655945 0.639369 -0.289126 0.278119 center 1.179 0.138 -0.353 ntor 7 40.3599 180.0000 112.8685 58.2144 68.3174 14.4549 -180.0000
State:	 21.112  -9.027  -3.024  -0.683  0.666 -0.301 147.704     40.36  180.00  112.87   58.21   68.32   14.45 -180.00

DOCKED: MODEL       41
DOCKED: USER    Run = 41
DOCKED: USER    DPF = ligand_dock.biased.dpf
DOCKED: USER  
DOCKED: USER    Estimated Free Energy of Binding    =   -9.26 kcal/mol  [=(1)+(2)+(3)-(4)]
DOCKED: USER    Estimated Inhibition Constant, Ki   =  163.57 nM (nanomolar)  [Temperature = 298.15 K]
DOCKED: USER    
DOCKED: USER    (1) Final Intermolecular Energy     =  -11.35 kcal/mol
DOCKED: USER        vdW + Hbond + desolv Energy     =  -11.35 kcal/mol
DOCKED: USER        Electrostatic Energy            =   +0.00 kcal/mol
DOCKED: USER    (2) Final Total Internal Energy     =   -1.68 kcal/mol
DOCKED: USER    (3) Torsional Free Energy           =   +2.09 kcal/mol
DOCKED: USER    (4) Unbound System's Energy  [=(2)] =   -1.68 kcal/mol
DOCKED: USER    
DOCKED: USER    
DOCKED: USER    NEWDPF move ligand.pdbqt
DOCKED: USER    NEWDPF about 1.179000 0.138000 -0.353000
DOCKED: USER    NEWDPF tran0 21.111662 -9.027025 -3.023564
DOCKED: USER    NEWDPF quaternion0 -0.655945 0.639369 -0.289126 0.278119
DOCKED: USER    NEWDPF axisangle0 -0.682887 0.665630 -0.301002 147.704069
DOCKED: USER    NEWDPF quat0 -0.682887 0.665630 -0.301002 147.704069
DOCKED: USER    NEWDPF dihe0 40.36 180.00 112.87 58.21 68.32 14.45 -180.00 
DOCKED: USER  keepresnum = 1 
DOCKED: USER  
DOCKED: REMARK  Name = 
DOCKED: REMARK  11 active torsions:
DOCKED: REMARK  status: ('A' for Active; 'I' for Inactive)
DOCKED: REMARK    1  A    between atoms: C_1  and  N_2
DOCKED: REMARK    2  A    between atoms: N_2  and  C_3
DOCKED: REMARK    3  A    between atoms: N_2  and  C_22
DOCKED: REMARK    4  A    between atoms: C_6  and  C_9
DOCKED: REMARK    5  A    between atoms: C_9  and  C_10
DOCKED: REMARK    6  A    between atoms: C_10  and  C_11
DOCKED: REMARK    7  A    between atoms: C_10  and  C_20
DOCKED: REMARK    8  A    between atoms: C_12  and  C_13
DOCKED: REMARK    9  A    between atoms: C_12  and  C_19
DOCKED: REMARK   10  A    between atoms: C_14  and  C_15
DOCKED: REMARK   11  A    between atoms: N_16  and  O_17
DOCKED: REMARK                            x       y       z     vdW  Elec       q    Type
DOCKED: REMARK                         _______ _______ _______ _____ _____    ______ ____
DOCKED: USER                              x       y       z     vdW  Elec       q    Type
DOCKED: USER                           _______ _______ _______ _____ _____    ______ ____
DOCKED: ROOT
DOCKED: ATOM      1  C   UNL     1      21.629 -10.175  -4.473 -0.45 -0.00    +0.000 C 
DOCKED: ATOM      2  C   UNL     1      21.860 -11.271  -5.517 -0.54 -0.00    +0.000 C 
DOCKED: ENDROOT
DOCKED: BRANCH   1   3
DOCKED: ATOM      3  C   UNL     1      21.389 -10.786  -3.108 -0.45 -0.00    +0.000 C 
DOCKED: ATOM      4  C   UNL     1      21.271 -10.080  -1.965 -0.59 -0.00    +0.000 C 
DOCKED: ATOM      5  C   UNL     1      21.388  -8.571  -1.945 -0.51 -0.00    +0.000 C 
DOCKED: BRANCH   4   6
DOCKED: ATOM      6  C   UNL     1      21.086 -10.835  -0.697 -0.57 -0.00    +0.000 C 
DOCKED: ATOM      7  C   UNL     1      20.325 -10.392   0.315 -0.65 -0.00    +0.000 C 
DOCKED: BRANCH   7   8
DOCKED: ATOM      8  C   UNL     1      20.137 -11.136   1.577 -0.73 -0.00    +0.000 C 
DOCKED: ATOM      9  N   UNL     1      20.293 -10.521   2.862 -0.66 -0.00    +0.000 N 
DOCKED: ATOM     10  O   UNL     1      19.804 -12.350   1.513 -1.65 -0.00    +0.000 OA
DOCKED: ATOM     11  H   UNL     1      20.451  -9.551   2.925 -0.57 -0.00    +0.000 HD
DOCKED: BRANCH   9  12
DOCKED: ATOM     12  O   UNL     1      20.221 -11.269   3.988 -0.83 -0.00    +0.000 OA
DOCKED: ATOM     13  H   UNL     1      20.680 -12.113   3.847 -0.52 -0.00    +0.000 HD
DOCKED: ENDBRANCH   9  12
DOCKED: ENDBRANCH   7   8
DOCKED: ENDBRANCH   4   6
DOCKED: ENDBRANCH   1   3
DOCKED: BRANCH   1  14
DOCKED: ATOM     14  C   UNL     1      20.449  -9.321  -4.887 -0.30 -0.00    +0.000 C 
DOCKED: ATOM     15  O   UNL     1      20.669  -8.199  -5.421 -0.18 -0.00    +0.000 OA
DOCKED: BRANCH  14  19
DOCKED: ATOM     16  C   UNL     1      16.359 -10.597  -4.297 -0.13 -0.00    +0.000 A 
DOCKED: ATOM     17  C   UNL     1      17.067 -10.929  -5.469 -0.24 -0.00    +0.000 A 
DOCKED: ATOM     18  C   UNL     1      18.387 -10.510  -5.652 -0.28 -0.00    +0.000 A 
DOCKED: ATOM     19  C   UNL     1      19.043  -9.752  -4.669 -0.24 -0.00    +0.000 A 
DOCKED: ATOM     20  C   UNL     1      18.339  -9.410  -3.501 -0.15 -0.00    +0.000 A 
DOCKED: ATOM     21  C   UNL     1      17.017  -9.827  -3.318 -0.21 -0.00    +0.000 A 
DOCKED: BRANCH  16  23
DOCKED: ATOM     22  C   UNL     1      14.161 -11.423  -5.254 -0.29 -0.00    +0.000 C 
DOCKED: ATOM     23  N   UNL     1      14.987 -11.032  -4.105 -0.27 -0.00    +0.000 N 
DOCKED: ATOM     24  C   UNL     1      14.401 -11.086  -2.760 -0.33 -0.00    +0.000 C 
DOCKED: ENDBRANCH  16  23
DOCKED: ENDBRANCH  14  19
DOCKED: ENDBRANCH   1  14
DOCKED: TORSDOF 7
DOCKED: TER
DOCKED: ENDMDL
________________________________________________________________________________


	BEGINNING GENETIC ALGORITHM DOCKING 42 of 100
Run: 42 Seed: 84794164 144100704 [ Run 42 of 100 GA/GALS ]
Beginning LAMARCKIAN GENETIC ALGORITHM (LGA), with a maximum of 2500000 energy evaluations.

Final-Value: -12.864


	FINAL GENETIC ALGORITHM DOCKED STATE
	_______________________________________________


Detailed state:  trans 18.886 -9.894 -3.748 quatxyzw -0.740838 0.341570 -0.562611 0.134009 center 1.179 0.138 -0.353 ntor 7 22.3743 149.3090 -136.2771 -32.2899 177.8330 -52.8223 -98.0797
State:	 18.886  -9.894  -3.748  -0.748  0.345 -0.568 164.597     22.37  149.31 -136.28  -32.29  177.83  -52.82  -98.08

DOCKED: MODEL       42
DOCKED: USER    Run = 42
DOCKED: USER    DPF = ligand_dock.biased.dpf
DOCKED: USER  
DOCKED: USER    Estimated Free Energy of Binding    =   -9.28 kcal/mol  [=(1)+(2)+(3)-(4)]
DOCKED: USER    Estimated Inhibition Constant, Ki   =  157.25 nM (nanomolar)  [Temperature = 298.15 K]
DOCKED: USER    
DOCKED: USER    (1) Final Intermolecular Energy     =  -11.37 kcal/mol
DOCKED: USER        vdW + Hbond + desolv Energy     =  -11.37 kcal/mol
DOCKED: USER        Electrostatic Energy            =   +0.00 kcal/mol
DOCKED: USER    (2) Final Total Internal Energy     =   -1.49 kcal/mol
DOCKED: USER    (3) Torsional Free Energy           =   +2.09 kcal/mol
DOCKED: USER    (4) Unbound System's Energy  [=(2)] =   -1.49 kcal/mol
DOCKED: USER    
DOCKED: USER    
DOCKED: USER    NEWDPF move ligand.pdbqt
DOCKED: USER    NEWDPF about 1.179000 0.138000 -0.353000
DOCKED: USER    NEWDPF tran0 18.885827 -9.893919 -3.747547
DOCKED: USER    NEWDPF quaternion0 -0.740838 0.341570 -0.562611 0.134009
DOCKED: USER    NEWDPF axisangle0 -0.747581 0.344678 -0.567732 164.597404
DOCKED: USER    NEWDPF quat0 -0.747581 0.344678 -0.567732 164.597404
DOCKED: USER    NEWDPF dihe0 22.37 149.31 -136.28 -32.29 177.83 -52.82 -98.08 
DOCKED: USER  keepresnum = 1 
DOCKED: USER  
DOCKED: REMARK  Name = 
DOCKED: REMARK  11 active torsions:
DOCKED: REMARK  status: ('A' for Active; 'I' for Inactive)
DOCKED: REMARK    1  A    between atoms: C_1  and  N_2
DOCKED: REMARK    2  A    between atoms: N_2  and  C_3
DOCKED: REMARK    3  A    between atoms: N_2  and  C_22
DOCKED: REMARK    4  A    between atoms: C_6  and  C_9
DOCKED: REMARK    5  A    between atoms: C_9  and  C_10
DOCKED: REMARK    6  A    between atoms: C_10  and  C_11
DOCKED: REMARK    7  A    between atoms: C_10  and  C_20
DOCKED: REMARK    8  A    between atoms: C_12  and  C_13
DOCKED: REMARK    9  A    between atoms: C_12  and  C_19
DOCKED: REMARK   10  A    between atoms: C_14  and  C_15
DOCKED: REMARK   11  A    between atoms: N_16  and  O_17
DOCKED: REMARK                            x       y       z     vdW  Elec       q    Type
DOCKED: REMARK                         _______ _______ _______ _____ _____    ______ ____
DOCKED: USER                              x       y       z     vdW  Elec       q    Type
DOCKED: USER                           _______ _______ _______ _____ _____    ______ ____
DOCKED: ROOT
DOCKED: ATOM      1  C   UNL     1      20.526 -10.517  -4.525 -0.46 -0.00    +0.000 C 
DOCKED: ATOM      2  C   UNL     1      21.780 -11.252  -5.011 -0.55 -0.00    +0.000 C 
DOCKED: ENDROOT
DOCKED: BRANCH   1   3
DOCKED: ATOM      3  C   UNL     1      20.193 -10.921  -3.104 -0.45 -0.00    +0.000 C 
DOCKED: ATOM      4  C   UNL     1      20.382 -10.137  -2.023 -0.54 -0.00    +0.000 C 
DOCKED: ATOM      5  C   UNL     1      20.976  -8.750  -2.139 -0.51 -0.00    +0.000 C 
DOCKED: BRANCH   4   6
DOCKED: ATOM      6  C   UNL     1      20.048 -10.700  -0.688 -0.57 -0.00    +0.000 C 
DOCKED: ATOM      7  C   UNL     1      20.925 -10.752   0.326 -0.70 -0.00    +0.000 C 
DOCKED: BRANCH   7   8
DOCKED: ATOM      8  C   UNL     1      20.599 -11.311   1.654 -0.75 -0.00    +0.000 C 
DOCKED: ATOM      9  N   UNL     1      20.640 -10.523   2.850 -0.62 -0.00    +0.000 N 
DOCKED: ATOM     10  O   UNL     1      20.251 -12.520   1.726 -1.61 -0.00    +0.000 OA
DOCKED: ATOM     11  H   UNL     1      20.810  -9.554   2.793 -0.57 -0.00    +0.000 HD
DOCKED: BRANCH   9  12
DOCKED: ATOM     12  O   UNL     1      20.444 -11.105   4.056 -0.76 -0.00    +0.000 OA
DOCKED: ATOM     13  H   UNL     1      20.640 -12.053   3.994 -0.54 -0.00    +0.000 HD
DOCKED: ENDBRANCH   9  12
DOCKED: ENDBRANCH   7   8
DOCKED: ENDBRANCH   4   6
DOCKED: ENDBRANCH   1   3
DOCKED: BRANCH   1  14
DOCKED: ATOM     14  C   UNL     1      19.368 -10.825  -5.450 -0.40 -0.00    +0.000 C 
DOCKED: ATOM     15  O   UNL     1      19.615 -11.268  -6.606 -0.40 -0.00    +0.000 OA
DOCKED: BRANCH  14  19
DOCKED: ATOM     16  C   UNL     1      15.268 -10.155  -4.249 -0.20 -0.00    +0.000 A 
DOCKED: ATOM     17  C   UNL     1      16.335  -9.499  -3.605 -0.20 -0.00    +0.000 A 
DOCKED: ATOM     18  C   UNL     1      17.657  -9.724  -3.998 -0.23 -0.00    +0.000 A 
DOCKED: ATOM     19  C   UNL     1      17.953 -10.606  -5.050 -0.26 -0.00    +0.000 A 
DOCKED: ATOM     20  C   UNL     1      16.894 -11.271  -5.690 -0.24 -0.00    +0.000 A 
DOCKED: ATOM     21  C   UNL     1      15.571 -11.048  -5.297 -0.23 -0.00    +0.000 A 
DOCKED: BRANCH  16  23
DOCKED: ATOM     22  C   UNL     1      13.505 -10.036  -2.430 -0.25 -0.00    +0.000 C 
DOCKED: ATOM     23  N   UNL     1      13.894  -9.922  -3.842 -0.18 -0.00    +0.000 N 
DOCKED: ATOM     24  C   UNL     1      12.870  -9.572  -4.833 -0.15 -0.00    +0.000 C 
DOCKED: ENDBRANCH  16  23
DOCKED: ENDBRANCH  14  19
DOCKED: ENDBRANCH   1  14
DOCKED: TORSDOF 7
DOCKED: TER
DOCKED: ENDMDL
________________________________________________________________________________


	BEGINNING GENETIC ALGORITHM DOCKING 43 of 100
Run: 43 Seed: 1343678587 1433550092 [ Run 43 of 100 GA/GALS ]
Beginning LAMARCKIAN GENETIC ALGORITHM (LGA), with a maximum of 2500000 energy evaluations.

Final-Value: -12.064


	FINAL GENETIC ALGORITHM DOCKED STATE
	_______________________________________________


Detailed state:  trans 22.021 -11.286 -5.575 quatxyzw 0.039915 0.732529 0.154282 0.661819 center 1.179 0.138 -0.353 ntor 7 -103.6464 -125.5398 -138.9083 87.1196 16.3999 143.1400 -62.3774
State:	 22.021 -11.286  -5.575   0.053  0.977  0.206 97.123   -103.65 -125.54 -138.91   87.12   16.40  143.14  -62.38

DOCKED: MODEL       43
DOCKED: USER    Run = 43
DOCKED: USER    DPF = ligand_dock.biased.dpf
DOCKED: USER  
DOCKED: USER    Estimated Free Energy of Binding    =   -8.93 kcal/mol  [=(1)+(2)+(3)-(4)]
DOCKED: USER    Estimated Inhibition Constant, Ki   =  286.38 nM (nanomolar)  [Temperature = 298.15 K]
DOCKED: USER    
DOCKED: USER    (1) Final Intermolecular Energy     =  -11.01 kcal/mol
DOCKED: USER        vdW + Hbond + desolv Energy     =  -11.01 kcal/mol
DOCKED: USER        Electrostatic Energy            =   +0.00 kcal/mol
DOCKED: USER    (2) Final Total Internal Energy     =   -1.05 kcal/mol
DOCKED: USER    (3) Torsional Free Energy           =   +2.09 kcal/mol
DOCKED: USER    (4) Unbound System's Energy  [=(2)] =   -1.05 kcal/mol
DOCKED: USER    
DOCKED: USER    
DOCKED: USER    NEWDPF move ligand.pdbqt
DOCKED: USER    NEWDPF about 1.179000 0.138000 -0.353000
DOCKED: USER    NEWDPF tran0 22.021486 -11.286097 -5.574599
DOCKED: USER    NEWDPF quaternion0 0.039915 0.732529 0.154282 0.661819
DOCKED: USER    NEWDPF axisangle0 0.053244 0.977144 0.205802 97.122514
DOCKED: USER    NEWDPF quat0 0.053244 0.977144 0.205802 97.122514
DOCKED: USER    NEWDPF dihe0 -103.65 -125.54 -138.91 87.12 16.40 143.14 -62.38 
DOCKED: USER  keepresnum = 1 
DOCKED: USER  
DOCKED: REMARK  Name = 
DOCKED: REMARK  11 active torsions:
DOCKED: REMARK  status: ('A' for Active; 'I' for Inactive)
DOCKED: REMARK    1  A    between atoms: C_1  and  N_2
DOCKED: REMARK    2  A    between atoms: N_2  and  C_3
DOCKED: REMARK    3  A    between atoms: N_2  and  C_22
DOCKED: REMARK    4  A    between atoms: C_6  and  C_9
DOCKED: REMARK    5  A    between atoms: C_9  and  C_10
DOCKED: REMARK    6  A    between atoms: C_10  and  C_11
DOCKED: REMARK    7  A    between atoms: C_10  and  C_20
DOCKED: REMARK    8  A    between atoms: C_12  and  C_13
DOCKED: REMARK    9  A    between atoms: C_12  and  C_19
DOCKED: REMARK   10  A    between atoms: C_14  and  C_15
DOCKED: REMARK   11  A    between atoms: N_16  and  O_17
DOCKED: REMARK                            x       y       z     vdW  Elec       q    Type
DOCKED: REMARK                         _______ _______ _______ _____ _____    ______ ____
DOCKED: USER                              x       y       z     vdW  Elec       q    Type
DOCKED: USER                           _______ _______ _______ _____ _____    ______ ____
DOCKED: ROOT
DOCKED: ATOM      1  C   UNL     1      20.170 -11.187  -6.072 -0.33 -0.00    +0.000 C 
DOCKED: ATOM      2  C   UNL     1      18.667 -10.946  -6.242 -0.37 -0.00    +0.000 C 
DOCKED: ENDROOT
DOCKED: BRANCH   1   3
DOCKED: ATOM      3  C   UNL     1      20.526 -11.290  -4.603 -0.52 -0.00    +0.000 C 
DOCKED: ATOM      4  C   UNL     1      20.276 -10.332  -3.688 -0.46 -0.00    +0.000 C 
DOCKED: ATOM      5  C   UNL     1      19.613  -9.024  -4.064 -0.28 -0.00    +0.000 C 
DOCKED: BRANCH   4   6
DOCKED: ATOM      6  C   UNL     1      20.733 -10.567  -2.292 -0.53 -0.00    +0.000 C 
DOCKED: ATOM      7  C   UNL     1      19.891 -10.681  -1.255 -0.51 -0.00    +0.000 C 
DOCKED: BRANCH   7   8
DOCKED: ATOM      8  C   UNL     1      20.338 -10.914   0.134 -0.66 -0.00    +0.000 C 
DOCKED: ATOM      9  N   UNL     1      19.928 -12.059   0.891 -0.63 -0.00    +0.000 N 
DOCKED: ATOM     10  O   UNL     1      21.129 -10.082   0.656 -0.72 -0.00    +0.000 OA
DOCKED: ATOM     11  H   UNL     1      19.395 -12.766   0.460 -0.39 -0.00    +0.000 HD
DOCKED: BRANCH   9  12
DOCKED: ATOM     12  O   UNL     1      20.273 -12.172   2.195 -1.60 -0.00    +0.000 OA
DOCKED: ATOM     13  H   UNL     1      20.999 -12.810   2.284 -0.58 -0.00    +0.000 HD
DOCKED: ENDBRANCH   9  12
DOCKED: ENDBRANCH   7   8
DOCKED: ENDBRANCH   4   6
DOCKED: ENDBRANCH   1   3
DOCKED: BRANCH   1  14
DOCKED: ATOM     14  C   UNL     1      20.941 -10.060  -6.727 -0.28 -0.00    +0.000 C 
DOCKED: ATOM     15  O   UNL     1      20.332  -8.992  -7.009 -0.14 -0.00    +0.000 OA
DOCKED: BRANCH  14  19
DOCKED: ATOM     16  C   UNL     1      25.145 -10.357  -7.697 -0.31 -0.00    +0.000 A 
DOCKED: ATOM     17  C   UNL     1      24.594  -9.164  -7.187 -0.20 -0.00    +0.000 A 
DOCKED: ATOM     18  C   UNL     1      23.234  -9.077  -6.880 -0.22 -0.00    +0.000 A 
DOCKED: ATOM     19  C   UNL     1      22.384 -10.179  -7.066 -0.29 -0.00    +0.000 A 
DOCKED: ATOM     20  C   UNL     1      22.925 -11.368  -7.583 -0.39 -0.00    +0.000 A 
DOCKED: ATOM     21  C   UNL     1      24.285 -11.456  -7.893 -0.40 -0.00    +0.000 A 
DOCKED: BRANCH  16  23
DOCKED: ATOM     22  C   UNL     1      27.553  -9.722  -7.219 -0.49 -0.00    +0.000 C 
DOCKED: ATOM     23  N   UNL     1      26.559 -10.449  -8.018 -0.40 -0.00    +0.000 N 
DOCKED: ATOM     24  C   UNL     1      27.017 -11.268  -9.146 -0.29 -0.00    +0.000 C 
DOCKED: ENDBRANCH  16  23
DOCKED: ENDBRANCH  14  19
DOCKED: ENDBRANCH   1  14
DOCKED: TORSDOF 7
DOCKED: TER
DOCKED: ENDMDL
________________________________________________________________________________


	BEGINNING GENETIC ALGORITHM DOCKING 44 of 100
Run: 44 Seed: 1492573856 1725042001 [ Run 44 of 100 GA/GALS ]
Beginning LAMARCKIAN GENETIC ALGORITHM (LGA), with a maximum of 2500000 energy evaluations.

Final-Value: -12.811


	FINAL GENETIC ALGORITHM DOCKED STATE
	_______________________________________________


Detailed state:  trans 19.805 -8.996 -2.713 quatxyzw -0.740255 0.415122 -0.450446 0.277119 center 1.179 0.138 -0.353 ntor 7 11.0643 110.4817 -0.9601 180.0000 -64.8961 -25.0203 -128.9925
State:	 19.805  -8.996  -2.713  -0.770  0.432 -0.469 147.823     11.06  110.48   -0.96  180.00  -64.90  -25.02 -128.99

DOCKED: MODEL       44
DOCKED: USER    Run = 44
DOCKED: USER    DPF = ligand_dock.biased.dpf
DOCKED: USER  
DOCKED: USER    Estimated Free Energy of Binding    =   -9.20 kcal/mol  [=(1)+(2)+(3)-(4)]
DOCKED: USER    Estimated Inhibition Constant, Ki   =  181.01 nM (nanomolar)  [Temperature = 298.15 K]
DOCKED: USER    
DOCKED: USER    (1) Final Intermolecular Energy     =  -11.29 kcal/mol
DOCKED: USER        vdW + Hbond + desolv Energy     =  -11.29 kcal/mol
DOCKED: USER        Electrostatic Energy            =   +0.00 kcal/mol
DOCKED: USER    (2) Final Total Internal Energy     =   -1.52 kcal/mol
DOCKED: USER    (3) Torsional Free Energy           =   +2.09 kcal/mol
DOCKED: USER    (4) Unbound System's Energy  [=(2)] =   -1.52 kcal/mol
DOCKED: USER    
DOCKED: USER    
DOCKED: USER    NEWDPF move ligand.pdbqt
DOCKED: USER    NEWDPF about 1.179000 0.138000 -0.353000
DOCKED: USER    NEWDPF tran0 19.804926 -8.995720 -2.713101
DOCKED: USER    NEWDPF quaternion0 -0.740255 0.415122 -0.450446 0.277119
DOCKED: USER    NEWDPF axisangle0 -0.770428 0.432043 -0.468806 147.823325
DOCKED: USER    NEWDPF quat0 -0.770428 0.432043 -0.468806 147.823325
DOCKED: USER    NEWDPF dihe0 11.06 110.48 -0.96 180.00 -64.90 -25.02 -128.99 
DOCKED: USER  keepresnum = 1 
DOCKED: USER  
DOCKED: REMARK  Name = 
DOCKED: REMARK  11 active torsions:
DOCKED: REMARK  status: ('A' for Active; 'I' for Inactive)
DOCKED: REMARK    1  A    between atoms: C_1  and  N_2
DOCKED: REMARK    2  A    between atoms: N_2  and  C_3
DOCKED: REMARK    3  A    between atoms: N_2  and  C_22
DOCKED: REMARK    4  A    between atoms: C_6  and  C_9
DOCKED: REMARK    5  A    between atoms: C_9  and  C_10
DOCKED: REMARK    6  A    between atoms: C_10  and  C_11
DOCKED: REMARK    7  A    between atoms: C_10  and  C_20
DOCKED: REMARK    8  A    between atoms: C_12  and  C_13
DOCKED: REMARK    9  A    between atoms: C_12  and  C_19
DOCKED: REMARK   10  A    between atoms: C_14  and  C_15
DOCKED: REMARK   11  A    between atoms: N_16  and  O_17
DOCKED: REMARK                            x       y       z     vdW  Elec       q    Type
DOCKED: REMARK                         _______ _______ _______ _____ _____    ______ ____
DOCKED: USER                              x       y       z     vdW  Elec       q    Type
DOCKED: USER                           _______ _______ _______ _____ _____    ______ ____
DOCKED: ROOT
DOCKED: ATOM      1  C   UNL     1      20.951 -10.096  -3.791 -0.48 -0.00    +0.000 C 
DOCKED: ATOM      2  C   UNL     1      21.779 -11.181  -4.486 -0.47 -0.00    +0.000 C 
DOCKED: ENDROOT
DOCKED: BRANCH   1   3
DOCKED: ATOM      3  C   UNL     1      20.878 -10.359  -2.301 -0.56 -0.00    +0.000 C 
DOCKED: ATOM      4  C   UNL     1      21.063  -9.421  -1.349 -0.62 -0.00    +0.000 C 
DOCKED: ATOM      5  C   UNL     1      21.388  -7.985  -1.699 -0.48 -0.00    +0.000 C 
DOCKED: BRANCH   4   6
DOCKED: ATOM      6  C   UNL     1      21.005  -9.852   0.072 -0.68 -0.00    +0.000 C 
DOCKED: ATOM      7  C   UNL     1      20.359 -10.955   0.478 -0.68 -0.00    +0.000 C 
DOCKED: BRANCH   7   8
DOCKED: ATOM      8  C   UNL     1      20.297 -11.388   1.889 -0.77 -0.00    +0.000 C 
DOCKED: ATOM      9  N   UNL     1      20.604 -10.507   2.977 -0.62 -0.00    +0.000 N 
DOCKED: ATOM     10  O   UNL     1      19.938 -12.570   2.139 -1.58 -0.00    +0.000 OA
DOCKED: ATOM     11  H   UNL     1      20.785  -9.555   2.801 -0.57 -0.00    +0.000 HD
DOCKED: BRANCH   9  12
DOCKED: ATOM     12  O   UNL     1      20.642 -10.978   4.245 -0.72 -0.00    +0.000 OA
DOCKED: ATOM     13  H   UNL     1      20.616 -11.948   4.232 -0.47 -0.00    +0.000 HD
DOCKED: ENDBRANCH   9  12
DOCKED: ENDBRANCH   7   8
DOCKED: ENDBRANCH   4   6
DOCKED: ENDBRANCH   1   3
DOCKED: BRANCH   1  14
DOCKED: ATOM     14  C   UNL     1      19.562 -10.054  -4.392 -0.34 -0.00    +0.000 C 
DOCKED: ATOM     15  O   UNL     1      19.446  -9.995  -5.647 -0.24 -0.00    +0.000 OA
DOCKED: BRANCH  14  19
DOCKED: ATOM     16  C   UNL     1      15.970 -10.044  -1.983 -0.23 -0.00    +0.000 A 
DOCKED: ATOM     17  C   UNL     1      16.098  -9.207  -3.110 -0.15 -0.00    +0.000 A 
DOCKED: ATOM     18  C   UNL     1      17.264  -9.216  -3.880 -0.18 -0.00    +0.000 A 
DOCKED: ATOM     19  C   UNL     1      18.335 -10.063  -3.554 -0.27 -0.00    +0.000 A 
DOCKED: ATOM     20  C   UNL     1      18.218 -10.893  -2.426 -0.13 -0.00    +0.000 A 
DOCKED: ATOM     21  C   UNL     1      17.052 -10.884  -1.653 -0.20 -0.00    +0.000 A 
DOCKED: BRANCH  16  23
DOCKED: ATOM     22  C   UNL     1      14.626  -9.123  -0.040 -0.26 -0.00    +0.000 C 
DOCKED: ATOM     23  N   UNL     1      14.760 -10.037  -1.181 -0.23 -0.00    +0.000 N 
DOCKED: ATOM     24  C   UNL     1      13.650 -10.944  -1.497 -0.33 -0.00    +0.000 C 
DOCKED: ENDBRANCH  16  23
DOCKED: ENDBRANCH  14  19
DOCKED: ENDBRANCH   1  14
DOCKED: TORSDOF 7
DOCKED: TER
DOCKED: ENDMDL
________________________________________________________________________________


	BEGINNING GENETIC ALGORITHM DOCKING 45 of 100
Run: 45 Seed: 177965477 161378157 [ Run 45 of 100 GA/GALS ]
Beginning LAMARCKIAN GENETIC ALGORITHM (LGA), with a maximum of 2500000 energy evaluations.

Final-Value: -11.622


	FINAL GENETIC ALGORITHM DOCKED STATE
	_______________________________________________


Detailed state:  trans 20.044 -11.593 -3.108 quatxyzw 0.185392 -0.915435 -0.222775 0.279249 center 1.179 0.138 -0.353 ntor 7 -9.4094 179.8271 180.0000 129.3739 89.8614 138.8666 -73.7150
State:	 20.044 -11.593  -3.108   0.193 -0.953 -0.232 147.569     -9.41  179.83  180.00  129.37   89.86  138.87  -73.72

DOCKED: MODEL       45
DOCKED: USER    Run = 45
DOCKED: USER    DPF = ligand_dock.biased.dpf
DOCKED: USER  
DOCKED: USER    Estimated Free Energy of Binding    =   -7.92 kcal/mol  [=(1)+(2)+(3)-(4)]
DOCKED: USER    Estimated Inhibition Constant, Ki   =    1.55 uM (micromolar)  [Temperature = 298.15 K]
DOCKED: USER    
DOCKED: USER    (1) Final Intermolecular Energy     =  -10.01 kcal/mol
DOCKED: USER        vdW + Hbond + desolv Energy     =  -10.01 kcal/mol
DOCKED: USER        Electrostatic Energy            =   +0.00 kcal/mol
DOCKED: USER    (2) Final Total Internal Energy     =   -1.61 kcal/mol
DOCKED: USER    (3) Torsional Free Energy           =   +2.09 kcal/mol
DOCKED: USER    (4) Unbound System's Energy  [=(2)] =   -1.61 kcal/mol
DOCKED: USER    
DOCKED: USER    
DOCKED: USER    NEWDPF move ligand.pdbqt
DOCKED: USER    NEWDPF about 1.179000 0.138000 -0.353000
DOCKED: USER    NEWDPF tran0 20.044278 -11.593454 -3.107592
DOCKED: USER    NEWDPF quaternion0 0.185392 -0.915435 -0.222775 0.279249
DOCKED: USER    NEWDPF axisangle0 0.193073 -0.953361 -0.232005 147.569218
DOCKED: USER    NEWDPF quat0 0.193073 -0.953361 -0.232005 147.569218
DOCKED: USER    NEWDPF dihe0 -9.41 179.83 180.00 129.37 89.86 138.87 -73.72 
DOCKED: USER  keepresnum = 1 
DOCKED: USER  
DOCKED: REMARK  Name = 
DOCKED: REMARK  11 active torsions:
DOCKED: REMARK  status: ('A' for Active; 'I' for Inactive)
DOCKED: REMARK    1  A    between atoms: C_1  and  N_2
DOCKED: REMARK    2  A    between atoms: N_2  and  C_3
DOCKED: REMARK    3  A    between atoms: N_2  and  C_22
DOCKED: REMARK    4  A    between atoms: C_6  and  C_9
DOCKED: REMARK    5  A    between atoms: C_9  and  C_10
DOCKED: REMARK    6  A    between atoms: C_10  and  C_11
DOCKED: REMARK    7  A    between atoms: C_10  and  C_20
DOCKED: REMARK    8  A    between atoms: C_12  and  C_13
DOCKED: REMARK    9  A    between atoms: C_12  and  C_19
DOCKED: REMARK   10  A    between atoms: C_14  and  C_15
DOCKED: REMARK   11  A    between atoms: N_16  and  O_17
DOCKED: REMARK                            x       y       z     vdW  Elec       q    Type
DOCKED: REMARK                         _______ _______ _______ _____ _____    ______ ____
DOCKED: USER                              x       y       z     vdW  Elec       q    Type
DOCKED: USER                           _______ _______ _______ _____ _____    ______ ____
DOCKED: ROOT
DOCKED: ATOM      1  C   UNL     1      21.270 -10.991  -4.456 -0.52 -0.00    +0.000 C 
DOCKED: ATOM      2  C   UNL     1      22.029 -10.373  -5.635 -0.40 -0.00    +0.000 C 
DOCKED: ENDROOT
DOCKED: BRANCH   1   3
DOCKED: ATOM      3  C   UNL     1      19.851 -11.334  -4.861 -0.50 -0.00    +0.000 C 
DOCKED: ATOM      4  C   UNL     1      18.936 -10.433  -5.272 -0.33 -0.00    +0.000 C 
DOCKED: ATOM      5  C   UNL     1      19.253  -8.955  -5.352 -0.19 -0.00    +0.000 C 
DOCKED: BRANCH   4   6
DOCKED: ATOM      6  C   UNL     1      17.569 -10.925  -5.588 -0.32 -0.00    +0.000 C 
DOCKED: ATOM      7  C   UNL     1      17.280 -11.624  -6.696 -0.36 -0.00    +0.000 C 
DOCKED: BRANCH   7   8
DOCKED: ATOM      8  C   UNL     1      15.924 -12.115  -7.016 -0.31 -0.00    +0.000 C 
DOCKED: ATOM      9  N   UNL     1      15.690 -13.157  -7.973 -0.45 +0.00    +0.000 N 
DOCKED: ATOM     10  O   UNL     1      14.944 -11.612  -6.404 -0.30 -0.00    +0.000 OA
DOCKED: ATOM     11  H   UNL     1      16.453 -13.628  -8.380 -0.05 +0.00    +0.000 HD
DOCKED: BRANCH   9  12
DOCKED: ATOM     12  O   UNL     1      14.425 -13.495  -8.315 -0.43 +0.00    +0.000 OA
DOCKED: ATOM     13  H   UNL     1      13.799 -13.049  -7.723 -0.01 -0.00    +0.000 HD
DOCKED: ENDBRANCH   9  12
DOCKED: ENDBRANCH   7   8
DOCKED: ENDBRANCH   4   6
DOCKED: ENDBRANCH   1   3
DOCKED: BRANCH   1  14
DOCKED: ATOM     14  C   UNL     1      21.271 -10.025  -3.290 -0.52 -0.00    +0.000 C 
DOCKED: ATOM     15  O   UNL     1      21.767  -8.876  -3.455 -0.46 -0.00    +0.000 OA
DOCKED: BRANCH  14  19
DOCKED: ATOM     16  C   UNL     1      19.638 -11.091   0.570 -0.56 -0.00    +0.000 A 
DOCKED: ATOM     17  C   UNL     1      18.810 -10.958  -0.564 -0.42 -0.00    +0.000 A 
DOCKED: ATOM     18  C   UNL     1      19.347 -10.610  -1.806 -0.39 -0.00    +0.000 A 
DOCKED: ATOM     19  C   UNL     1      20.726 -10.391  -1.957 -0.50 -0.00    +0.000 A 
DOCKED: ATOM     20  C   UNL     1      21.555 -10.513  -0.829 -0.58 -0.00    +0.000 A 
DOCKED: ATOM     21  C   UNL     1      21.019 -10.859   0.415 -0.61 -0.00    +0.000 A 
DOCKED: BRANCH  16  23
DOCKED: ATOM     22  C   UNL     1      17.654 -11.253   2.141 -0.49 +0.00    +0.000 C 
DOCKED: ATOM     23  N   UNL     1      19.081 -11.452   1.861 -0.55 -0.00    +0.000 N 
DOCKED: ATOM     24  C   UNL     1      19.936 -12.020   2.910 -0.76 -0.00    +0.000 C 
DOCKED: ENDBRANCH  16  23
DOCKED: ENDBRANCH  14  19
DOCKED: ENDBRANCH   1  14
DOCKED: TORSDOF 7
DOCKED: TER
DOCKED: ENDMDL
________________________________________________________________________________


	BEGINNING GENETIC ALGORITHM DOCKING 46 of 100
Run: 46 Seed: 1544728667 2086389349 [ Run 46 of 100 GA/GALS ]
Beginning LAMARCKIAN GENETIC ALGORITHM (LGA), with a maximum of 2500000 energy evaluations.

Final-Value: -12.615


	FINAL GENETIC ALGORITHM DOCKED STATE
	_______________________________________________


Detailed state:  trans 18.599 -10.959 -3.001 quatxyzw -0.778327 -0.203264 -0.551083 -0.221808 center 1.179 0.138 -0.353 ntor 7 23.6833 -68.0110 53.1799 -127.4741 -89.5815 138.9188 110.4379
State:	 18.599 -10.959  -3.001  -0.798 -0.208 -0.565 -154.369     23.68  -68.01   53.18 -127.47  -89.58  138.92  110.44

DOCKED: MODEL       46
DOCKED: USER    Run = 46
DOCKED: USER    DPF = ligand_dock.biased.dpf
DOCKED: USER  
DOCKED: USER    Estimated Free Energy of Binding    =   -9.28 kcal/mol  [=(1)+(2)+(3)-(4)]
DOCKED: USER    Estimated Inhibition Constant, Ki   =  156.35 nM (nanomolar)  [Temperature = 298.15 K]
DOCKED: USER    
DOCKED: USER    (1) Final Intermolecular Energy     =  -11.37 kcal/mol
DOCKED: USER        vdW + Hbond + desolv Energy     =  -11.37 kcal/mol
DOCKED: USER        Electrostatic Energy            =   +0.00 kcal/mol
DOCKED: USER    (2) Final Total Internal Energy     =   -1.24 kcal/mol
DOCKED: USER    (3) Torsional Free Energy           =   +2.09 kcal/mol
DOCKED: USER    (4) Unbound System's Energy  [=(2)] =   -1.24 kcal/mol
DOCKED: USER    
DOCKED: USER    
DOCKED: USER    NEWDPF move ligand.pdbqt
DOCKED: USER    NEWDPF about 1.179000 0.138000 -0.353000
DOCKED: USER    NEWDPF tran0 18.599087 -10.958997 -3.000618
DOCKED: USER    NEWDPF quaternion0 -0.778327 -0.203264 -0.551083 -0.221808
DOCKED: USER    NEWDPF axisangle0 -0.798210 -0.208457 -0.565161 -154.369478
DOCKED: USER    NEWDPF quat0 -0.798210 -0.208457 -0.565161 -154.369478
DOCKED: USER    NEWDPF dihe0 23.68 -68.01 53.18 -127.47 -89.58 138.92 110.44 
DOCKED: USER  keepresnum = 1 
DOCKED: USER  
DOCKED: REMARK  Name = 
DOCKED: REMARK  11 active torsions:
DOCKED: REMARK  status: ('A' for Active; 'I' for Inactive)
DOCKED: REMARK    1  A    between atoms: C_1  and  N_2
DOCKED: REMARK    2  A    between atoms: N_2  and  C_3
DOCKED: REMARK    3  A    between atoms: N_2  and  C_22
DOCKED: REMARK    4  A    between atoms: C_6  and  C_9
DOCKED: REMARK    5  A    between atoms: C_9  and  C_10
DOCKED: REMARK    6  A    between atoms: C_10  and  C_11
DOCKED: REMARK    7  A    between atoms: C_10  and  C_20
DOCKED: REMARK    8  A    between atoms: C_12  and  C_13
DOCKED: REMARK    9  A    between atoms: C_12  and  C_19
DOCKED: REMARK   10  A    between atoms: C_14  and  C_15
DOCKED: REMARK   11  A    between atoms: N_16  and  O_17
DOCKED: REMARK                            x       y       z     vdW  Elec       q    Type
DOCKED: REMARK                         _______ _______ _______ _____ _____    ______ ____
DOCKED: USER                              x       y       z     vdW  Elec       q    Type
DOCKED: USER                           _______ _______ _______ _____ _____    ______ ____
DOCKED: ROOT
DOCKED: ATOM      1  C   UNL     1      19.655  -9.541  -3.748 -0.34 -0.00    +0.000 C 
DOCKED: ATOM      2  C   UNL     1      20.705  -8.517  -4.191 -0.33 -0.00    +0.000 C 
DOCKED: ENDROOT
DOCKED: BRANCH   1   3
DOCKED: ATOM      3  C   UNL     1      19.864  -9.919  -2.296 -0.42 -0.00    +0.000 C 
DOCKED: ATOM      4  C   UNL     1      20.976 -10.509  -1.812 -0.59 -0.00    +0.000 C 
DOCKED: ATOM      5  C   UNL     1      22.140 -10.871  -2.710 +0.39 -0.00    +0.000 C 
DOCKED: BRANCH   4   6
DOCKED: ATOM      6  C   UNL     1      21.006 -10.860  -0.368 -0.63 -0.00    +0.000 C 
DOCKED: ATOM      7  C   UNL     1      19.904 -11.164   0.335 -0.64 -0.00    +0.000 C 
DOCKED: BRANCH   7   8
DOCKED: ATOM      8  C   UNL     1      19.927 -11.513   1.770 -0.74 -0.00    +0.000 C 
DOCKED: ATOM      9  N   UNL     1      20.192 -10.543   2.792 -0.66 -0.00    +0.000 N 
DOCKED: ATOM     10  O   UNL     1      19.679 -12.703   2.102 -1.49 -0.00    +0.000 OA
DOCKED: ATOM     11  H   UNL     1      20.285  -9.592   2.553 -0.53 -0.00    +0.000 HD
DOCKED: BRANCH   9  12
DOCKED: ATOM     12  O   UNL     1      20.314 -10.931   4.083 -0.79 -0.00    +0.000 OA
DOCKED: ATOM     13  H   UNL     1      20.569 -11.866   4.119 -0.43 -0.00    +0.000 HD
DOCKED: ENDBRANCH   9  12
DOCKED: ENDBRANCH   7   8
DOCKED: ENDBRANCH   4   6
DOCKED: ENDBRANCH   1   3
DOCKED: BRANCH   1  14
DOCKED: ATOM     14  C   UNL     1      19.739 -10.767  -4.632 -0.44 -0.00    +0.000 C 
DOCKED: ATOM     15  O   UNL     1      18.838 -11.647  -4.537 -0.37 -0.00    +0.000 OA
DOCKED: BRANCH  14  19
DOCKED: ATOM     16  C   UNL     1      22.996 -11.418  -7.402 -0.41 -0.00    +0.000 A 
DOCKED: ATOM     17  C   UNL     1      22.817 -12.245  -6.275 -0.40 -0.00    +0.000 A 
DOCKED: ATOM     18  C   UNL     1      21.764 -12.025  -5.384 -0.43 -0.00    +0.000 A 
DOCKED: ATOM     19  C   UNL     1      20.853 -10.978  -5.594 -0.41 -0.00    +0.000 A 
DOCKED: ATOM     20  C   UNL     1      21.030 -10.143  -6.711 -0.26 -0.00    +0.000 A 
DOCKED: ATOM     21  C   UNL     1      22.085 -10.361  -7.602 -0.26 -0.00    +0.000 A 
DOCKED: BRANCH  16  23
DOCKED: ATOM     22  C   UNL     1      23.906 -12.504  -9.505 -0.39 -0.00    +0.000 C 
DOCKED: ATOM     23  N   UNL     1      24.090 -11.645  -8.329 -0.40 -0.00    +0.000 N 
DOCKED: ATOM     24  C   UNL     1      25.400 -11.022  -8.105 -0.40 -0.00    +0.000 C 
DOCKED: ENDBRANCH  16  23
DOCKED: ENDBRANCH  14  19
DOCKED: ENDBRANCH   1  14
DOCKED: TORSDOF 7
DOCKED: TER
DOCKED: ENDMDL
________________________________________________________________________________


	BEGINNING GENETIC ALGORITHM DOCKING 47 of 100
Run: 47 Seed: 345976893 1410563812 [ Run 47 of 100 GA/GALS ]
Beginning LAMARCKIAN GENETIC ALGORITHM (LGA), with a maximum of 2500000 energy evaluations.

Final-Value: -13.164


	FINAL GENETIC ALGORITHM DOCKED STATE
	_______________________________________________


Detailed state:  trans 14.912 -6.748 3.408 quatxyzw 0.334844 0.031517 -0.334315 -0.880409 center 1.179 0.138 -0.353 ntor 7 -15.1243 -118.4111 -16.2630 -3.0397 -155.0544 -102.0254 -97.9424
State:	 14.912  -6.748   3.408   0.706  0.066 -0.705 -56.617    -15.12 -118.41  -16.26   -3.04 -155.05 -102.03  -97.94

DOCKED: MODEL       47
DOCKED: USER    Run = 47
DOCKED: USER    DPF = ligand_dock.biased.dpf
DOCKED: USER  
DOCKED: USER    Estimated Free Energy of Binding    =   -9.54 kcal/mol  [=(1)+(2)+(3)-(4)]
DOCKED: USER    Estimated Inhibition Constant, Ki   =  101.16 nM (nanomolar)  [Temperature = 298.15 K]
DOCKED: USER    
DOCKED: USER    (1) Final Intermolecular Energy     =  -11.63 kcal/mol
DOCKED: USER        vdW + Hbond + desolv Energy     =  -11.63 kcal/mol
DOCKED: USER        Electrostatic Energy            =   +0.00 kcal/mol
DOCKED: USER    (2) Final Total Internal Energy     =   -1.53 kcal/mol
DOCKED: USER    (3) Torsional Free Energy           =   +2.09 kcal/mol
DOCKED: USER    (4) Unbound System's Energy  [=(2)] =   -1.53 kcal/mol
DOCKED: USER    
DOCKED: USER    
DOCKED: USER    NEWDPF move ligand.pdbqt
DOCKED: USER    NEWDPF about 1.179000 0.138000 -0.353000
DOCKED: USER    NEWDPF tran0 14.911666 -6.748112 3.407998
DOCKED: USER    NEWDPF quaternion0 0.334844 0.031517 -0.334315 -0.880409
DOCKED: USER    NEWDPF axisangle0 0.706101 0.066461 -0.704986 -56.616539
DOCKED: USER    NEWDPF quat0 0.706101 0.066461 -0.704986 -56.616539
DOCKED: USER    NEWDPF dihe0 -15.12 -118.41 -16.26 -3.04 -155.05 -102.03 -97.94 
DOCKED: USER  keepresnum = 1 
DOCKED: USER  
DOCKED: REMARK  Name = 
DOCKED: REMARK  11 active torsions:
DOCKED: REMARK  status: ('A' for Active; 'I' for Inactive)
DOCKED: REMARK    1  A    between atoms: C_1  and  N_2
DOCKED: REMARK    2  A    between atoms: N_2  and  C_3
DOCKED: REMARK    3  A    between atoms: N_2  and  C_22
DOCKED: REMARK    4  A    between atoms: C_6  and  C_9
DOCKED: REMARK    5  A    between atoms: C_9  and  C_10
DOCKED: REMARK    6  A    between atoms: C_10  and  C_11
DOCKED: REMARK    7  A    between atoms: C_10  and  C_20
DOCKED: REMARK    8  A    between atoms: C_12  and  C_13
DOCKED: REMARK    9  A    between atoms: C_12  and  C_19
DOCKED: REMARK   10  A    between atoms: C_14  and  C_15
DOCKED: REMARK   11  A    between atoms: N_16  and  O_17
DOCKED: REMARK                            x       y       z     vdW  Elec       q    Type
DOCKED: REMARK                         _______ _______ _______ _____ _____    ______ ____
DOCKED: USER                              x       y       z     vdW  Elec       q    Type
DOCKED: USER                           _______ _______ _______ _____ _____    ______ ____
DOCKED: ROOT
DOCKED: ATOM      1  C   UNL     1      14.095  -7.976   4.636 -0.39 +0.00    +0.000 C 
DOCKED: ATOM      2  C   UNL     1      13.703  -9.000   5.706 -0.52 +0.00    +0.000 C 
DOCKED: ENDROOT
DOCKED: BRANCH   1   3
DOCKED: ATOM      3  C   UNL     1      15.423  -8.346   4.011 -0.39 +0.00    +0.000 C 
DOCKED: ATOM      4  C   UNL     1      15.679  -9.522   3.400 -0.44 +0.00    +0.000 C 
DOCKED: ATOM      5  C   UNL     1      14.633 -10.611   3.300 -0.45 +0.00    +0.000 C 
DOCKED: BRANCH   4   6
DOCKED: ATOM      6  C   UNL     1      17.052  -9.750   2.878 -0.46 +0.00    +0.000 C 
DOCKED: ATOM      7  C   UNL     1      17.586 -10.971   2.729 -0.49 +0.00    +0.000 C 
DOCKED: BRANCH   7   8
DOCKED: ATOM      8  C   UNL     1      18.950 -11.205   2.211 -0.63 -0.00    +0.000 C 
DOCKED: ATOM      9  N   UNL     1      19.832 -10.131   1.860 -0.51 -0.00    +0.000 N 
DOCKED: ATOM     10  O   UNL     1      19.353 -12.394   2.100 -1.44 -0.00    +0.000 OA
DOCKED: ATOM     11  H   UNL     1      19.566  -9.200   2.039 -0.40 -0.00    +0.000 HD
DOCKED: BRANCH   9  12
DOCKED: ATOM     12  O   UNL     1      21.029 -10.394   1.285 -0.72 -0.00    +0.000 OA
DOCKED: ATOM     13  H   UNL     1      21.242 -11.334   1.394 -0.20 -0.00    +0.000 HD
DOCKED: ENDBRANCH   9  12
DOCKED: ENDBRANCH   7   8
DOCKED: ENDBRANCH   4   6
DOCKED: ENDBRANCH   1   3
DOCKED: BRANCH   1  14
DOCKED: ATOM     14  C   UNL     1      14.166  -6.597   5.257 -0.44 +0.00    +0.000 C 
DOCKED: ATOM     15  O   UNL     1      13.578  -6.395   6.356 -0.94 +0.00    +0.000 OA
DOCKED: BRANCH  14  19
DOCKED: ATOM     16  C   UNL     1      16.244  -3.333   3.325 -0.38 -0.00    +0.000 A 
DOCKED: ATOM     17  C   UNL     1      15.341  -4.150   2.613 -0.15 -0.00    +0.000 A 
DOCKED: ATOM     18  C   UNL     1      14.677  -5.203   3.246 -0.25 +0.00    +0.000 A 
DOCKED: ATOM     19  C   UNL     1      14.888  -5.471   4.608 -0.38 +0.00    +0.000 A 
DOCKED: ATOM     20  C   UNL     1      15.794  -4.667   5.320 -0.41 +0.00    +0.000 A 
DOCKED: ATOM     21  C   UNL     1      16.461  -3.613   4.689 -0.44 -0.00    +0.000 A 
DOCKED: BRANCH  16  23
DOCKED: ATOM     22  C   UNL     1      16.228  -1.373   1.716 -0.29 -0.00    +0.000 C 
DOCKED: ATOM     23  N   UNL     1      16.935  -2.238   2.669 -0.40 -0.00    +0.000 N 
DOCKED: ATOM     24  C   UNL     1      18.353  -1.977   2.945 -0.51 -0.00    +0.000 C 
DOCKED: ENDBRANCH  16  23
DOCKED: ENDBRANCH  14  19
DOCKED: ENDBRANCH   1  14
DOCKED: TORSDOF 7
DOCKED: TER
DOCKED: ENDMDL
________________________________________________________________________________


	BEGINNING GENETIC ALGORITHM DOCKING 48 of 100
Run: 48 Seed: 943052660 176487369 [ Run 48 of 100 GA/GALS ]
Beginning LAMARCKIAN GENETIC ALGORITHM (LGA), with a maximum of 2500000 energy evaluations.

Final-Value: -13.808


	FINAL GENETIC ALGORITHM DOCKED STATE
	_______________________________________________


Detailed state:  trans 18.949 -10.744 -3.300 quatxyzw 0.770666 0.028529 0.604690 0.199024 center 1.179 0.138 -0.353 ntor 7 22.8627 -58.0733 168.1410 -84.2515 -117.9110 3.9834 110.4964
State:	 18.949 -10.744  -3.300   0.786  0.029  0.617 157.040     22.86  -58.07  168.14  -84.25 -117.91    3.98  110.50

DOCKED: MODEL       48
DOCKED: USER    Run = 48
DOCKED: USER    DPF = ligand_dock.biased.dpf
DOCKED: USER  
DOCKED: USER    Estimated Free Energy of Binding    =  -10.21 kcal/mol  [=(1)+(2)+(3)-(4)]
DOCKED: USER    Estimated Inhibition Constant, Ki   =   32.86 nM (nanomolar)  [Temperature = 298.15 K]
DOCKED: USER    
DOCKED: USER    (1) Final Intermolecular Energy     =  -12.30 kcal/mol
DOCKED: USER        vdW + Hbond + desolv Energy     =  -12.30 kcal/mol
DOCKED: USER        Electrostatic Energy            =   +0.00 kcal/mol
DOCKED: USER    (2) Final Total Internal Energy     =   -1.51 kcal/mol
DOCKED: USER    (3) Torsional Free Energy           =   +2.09 kcal/mol
DOCKED: USER    (4) Unbound System's Energy  [=(2)] =   -1.51 kcal/mol
DOCKED: USER    
DOCKED: USER    
DOCKED: USER    NEWDPF move ligand.pdbqt
DOCKED: USER    NEWDPF about 1.179000 0.138000 -0.353000
DOCKED: USER    NEWDPF tran0 18.949240 -10.744474 -3.300372
DOCKED: USER    NEWDPF quaternion0 0.770666 0.028529 0.604690 0.199024
DOCKED: USER    NEWDPF axisangle0 0.786398 0.029111 0.617033 157.040227
DOCKED: USER    NEWDPF quat0 0.786398 0.029111 0.617033 157.040227
DOCKED: USER    NEWDPF dihe0 22.86 -58.07 168.14 -84.25 -117.91 3.98 110.50 
DOCKED: USER  keepresnum = 1 
DOCKED: USER  
DOCKED: REMARK  Name = 
DOCKED: REMARK  11 active torsions:
DOCKED: REMARK  status: ('A' for Active; 'I' for Inactive)
DOCKED: REMARK    1  A    between atoms: C_1  and  N_2
DOCKED: REMARK    2  A    between atoms: N_2  and  C_3
DOCKED: REMARK    3  A    between atoms: N_2  and  C_22
DOCKED: REMARK    4  A    between atoms: C_6  and  C_9
DOCKED: REMARK    5  A    between atoms: C_9  and  C_10
DOCKED: REMARK    6  A    between atoms: C_10  and  C_11
DOCKED: REMARK    7  A    between atoms: C_10  and  C_20
DOCKED: REMARK    8  A    between atoms: C_12  and  C_13
DOCKED: REMARK    9  A    between atoms: C_12  and  C_19
DOCKED: REMARK   10  A    between atoms: C_14  and  C_15
DOCKED: REMARK   11  A    between atoms: N_16  and  O_17
DOCKED: REMARK                            x       y       z     vdW  Elec       q    Type
DOCKED: REMARK                         _______ _______ _______ _____ _____    ______ ____
DOCKED: USER                              x       y       z     vdW  Elec       q    Type
DOCKED: USER                           _______ _______ _______ _____ _____    ______ ____
DOCKED: ROOT
DOCKED: ATOM      1  C   UNL     1      20.431  -9.623  -3.782 -0.41 -0.00    +0.000 C 
DOCKED: ATOM      2  C   UNL     1      21.768  -8.920  -4.036 -0.32 -0.00    +0.000 C 
DOCKED: ENDROOT
DOCKED: BRANCH   1   3
DOCKED: ATOM      3  C   UNL     1      20.436 -10.295  -2.424 -0.53 -0.00    +0.000 C 
DOCKED: ATOM      4  C   UNL     1      19.330 -10.715  -1.776 -0.45 -0.00    +0.000 C 
DOCKED: ATOM      5  C   UNL     1      17.946 -10.529  -2.359 -0.28 -0.00    +0.000 C 
DOCKED: BRANCH   4   6
DOCKED: ATOM      6  C   UNL     1      19.501 -11.314  -0.426 -0.52 -0.00    +0.000 C 
DOCKED: ATOM      7  C   UNL     1      19.811 -10.593   0.662 -0.62 -0.00    +0.000 C 
DOCKED: BRANCH   7   8
DOCKED: ATOM      8  C   UNL     1      19.983 -11.183   2.006 -0.73 -0.00    +0.000 C 
DOCKED: ATOM      9  N   UNL     1      20.186 -10.381   3.176 -0.63 -0.00    +0.000 N 
DOCKED: ATOM     10  O   UNL     1      19.923 -12.436   2.122 -1.67 -0.00    +0.000 OA
DOCKED: ATOM     11  H   UNL     1      20.132  -9.399   3.113 -0.58 -0.00    +0.000 HD
DOCKED: BRANCH   9  12
DOCKED: ATOM     12  O   UNL     1      20.450 -10.968   4.367 -0.71 -0.00    +0.000 OA
DOCKED: ATOM     13  H   UNL     1      20.820 -11.853   4.217 -0.49 -0.00    +0.000 HD
DOCKED: ENDBRANCH   9  12
DOCKED: ENDBRANCH   7   8
DOCKED: ENDBRANCH   4   6
DOCKED: ENDBRANCH   1   3
DOCKED: BRANCH   1  14
DOCKED: ATOM     14  C   UNL     1      20.176 -10.638  -4.876 -0.43 -0.00    +0.000 C 
DOCKED: ATOM     15  O   UNL     1      19.043 -11.191  -4.938 -0.43 -0.00    +0.000 OA
DOCKED: BRANCH  14  19
DOCKED: ATOM     16  C   UNL     1      23.228 -11.773  -7.722 -0.43 -0.00    +0.000 A 
DOCKED: ATOM     17  C   UNL     1      23.141 -12.389  -6.457 -0.42 -0.00    +0.000 A 
DOCKED: ATOM     18  C   UNL     1      22.154 -12.013  -5.543 -0.48 -0.00    +0.000 A 
DOCKED: ATOM     19  C   UNL     1      21.218 -11.017  -5.865 -0.40 -0.00    +0.000 A 
DOCKED: ATOM     20  C   UNL     1      21.305 -10.392  -7.121 -0.27 -0.00    +0.000 A 
DOCKED: ATOM     21  C   UNL     1      22.294 -10.766  -8.036 -0.27 -0.00    +0.000 A 
DOCKED: BRANCH  16  23
DOCKED: ATOM     22  C   UNL     1      23.932 -13.052  -9.795 -0.40 -0.00    +0.000 C 
DOCKED: ATOM     23  N   UNL     1      24.254 -12.163  -8.672 -0.42 -0.00    +0.000 N 
DOCKED: ATOM     24  C   UNL     1      25.631 -11.676  -8.526 -0.40 -0.00    +0.000 C 
DOCKED: ENDBRANCH  16  23
DOCKED: ENDBRANCH  14  19
DOCKED: ENDBRANCH   1  14
DOCKED: TORSDOF 7
DOCKED: TER
DOCKED: ENDMDL
________________________________________________________________________________


	BEGINNING GENETIC ALGORITHM DOCKING 49 of 100
Run: 49 Seed: 689755724 592953993 [ Run 49 of 100 GA/GALS ]
Beginning LAMARCKIAN GENETIC ALGORITHM (LGA), with a maximum of 2500000 energy evaluations.

Final-Value: -12.822


	FINAL GENETIC ALGORITHM DOCKED STATE
	_______________________________________________


Detailed state:  trans 15.028 -10.217 2.637 quatxyzw 0.386751 0.744205 -0.345381 0.421063 center 1.179 0.138 -0.353 ntor 7 -0.0954 81.8700 -156.7931 47.0210 -68.0072 -25.7815 -67.6902
State:	 15.028 -10.217   2.637   0.426  0.820 -0.381 130.197     -0.10   81.87 -156.79   47.02  -68.01  -25.78  -67.69

DOCKED: MODEL       49
DOCKED: USER    Run = 49
DOCKED: USER    DPF = ligand_dock.biased.dpf
DOCKED: USER  
DOCKED: USER    Estimated Free Energy of Binding    =   -9.01 kcal/mol  [=(1)+(2)+(3)-(4)]
DOCKED: USER    Estimated Inhibition Constant, Ki   =  249.02 nM (nanomolar)  [Temperature = 298.15 K]
DOCKED: USER    
DOCKED: USER    (1) Final Intermolecular Energy     =  -11.10 kcal/mol
DOCKED: USER        vdW + Hbond + desolv Energy     =  -11.10 kcal/mol
DOCKED: USER        Electrostatic Energy            =   +0.00 kcal/mol
DOCKED: USER    (2) Final Total Internal Energy     =   -1.72 kcal/mol
DOCKED: USER    (3) Torsional Free Energy           =   +2.09 kcal/mol
DOCKED: USER    (4) Unbound System's Energy  [=(2)] =   -1.72 kcal/mol
DOCKED: USER    
DOCKED: USER    
DOCKED: USER    NEWDPF move ligand.pdbqt
DOCKED: USER    NEWDPF about 1.179000 0.138000 -0.353000
DOCKED: USER    NEWDPF tran0 15.027895 -10.216981 2.637333
DOCKED: USER    NEWDPF quaternion0 0.386751 0.744205 -0.345381 0.421063
DOCKED: USER    NEWDPF axisangle0 0.426392 0.820485 -0.380782 130.196529
DOCKED: USER    NEWDPF quat0 0.426392 0.820485 -0.380782 130.196529
DOCKED: USER    NEWDPF dihe0 -0.10 81.87 -156.79 47.02 -68.01 -25.78 -67.69 
DOCKED: USER  keepresnum = 1 
DOCKED: USER  
DOCKED: REMARK  Name = 
DOCKED: REMARK  11 active torsions:
DOCKED: REMARK  status: ('A' for Active; 'I' for Inactive)
DOCKED: REMARK    1  A    between atoms: C_1  and  N_2
DOCKED: REMARK    2  A    between atoms: N_2  and  C_3
DOCKED: REMARK    3  A    between atoms: N_2  and  C_22
DOCKED: REMARK    4  A    between atoms: C_6  and  C_9
DOCKED: REMARK    5  A    between atoms: C_9  and  C_10
DOCKED: REMARK    6  A    between atoms: C_10  and  C_11
DOCKED: REMARK    7  A    between atoms: C_10  and  C_20
DOCKED: REMARK    8  A    between atoms: C_12  and  C_13
DOCKED: REMARK    9  A    between atoms: C_12  and  C_19
DOCKED: REMARK   10  A    between atoms: C_14  and  C_15
DOCKED: REMARK   11  A    between atoms: N_16  and  O_17
DOCKED: REMARK                            x       y       z     vdW  Elec       q    Type
DOCKED: REMARK                         _______ _______ _______ _____ _____    ______ ____
DOCKED: USER                              x       y       z     vdW  Elec       q    Type
DOCKED: USER                           _______ _______ _______ _____ _____    ______ ____
DOCKED: ROOT
DOCKED: ATOM      1  C   UNL     1      13.345 -11.026   2.191 -0.37 +0.00    +0.000 C 
DOCKED: ATOM      2  C   UNL     1      11.939 -11.421   1.730 -0.35 +0.00    +0.000 C 
DOCKED: ENDROOT
DOCKED: BRANCH   1   3
DOCKED: ATOM      3  C   UNL     1      13.358  -9.594   2.685 -0.27 +0.00    +0.000 C 
DOCKED: ATOM      4  C   UNL     1      13.942  -9.187   3.831 -0.35 +0.00    +0.000 C 
DOCKED: ATOM      5  C   UNL     1      14.642 -10.158   4.757 -0.40 +0.00    +0.000 C 
DOCKED: BRANCH   4   6
DOCKED: ATOM      6  C   UNL     1      13.824  -7.752   4.200 -0.31 +0.00    +0.000 C 
DOCKED: ATOM      7  C   UNL     1      14.694  -7.129   5.007 -0.45 +0.00    +0.000 C 
DOCKED: BRANCH   7   8
DOCKED: ATOM      8  C   UNL     1      14.582  -5.703   5.378 -0.47 +0.00    +0.000 C 
DOCKED: ATOM      9  N   UNL     1      15.720  -4.834   5.444 -0.50 +0.00    +0.000 N 
DOCKED: ATOM     10  O   UNL     1      13.437  -5.235   5.621 -0.87 +0.00    +0.000 OA
DOCKED: ATOM     11  H   UNL     1      16.604  -5.162   5.157 -0.62 -0.00    +0.000 HD
DOCKED: BRANCH   9  12
DOCKED: ATOM     12  O   UNL     1      15.583  -3.566   5.897 -0.61 +0.00    +0.000 OA
DOCKED: ATOM     13  H   UNL     1      14.657  -3.405   6.134 -0.30 +0.00    +0.000 HD
DOCKED: ENDBRANCH   9  12
DOCKED: ENDBRANCH   7   8
DOCKED: ENDBRANCH   4   6
DOCKED: ENDBRANCH   1   3
DOCKED: BRANCH   1  14
DOCKED: ATOM     14  C   UNL     1      14.322 -11.201   1.046 -0.39 +0.00    +0.000 C 
DOCKED: ATOM     15  O   UNL     1      13.867 -11.411  -0.112 -0.37 +0.00    +0.000 OA
DOCKED: BRANCH  14  19
DOCKED: ATOM     16  C   UNL     1      18.610 -11.098   1.596 -0.50 -0.00    +0.000 A 
DOCKED: ATOM     17  C   UNL     1      17.997 -12.093   0.808 -0.49 -0.00    +0.000 A 
DOCKED: ATOM     18  C   UNL     1      16.610 -12.120   0.639 -0.44 +0.00    +0.000 A 
DOCKED: ATOM     19  C   UNL     1      15.794 -11.151   1.245 -0.35 +0.00    +0.000 A 
DOCKED: ATOM     20  C   UNL     1      16.398 -10.163   2.040 -0.36 +0.00    +0.000 A 
DOCKED: ATOM     21  C   UNL     1      17.785 -10.136   2.212 -0.42 -0.00    +0.000 A 
DOCKED: BRANCH  16  23
DOCKED: ATOM     22  C   UNL     1      20.641 -11.214   3.110 -0.59 -0.00    +0.000 C 
DOCKED: ATOM     23  N   UNL     1      20.051 -11.069   1.773 -0.63 -0.00    +0.000 N 
DOCKED: ATOM     24  C   UNL     1      20.942 -10.892   0.620 -0.69 -0.00    +0.000 C 
DOCKED: ENDBRANCH  16  23
DOCKED: ENDBRANCH  14  19
DOCKED: ENDBRANCH   1  14
DOCKED: TORSDOF 7
DOCKED: TER
DOCKED: ENDMDL
________________________________________________________________________________


	BEGINNING GENETIC ALGORITHM DOCKING 50 of 100
Run: 50 Seed: 764149562 1934898687 [ Run 50 of 100 GA/GALS ]
Beginning LAMARCKIAN GENETIC ALGORITHM (LGA), with a maximum of 2500000 energy evaluations.

Final-Value: -13.018


	FINAL GENETIC ALGORITHM DOCKED STATE
	_______________________________________________


Detailed state:  trans 20.824 -8.782 -3.187 quatxyzw -0.616429 0.587727 -0.354945 0.385495 center 1.179 0.138 -0.353 ntor 7 35.4411 163.9076 -9.9995 -178.4735 37.5459 9.2299 -179.9551
State:	 20.824  -8.782  -3.187  -0.668  0.637 -0.385 134.651     35.44  163.91  -10.00 -178.47   37.55    9.23 -179.96

DOCKED: MODEL       50
DOCKED: USER    Run = 50
DOCKED: USER    DPF = ligand_dock.biased.dpf
DOCKED: USER  
DOCKED: USER    Estimated Free Energy of Binding    =   -9.30 kcal/mol  [=(1)+(2)+(3)-(4)]
DOCKED: USER    Estimated Inhibition Constant, Ki   =  152.23 nM (nanomolar)  [Temperature = 298.15 K]
DOCKED: USER    
DOCKED: USER    (1) Final Intermolecular Energy     =  -11.39 kcal/mol
DOCKED: USER        vdW + Hbond + desolv Energy     =  -11.39 kcal/mol
DOCKED: USER        Electrostatic Energy            =   +0.00 kcal/mol
DOCKED: USER    (2) Final Total Internal Energy     =   -1.63 kcal/mol
DOCKED: USER    (3) Torsional Free Energy           =   +2.09 kcal/mol
DOCKED: USER    (4) Unbound System's Energy  [=(2)] =   -1.63 kcal/mol
DOCKED: USER    
DOCKED: USER    
DOCKED: USER    NEWDPF move ligand.pdbqt
DOCKED: USER    NEWDPF about 1.179000 0.138000 -0.353000
DOCKED: USER    NEWDPF tran0 20.824399 -8.782253 -3.187082
DOCKED: USER    NEWDPF quaternion0 -0.616429 0.587727 -0.354945 0.385495
DOCKED: USER    NEWDPF axisangle0 -0.668064 0.636957 -0.384676 134.651038
DOCKED: USER    NEWDPF quat0 -0.668064 0.636957 -0.384676 134.651038
DOCKED: USER    NEWDPF dihe0 35.44 163.91 -10.00 -178.47 37.55 9.23 -179.96 
DOCKED: USER  keepresnum = 1 
DOCKED: USER  
DOCKED: REMARK  Name = 
DOCKED: REMARK  11 active torsions:
DOCKED: REMARK  status: ('A' for Active; 'I' for Inactive)
DOCKED: REMARK    1  A    between atoms: C_1  and  N_2
DOCKED: REMARK    2  A    between atoms: N_2  and  C_3
DOCKED: REMARK    3  A    between atoms: N_2  and  C_22
DOCKED: REMARK    4  A    between atoms: C_6  and  C_9
DOCKED: REMARK    5  A    between atoms: C_9  and  C_10
DOCKED: REMARK    6  A    between atoms: C_10  and  C_11
DOCKED: REMARK    7  A    between atoms: C_10  and  C_20
DOCKED: REMARK    8  A    between atoms: C_12  and  C_13
DOCKED: REMARK    9  A    between atoms: C_12  and  C_19
DOCKED: REMARK   10  A    between atoms: C_14  and  C_15
DOCKED: REMARK   11  A    between atoms: N_16  and  O_17
DOCKED: REMARK                            x       y       z     vdW  Elec       q    Type
DOCKED: REMARK                         _______ _______ _______ _____ _____    ______ ____
DOCKED: USER                              x       y       z     vdW  Elec       q    Type
DOCKED: USER                           _______ _______ _______ _____ _____    ______ ____
DOCKED: ROOT
DOCKED: ATOM      1  C   UNL     1      21.257 -10.291  -4.292 -0.48 -0.00    +0.000 C 
DOCKED: ATOM      2  C   UNL     1      21.428 -11.635  -5.007 -0.54 -0.00    +0.000 C 
DOCKED: ENDROOT
DOCKED: BRANCH   1   3
DOCKED: ATOM      3  C   UNL     1      21.096 -10.502  -2.801 -0.55 -0.00    +0.000 C 
DOCKED: ATOM      4  C   UNL     1      21.145  -9.516  -1.881 -0.58 -0.00    +0.000 C 
DOCKED: ATOM      5  C   UNL     1      21.388  -8.074  -2.270 -0.48 -0.00    +0.000 C 
DOCKED: BRANCH   4   6
DOCKED: ATOM      6  C   UNL     1      21.016  -9.895  -0.449 -0.69 -0.00    +0.000 C 
DOCKED: ATOM      7  C   UNL     1      20.450 -11.041  -0.042 -0.61 -0.00    +0.000 C 
DOCKED: BRANCH   7   8
DOCKED: ATOM      8  C   UNL     1      20.319 -11.423   1.380 -0.75 -0.00    +0.000 C 
DOCKED: ATOM      9  N   UNL     1      20.635 -10.522   2.449 -0.60 -0.00    +0.000 N 
DOCKED: ATOM     10  O   UNL     1      19.890 -12.576   1.653 -1.64 -0.00    +0.000 OA
DOCKED: ATOM     11  H   UNL     1      20.872  -9.587   2.249 -0.55 -0.00    +0.000 HD
DOCKED: BRANCH   9  12
DOCKED: ATOM     12  O   UNL     1      20.607 -10.952   3.732 -0.81 -0.00    +0.000 OA
DOCKED: ATOM     13  H   UNL     1      20.912 -11.872   3.773 -0.55 -0.00    +0.000 HD
DOCKED: ENDBRANCH   9  12
DOCKED: ENDBRANCH   7   8
DOCKED: ENDBRANCH   4   6
DOCKED: ENDBRANCH   1   3
DOCKED: BRANCH   1  14
DOCKED: ATOM     14  C   UNL     1      20.055  -9.565  -4.859 -0.29 -0.00    +0.000 C 
DOCKED: ATOM     15  O   UNL     1      20.245  -8.636  -5.692 -0.16 -0.00    +0.000 OA
DOCKED: BRANCH  14  19
DOCKED: ATOM     16  C   UNL     1      15.997 -10.540  -3.725 -0.17 -0.00    +0.000 A 
DOCKED: ATOM     17  C   UNL     1      16.431 -10.653  -5.062 -0.21 -0.00    +0.000 A 
DOCKED: ATOM     18  C   UNL     1      17.743 -10.332  -5.418 -0.24 -0.00    +0.000 A 
DOCKED: ATOM     19  C   UNL     1      18.664  -9.896  -4.453 -0.25 -0.00    +0.000 A 
DOCKED: ATOM     20  C   UNL     1      18.236  -9.772  -3.120 -0.16 -0.00    +0.000 A 
DOCKED: ATOM     21  C   UNL     1      16.922 -10.091  -2.762 -0.20 -0.00    +0.000 A 
DOCKED: BRANCH  16  23
DOCKED: ATOM     22  C   UNL     1      13.518 -10.565  -4.256 -0.22 -0.00    +0.000 C 
DOCKED: ATOM     23  N   UNL     1      14.634 -10.872  -3.353 -0.28 -0.00    +0.000 N 
DOCKED: ATOM     24  C   UNL     1      14.347 -11.518  -2.066 -0.37 -0.00    +0.000 C 
DOCKED: ENDBRANCH  16  23
DOCKED: ENDBRANCH  14  19
DOCKED: ENDBRANCH   1  14
DOCKED: TORSDOF 7
DOCKED: TER
DOCKED: ENDMDL
________________________________________________________________________________


	BEGINNING GENETIC ALGORITHM DOCKING 51 of 100
Run: 51 Seed: 1713045549 168328388 [ Run 51 of 100 GA/GALS ]
Beginning LAMARCKIAN GENETIC ALGORITHM (LGA), with a maximum of 2500000 energy evaluations.

Final-Value: -12.639


	FINAL GENETIC ALGORITHM DOCKED STATE
	_______________________________________________


Detailed state:  trans 22.510 -8.430 -3.070 quatxyzw 0.062825 -0.738593 -0.299899 -0.600495 center 1.179 0.138 -0.353 ntor 7 23.4851 -33.8282 41.2849 -65.2450 170.9107 -45.4351 164.7336
State:	 22.510  -8.430  -3.070   0.079 -0.924 -0.375 -106.189     23.49  -33.83   41.28  -65.25  170.91  -45.44  164.73

DOCKED: MODEL       51
DOCKED: USER    Run = 51
DOCKED: USER    DPF = ligand_dock.biased.dpf
DOCKED: USER  
DOCKED: USER    Estimated Free Energy of Binding    =   -9.14 kcal/mol  [=(1)+(2)+(3)-(4)]
DOCKED: USER    Estimated Inhibition Constant, Ki   =  200.15 nM (nanomolar)  [Temperature = 298.15 K]
DOCKED: USER    
DOCKED: USER    (1) Final Intermolecular Energy     =  -11.23 kcal/mol
DOCKED: USER        vdW + Hbond + desolv Energy     =  -11.23 kcal/mol
DOCKED: USER        Electrostatic Energy            =   +0.00 kcal/mol
DOCKED: USER    (2) Final Total Internal Energy     =   -1.41 kcal/mol
DOCKED: USER    (3) Torsional Free Energy           =   +2.09 kcal/mol
DOCKED: USER    (4) Unbound System's Energy  [=(2)] =   -1.41 kcal/mol
DOCKED: USER    
DOCKED: USER    
DOCKED: USER    NEWDPF move ligand.pdbqt
DOCKED: USER    NEWDPF about 1.179000 0.138000 -0.353000
DOCKED: USER    NEWDPF tran0 22.510332 -8.430017 -3.069874
DOCKED: USER    NEWDPF quaternion0 0.062825 -0.738593 -0.299899 -0.600495
DOCKED: USER    NEWDPF axisangle0 0.078567 -0.923670 -0.375048 -106.189230
DOCKED: USER    NEWDPF quat0 0.078567 -0.923670 -0.375048 -106.189230
DOCKED: USER    NEWDPF dihe0 23.49 -33.83 41.28 -65.25 170.91 -45.44 164.73 
DOCKED: USER  keepresnum = 1 
DOCKED: USER  
DOCKED: REMARK  Name = 
DOCKED: REMARK  11 active torsions:
DOCKED: REMARK  status: ('A' for Active; 'I' for Inactive)
DOCKED: REMARK    1  A    between atoms: C_1  and  N_2
DOCKED: REMARK    2  A    between atoms: N_2  and  C_3
DOCKED: REMARK    3  A    between atoms: N_2  and  C_22
DOCKED: REMARK    4  A    between atoms: C_6  and  C_9
DOCKED: REMARK    5  A    between atoms: C_9  and  C_10
DOCKED: REMARK    6  A    between atoms: C_10  and  C_11
DOCKED: REMARK    7  A    between atoms: C_10  and  C_20
DOCKED: REMARK    8  A    between atoms: C_12  and  C_13
DOCKED: REMARK    9  A    between atoms: C_12  and  C_19
DOCKED: REMARK   10  A    between atoms: C_14  and  C_15
DOCKED: REMARK   11  A    between atoms: N_16  and  O_17
DOCKED: REMARK                            x       y       z     vdW  Elec       q    Type
DOCKED: REMARK                         _______ _______ _______ _____ _____    ______ ____
DOCKED: USER                              x       y       z     vdW  Elec       q    Type
DOCKED: USER                           _______ _______ _______ _____ _____    ______ ____
DOCKED: ROOT
DOCKED: ATOM      1  C   UNL     1      20.758  -8.016  -3.737 -0.35 -0.00    +0.000 C 
DOCKED: ATOM      2  C   UNL     1      19.307  -7.608  -4.006 -0.07 -0.00    +0.000 C 
DOCKED: ENDROOT
DOCKED: BRANCH   1   3
DOCKED: ATOM      3  C   UNL     1      20.888  -8.631  -2.358 -0.47 -0.00    +0.000 C 
DOCKED: ATOM      4  C   UNL     1      21.210  -9.919  -2.124 -0.58 -0.00    +0.000 C 
DOCKED: ATOM      5  C   UNL     1      21.462 -10.896  -3.253 -0.41 -0.00    +0.000 C 
DOCKED: BRANCH   4   6
DOCKED: ATOM      6  C   UNL     1      21.250 -10.381  -0.711 -0.69 -0.00    +0.000 C 
DOCKED: ATOM      7  C   UNL     1      20.192 -10.919  -0.086 -0.63 -0.00    +0.000 C 
DOCKED: BRANCH   7   8
DOCKED: ATOM      8  C   UNL     1      20.224 -11.378   1.318 -0.74 -0.00    +0.000 C 
DOCKED: ATOM      9  N   UNL     1      20.539 -10.500   2.406 -0.59 -0.00    +0.000 N 
DOCKED: ATOM     10  O   UNL     1      19.941 -12.582   1.561 -1.59 -0.00    +0.000 OA
DOCKED: ATOM     11  H   UNL     1      20.660  -9.537   2.240 -0.52 -0.00    +0.000 HD
DOCKED: BRANCH   9  12
DOCKED: ATOM     12  O   UNL     1      20.666 -10.990   3.661 -0.79 -0.00    +0.000 OA
DOCKED: ATOM     13  H   UNL     1      20.886 -11.934   3.620 -0.55 -0.00    +0.000 HD
DOCKED: ENDBRANCH   9  12
DOCKED: ENDBRANCH   7   8
DOCKED: ENDBRANCH   4   6
DOCKED: ENDBRANCH   1   3
DOCKED: BRANCH   1  14
DOCKED: ATOM     14  C   UNL     1      21.658  -6.805  -3.864 -0.30 -0.00    +0.000 C 
DOCKED: ATOM     15  O   UNL     1      22.535  -6.794  -4.773 -0.22 -0.00    +0.000 OA
DOCKED: BRANCH  14  19
DOCKED: ATOM     16  C   UNL     1      21.330  -3.444  -1.163 -0.34 +0.00    +0.000 A 
DOCKED: ATOM     17  C   UNL     1      20.704  -4.674  -0.880 -0.37 +0.00    +0.000 A 
DOCKED: ATOM     18  C   UNL     1      20.813  -5.753  -1.760 -0.35 -0.00    +0.000 A 
DOCKED: ATOM     19  C   UNL     1      21.555  -5.640  -2.946 -0.32 -0.00    +0.000 A 
DOCKED: ATOM     20  C   UNL     1      22.175  -4.414  -3.239 -0.21 -0.00    +0.000 A 
DOCKED: ATOM     21  C   UNL     1      22.065  -3.332  -2.360 -0.20 -0.00    +0.000 A 
DOCKED: BRANCH  16  23
DOCKED: ATOM     22  C   UNL     1      22.420  -1.651   0.261 -0.30 -0.00    +0.000 C 
DOCKED: ATOM     23  N   UNL     1      21.218  -2.321  -0.249 -0.32 -0.00    +0.000 N 
DOCKED: ATOM     24  C   UNL     1      19.900  -1.838   0.182 -0.30 -0.00    +0.000 C 
DOCKED: ENDBRANCH  16  23
DOCKED: ENDBRANCH  14  19
DOCKED: ENDBRANCH   1  14
DOCKED: TORSDOF 7
DOCKED: TER
DOCKED: ENDMDL
________________________________________________________________________________


	BEGINNING GENETIC ALGORITHM DOCKING 52 of 100
Run: 52 Seed: 741293797 271557394 [ Run 52 of 100 GA/GALS ]
Beginning LAMARCKIAN GENETIC ALGORITHM (LGA), with a maximum of 2500000 energy evaluations.

Final-Value: -13.174


	FINAL GENETIC ALGORITHM DOCKED STATE
	_______________________________________________


Detailed state:  trans 15.475 -7.010 3.945 quatxyzw -0.413582 0.200683 0.450507 0.765323 center 1.179 0.138 -0.353 ntor 7 12.0535 -94.2089 103.2889 115.5821 179.2174 -81.4880 -61.5614
State:	 15.475  -7.010   3.945  -0.643  0.312  0.700 80.129     12.05  -94.21  103.29  115.58  179.22  -81.49  -61.56

DOCKED: MODEL       52
DOCKED: USER    Run = 52
DOCKED: USER    DPF = ligand_dock.biased.dpf
DOCKED: USER  
DOCKED: USER    Estimated Free Energy of Binding    =   -9.46 kcal/mol  [=(1)+(2)+(3)-(4)]
DOCKED: USER    Estimated Inhibition Constant, Ki   =  116.14 nM (nanomolar)  [Temperature = 298.15 K]
DOCKED: USER    
DOCKED: USER    (1) Final Intermolecular Energy     =  -11.55 kcal/mol
DOCKED: USER        vdW + Hbond + desolv Energy     =  -11.55 kcal/mol
DOCKED: USER        Electrostatic Energy            =   +0.00 kcal/mol
DOCKED: USER    (2) Final Total Internal Energy     =   -1.63 kcal/mol
DOCKED: USER    (3) Torsional Free Energy           =   +2.09 kcal/mol
DOCKED: USER    (4) Unbound System's Energy  [=(2)] =   -1.63 kcal/mol
DOCKED: USER    
DOCKED: USER    
DOCKED: USER    NEWDPF move ligand.pdbqt
DOCKED: USER    NEWDPF about 1.179000 0.138000 -0.353000
DOCKED: USER    NEWDPF tran0 15.475261 -7.010318 3.944664
DOCKED: USER    NEWDPF quaternion0 -0.413582 0.200683 0.450507 0.765323
DOCKED: USER    NEWDPF axisangle0 -0.642562 0.311791 0.699929 80.128525
DOCKED: USER    NEWDPF quat0 -0.642562 0.311791 0.699929 80.128525
DOCKED: USER    NEWDPF dihe0 12.05 -94.21 103.29 115.58 179.22 -81.49 -61.56 
DOCKED: USER  keepresnum = 1 
DOCKED: USER  
DOCKED: REMARK  Name = 
DOCKED: REMARK  11 active torsions:
DOCKED: REMARK  status: ('A' for Active; 'I' for Inactive)
DOCKED: REMARK    1  A    between atoms: C_1  and  N_2
DOCKED: REMARK    2  A    between atoms: N_2  and  C_3
DOCKED: REMARK    3  A    between atoms: N_2  and  C_22
DOCKED: REMARK    4  A    between atoms: C_6  and  C_9
DOCKED: REMARK    5  A    between atoms: C_9  and  C_10
DOCKED: REMARK    6  A    between atoms: C_10  and  C_11
DOCKED: REMARK    7  A    between atoms: C_10  and  C_20
DOCKED: REMARK    8  A    between atoms: C_12  and  C_13
DOCKED: REMARK    9  A    between atoms: C_12  and  C_19
DOCKED: REMARK   10  A    between atoms: C_14  and  C_15
DOCKED: REMARK   11  A    between atoms: N_16  and  O_17
DOCKED: REMARK                            x       y       z     vdW  Elec       q    Type
DOCKED: REMARK                         _______ _______ _______ _____ _____    ______ ____
DOCKED: USER                              x       y       z     vdW  Elec       q    Type
DOCKED: USER                           _______ _______ _______ _____ _____    ______ ____
DOCKED: ROOT
DOCKED: ATOM      1  C   UNL     1      13.832  -7.723   4.635 -0.35 +0.00    +0.000 C 
DOCKED: ATOM      2  C   UNL     1      12.686  -8.442   5.354 -0.39 +0.00    +0.000 C 
DOCKED: ENDROOT
DOCKED: BRANCH   1   3
DOCKED: ATOM      3  C   UNL     1      15.017  -8.652   4.468 -0.33 +0.00    +0.000 C 
DOCKED: ATOM      4  C   UNL     1      15.103  -9.620   3.532 -0.43 +0.00    +0.000 C 
DOCKED: ATOM      5  C   UNL     1      13.981  -9.879   2.549 -0.31 +0.00    +0.000 C 
DOCKED: BRANCH   4   6
DOCKED: ATOM      6  C   UNL     1      16.315 -10.480   3.530 -0.51 +0.00    +0.000 C 
DOCKED: ATOM      7  C   UNL     1      17.438 -10.163   2.870 -0.49 +0.00    +0.000 C 
DOCKED: BRANCH   7   8
DOCKED: ATOM      8  C   UNL     1      18.646 -11.014   2.864 -0.59 -0.00    +0.000 C 
DOCKED: ATOM      9  N   UNL     1      19.213 -11.533   1.654 -0.57 -0.00    +0.000 N 
DOCKED: ATOM     10  O   UNL     1      19.205 -11.269   3.964 -0.67 -0.00    +0.000 OA
DOCKED: ATOM     11  H   UNL     1      18.847 -11.257   0.783 -0.00 -0.00    +0.000 HD
DOCKED: BRANCH   9  12
DOCKED: ATOM     12  O   UNL     1      20.252 -12.399   1.707 -1.70 -0.00    +0.000 OA
DOCKED: ATOM     13  H   UNL     1      20.368 -12.712   2.618 -0.44 -0.00    +0.000 HD
DOCKED: ENDBRANCH   9  12
DOCKED: ENDBRANCH   7   8
DOCKED: ENDBRANCH   4   6
DOCKED: ENDBRANCH   1   3
DOCKED: BRANCH   1  14
DOCKED: ATOM     14  C   UNL     1      14.230  -6.491   5.421 -0.46 +0.00    +0.000 C 
DOCKED: ATOM     15  O   UNL     1      13.867  -6.397   6.626 -1.01 +0.00    +0.000 OA
DOCKED: BRANCH  14  19
DOCKED: ATOM     16  C   UNL     1      16.503  -3.286   3.614 -0.41 -0.00    +0.000 A 
DOCKED: ATOM     17  C   UNL     1      15.753  -4.184   2.829 -0.07 -0.00    +0.000 A 
DOCKED: ATOM     18  C   UNL     1      15.025  -5.219   3.421 -0.28 +0.00    +0.000 A 
DOCKED: ATOM     19  C   UNL     1      15.016  -5.385   4.815 -0.40 +0.00    +0.000 A 
DOCKED: ATOM     20  C   UNL     1      15.770  -4.498   5.604 -0.41 +0.00    +0.000 A 
DOCKED: ATOM     21  C   UNL     1      16.501  -3.464   5.012 -0.46 -0.00    +0.000 A 
DOCKED: BRANCH  16  23
DOCKED: ATOM     22  C   UNL     1      16.575  -1.125   2.291 -0.29 -0.00    +0.000 C 
DOCKED: ATOM     23  N   UNL     1      17.261  -2.211   3.000 -0.44 -0.00    +0.000 N 
DOCKED: ATOM     24  C   UNL     1      18.727  -2.193   3.076 -0.54 -0.00    +0.000 C 
DOCKED: ENDBRANCH  16  23
DOCKED: ENDBRANCH  14  19
DOCKED: ENDBRANCH   1  14
DOCKED: TORSDOF 7
DOCKED: TER
DOCKED: ENDMDL
________________________________________________________________________________


	BEGINNING GENETIC ALGORITHM DOCKING 53 of 100
Run: 53 Seed: 877656349 1606881037 [ Run 53 of 100 GA/GALS ]
Beginning LAMARCKIAN GENETIC ALGORITHM (LGA), with a maximum of 2500000 energy evaluations.

Final-Value: -12.130


	FINAL GENETIC ALGORITHM DOCKED STATE
	_______________________________________________


Detailed state:  trans 20.670 -9.259 -4.437 quatxyzw -0.664500 0.458013 -0.474806 0.351032 center 1.179 0.138 -0.353 ntor 7 -96.3657 -129.6782 178.2927 172.2749 74.4166 -5.8835 -120.9727
State:	 20.670  -9.259  -4.437  -0.710  0.489 -0.507 138.899    -96.37 -129.68  178.29  172.27   74.42   -5.88 -120.97

DOCKED: MODEL       53
DOCKED: USER    Run = 53
DOCKED: USER    DPF = ligand_dock.biased.dpf
DOCKED: USER  
DOCKED: USER    Estimated Free Energy of Binding    =   -8.36 kcal/mol  [=(1)+(2)+(3)-(4)]
DOCKED: USER    Estimated Inhibition Constant, Ki   =  748.09 nM (nanomolar)  [Temperature = 298.15 K]
DOCKED: USER    
DOCKED: USER    (1) Final Intermolecular Energy     =  -10.45 kcal/mol
DOCKED: USER        vdW + Hbond + desolv Energy     =  -10.45 kcal/mol
DOCKED: USER        Electrostatic Energy            =   +0.00 kcal/mol
DOCKED: USER    (2) Final Total Internal Energy     =   -1.68 kcal/mol
DOCKED: USER    (3) Torsional Free Energy           =   +2.09 kcal/mol
DOCKED: USER    (4) Unbound System's Energy  [=(2)] =   -1.68 kcal/mol
DOCKED: USER    
DOCKED: USER    
DOCKED: USER    NEWDPF move ligand.pdbqt
DOCKED: USER    NEWDPF about 1.179000 0.138000 -0.353000
DOCKED: USER    NEWDPF tran0 20.669913 -9.258963 -4.436606
DOCKED: USER    NEWDPF quaternion0 -0.664500 0.458013 -0.474806 0.351032
DOCKED: USER    NEWDPF axisangle0 -0.709661 0.489140 -0.507074 138.899101
DOCKED: USER    NEWDPF quat0 -0.709661 0.489140 -0.507074 138.899101
DOCKED: USER    NEWDPF dihe0 -96.37 -129.68 178.29 172.27 74.42 -5.88 -120.97 
DOCKED: USER  keepresnum = 1 
DOCKED: USER  
DOCKED: REMARK  Name = 
DOCKED: REMARK  11 active torsions:
DOCKED: REMARK  status: ('A' for Active; 'I' for Inactive)
DOCKED: REMARK    1  A    between atoms: C_1  and  N_2
DOCKED: REMARK    2  A    between atoms: N_2  and  C_3
DOCKED: REMARK    3  A    between atoms: N_2  and  C_22
DOCKED: REMARK    4  A    between atoms: C_6  and  C_9
DOCKED: REMARK    5  A    between atoms: C_9  and  C_10
DOCKED: REMARK    6  A    between atoms: C_10  and  C_11
DOCKED: REMARK    7  A    between atoms: C_10  and  C_20
DOCKED: REMARK    8  A    between atoms: C_12  and  C_13
DOCKED: REMARK    9  A    between atoms: C_12  and  C_19
DOCKED: REMARK   10  A    between atoms: C_14  and  C_15
DOCKED: REMARK   11  A    between atoms: N_16  and  O_17
DOCKED: REMARK                            x       y       z     vdW  Elec       q    Type
DOCKED: REMARK                         _______ _______ _______ _____ _____    ______ ____
DOCKED: USER                              x       y       z     vdW  Elec       q    Type
DOCKED: USER                           _______ _______ _______ _____ _____    ______ ____
DOCKED: ROOT
DOCKED: ATOM      1  C   UNL     1      21.653 -10.679  -5.274 -0.48 -0.00    +0.000 C 
DOCKED: ATOM      2  C   UNL     1      22.305 -11.977  -5.760 -0.54 -0.00    +0.000 C 
DOCKED: ENDROOT
DOCKED: BRANCH   1   3
DOCKED: ATOM      3  C   UNL     1      21.451 -10.718  -3.773 -0.51 -0.00    +0.000 C 
DOCKED: ATOM      4  C   UNL     1      21.395  -9.627  -2.982 -0.51 -0.00    +0.000 C 
DOCKED: ATOM      5  C   UNL     1      21.549  -8.229  -3.541 -0.35 -0.00    +0.000 C 
DOCKED: BRANCH   4   6
DOCKED: ATOM      6  C   UNL     1      21.240  -9.836  -1.518 -0.63 -0.00    +0.000 C 
DOCKED: ATOM      7  C   UNL     1      20.582 -10.880  -0.993 -0.52 -0.00    +0.000 C 
DOCKED: BRANCH   7   8
DOCKED: ATOM      8  C   UNL     1      20.425 -11.094   0.461 -0.68 -0.00    +0.000 C 
DOCKED: ATOM      9  N   UNL     1      20.031 -12.357   1.013 -0.61 -0.00    +0.000 N 
DOCKED: ATOM     10  O   UNL     1      20.670 -10.132   1.238 -0.69 -0.00    +0.000 OA
DOCKED: ATOM     11  H   UNL     1      19.937 -13.141   0.425 -0.55 -0.00    +0.000 HD
DOCKED: BRANCH   9  12
DOCKED: ATOM     12  O   UNL     1      19.791 -12.474   2.340 -1.51 -0.00    +0.000 OA
DOCKED: ATOM     13  H   UNL     1      20.585 -12.810   2.785 -0.56 -0.00    +0.000 HD
DOCKED: ENDBRANCH   9  12
DOCKED: ENDBRANCH   7   8
DOCKED: ENDBRANCH   4   6
DOCKED: ENDBRANCH   1   3
DOCKED: BRANCH   1  14
DOCKED: ATOM     14  C   UNL     1      20.329 -10.481  -5.982 -0.35 -0.00    +0.000 C 
DOCKED: ATOM     15  O   UNL     1      20.261 -10.726  -7.219 -0.33 -0.00    +0.000 OA
DOCKED: BRANCH  14  19
DOCKED: ATOM     16  C   UNL     1      16.792  -9.102  -3.910 -0.18 -0.00    +0.000 A 
DOCKED: ATOM     17  C   UNL     1      17.175 -10.459  -3.882 -0.13 -0.00    +0.000 A 
DOCKED: ATOM     18  C   UNL     1      18.318 -10.895  -4.557 -0.23 -0.00    +0.000 A 
DOCKED: ATOM     19  C   UNL     1      19.117  -9.991  -5.275 -0.25 -0.00    +0.000 A 
DOCKED: ATOM     20  C   UNL     1      18.736  -8.639  -5.316 -0.15 -0.00    +0.000 A 
DOCKED: ATOM     21  C   UNL     1      17.591  -8.201  -4.642 -0.14 -0.00    +0.000 A 
DOCKED: BRANCH  16  23
DOCKED: ATOM     22  C   UNL     1      15.151  -9.329  -1.991 -0.24 -0.00    +0.000 C 
DOCKED: ATOM     23  N   UNL     1      15.605  -8.648  -3.209 -0.18 -0.00    +0.000 N 
DOCKED: ATOM     24  C   UNL     1      14.837  -7.500  -3.708 -0.14 -0.00    +0.000 C 
DOCKED: ENDBRANCH  16  23
DOCKED: ENDBRANCH  14  19
DOCKED: ENDBRANCH   1  14
DOCKED: TORSDOF 7
DOCKED: TER
DOCKED: ENDMDL
________________________________________________________________________________


	BEGINNING GENETIC ALGORITHM DOCKING 54 of 100
Run: 54 Seed: 1352332970 426076230 [ Run 54 of 100 GA/GALS ]
Beginning LAMARCKIAN GENETIC ALGORITHM (LGA), with a maximum of 2500000 energy evaluations.

Final-Value: -12.582


	FINAL GENETIC ALGORITHM DOCKED STATE
	_______________________________________________


Detailed state:  trans 19.345 -10.535 -3.314 quatxyzw -0.867630 0.050629 -0.494126 0.022249 center 1.179 0.138 -0.353 ntor 7 1.2924 -168.8204 87.3824 28.9871 -155.7302 16.6954 19.8176
State:	 19.345 -10.535  -3.314  -0.868  0.051 -0.494 177.450      1.29 -168.82   87.38   28.99 -155.73   16.70   19.82

DOCKED: MODEL       54
DOCKED: USER    Run = 54
DOCKED: USER    DPF = ligand_dock.biased.dpf
DOCKED: USER  
DOCKED: USER    Estimated Free Energy of Binding    =   -8.92 kcal/mol  [=(1)+(2)+(3)-(4)]
DOCKED: USER    Estimated Inhibition Constant, Ki   =  287.63 nM (nanomolar)  [Temperature = 298.15 K]
DOCKED: USER    
DOCKED: USER    (1) Final Intermolecular Energy     =  -11.01 kcal/mol
DOCKED: USER        vdW + Hbond + desolv Energy     =  -11.01 kcal/mol
DOCKED: USER        Electrostatic Energy            =   +0.00 kcal/mol
DOCKED: USER    (2) Final Total Internal Energy     =   -1.57 kcal/mol
DOCKED: USER    (3) Torsional Free Energy           =   +2.09 kcal/mol
DOCKED: USER    (4) Unbound System's Energy  [=(2)] =   -1.57 kcal/mol
DOCKED: USER    
DOCKED: USER    
DOCKED: USER    NEWDPF move ligand.pdbqt
DOCKED: USER    NEWDPF about 1.179000 0.138000 -0.353000
DOCKED: USER    NEWDPF tran0 19.345131 -10.534767 -3.313776
DOCKED: USER    NEWDPF quaternion0 -0.867630 0.050629 -0.494126 0.022249
DOCKED: USER    NEWDPF axisangle0 -0.867845 0.050641 -0.494248 177.450267
DOCKED: USER    NEWDPF quat0 -0.867845 0.050641 -0.494248 177.450267
DOCKED: USER    NEWDPF dihe0 1.29 -168.82 87.38 28.99 -155.73 16.70 19.82 
DOCKED: USER  keepresnum = 1 
DOCKED: USER  
DOCKED: REMARK  Name = 
DOCKED: REMARK  11 active torsions:
DOCKED: REMARK  status: ('A' for Active; 'I' for Inactive)
DOCKED: REMARK    1  A    between atoms: C_1  and  N_2
DOCKED: REMARK    2  A    between atoms: N_2  and  C_3
DOCKED: REMARK    3  A    between atoms: N_2  and  C_22
DOCKED: REMARK    4  A    between atoms: C_6  and  C_9
DOCKED: REMARK    5  A    between atoms: C_9  and  C_10
DOCKED: REMARK    6  A    between atoms: C_10  and  C_11
DOCKED: REMARK    7  A    between atoms: C_10  and  C_20
DOCKED: REMARK    8  A    between atoms: C_12  and  C_13
DOCKED: REMARK    9  A    between atoms: C_12  and  C_19
DOCKED: REMARK   10  A    between atoms: C_14  and  C_15
DOCKED: REMARK   11  A    between atoms: N_16  and  O_17
DOCKED: REMARK                            x       y       z     vdW  Elec       q    Type
DOCKED: REMARK                         _______ _______ _______ _____ _____    ______ ____
DOCKED: USER                              x       y       z     vdW  Elec       q    Type
DOCKED: USER                           _______ _______ _______ _____ _____    ______ ____
DOCKED: ROOT
DOCKED: ATOM      1  C   UNL     1      20.828 -10.204  -4.487 -0.44 -0.00    +0.000 C 
DOCKED: ATOM      2  C   UNL     1      22.138 -10.143  -5.278 -0.33 -0.00    +0.000 C 
DOCKED: ENDROOT
DOCKED: BRANCH   1   3
DOCKED: ATOM      3  C   UNL     1      21.105 -10.503  -3.028 -0.55 -0.00    +0.000 C 
DOCKED: ATOM      4  C   UNL     1      20.161 -10.546  -2.065 -0.51 -0.00    +0.000 C 
DOCKED: ATOM      5  C   UNL     1      18.703 -10.275  -2.366 -0.29 -0.00    +0.000 C 
DOCKED: BRANCH   4   6
DOCKED: ATOM      6  C   UNL     1      20.603 -10.806  -0.670 -0.59 -0.00    +0.000 C 
DOCKED: ATOM      7  C   UNL     1      19.749 -10.982   0.349 -0.62 -0.00    +0.000 C 
DOCKED: BRANCH   7   8
DOCKED: ATOM      8  C   UNL     1      20.181 -11.240   1.738 -0.75 -0.00    +0.000 C 
DOCKED: ATOM      9  N   UNL     1      20.111 -10.240   2.763 -0.52 -0.00    +0.000 N 
DOCKED: ATOM     10  O   UNL     1      20.605 -12.391   2.030 -1.46 -0.00    +0.000 OA
DOCKED: ATOM     11  H   UNL     1      19.688  -9.372   2.572 -0.51 -0.00    +0.000 HD
DOCKED: BRANCH   9  12
DOCKED: ATOM     12  O   UNL     1      20.623 -10.487   3.991 -0.82 -0.00    +0.000 OA
DOCKED: ATOM     13  H   UNL     1      21.018 -11.373   4.006 -0.50 -0.00    +0.000 HD
DOCKED: ENDBRANCH   9  12
DOCKED: ENDBRANCH   7   8
DOCKED: ENDBRANCH   4   6
DOCKED: ENDBRANCH   1   3
DOCKED: BRANCH   1  14
DOCKED: ATOM     14  C   UNL     1      19.925 -11.263  -5.084 -0.49 -0.00    +0.000 C 
DOCKED: ATOM     15  O   UNL     1      19.885 -12.402  -4.542 -0.70 -0.00    +0.000 OA
DOCKED: BRANCH  14  19
DOCKED: ATOM     16  C   UNL     1      17.564 -10.508  -8.628 -0.19 -0.00    +0.000 A 
DOCKED: ATOM     17  C   UNL     1      18.926 -10.151  -8.566 -0.18 -0.00    +0.000 A 
DOCKED: ATOM     18  C   UNL     1      19.679 -10.396  -7.416 -0.25 -0.00    +0.000 A 
DOCKED: ATOM     19  C   UNL     1      19.100 -11.010  -6.294 -0.33 -0.00    +0.000 A 
DOCKED: ATOM     20  C   UNL     1      17.739 -11.360  -6.345 -0.33 -0.00    +0.000 A 
DOCKED: ATOM     21  C   UNL     1      16.983 -11.114  -7.495 -0.30 -0.00    +0.000 A 
DOCKED: BRANCH  16  23
DOCKED: ATOM     22  C   UNL     1      17.327  -9.441 -10.916 -0.10 -0.00    +0.000 C 
DOCKED: ATOM     23  N   UNL     1      16.779 -10.254  -9.822 -0.14 -0.00    +0.000 N 
DOCKED: ATOM     24  C   UNL     1      15.424 -10.802  -9.957 -0.14 -0.00    +0.000 C 
DOCKED: ENDBRANCH  16  23
DOCKED: ENDBRANCH  14  19
DOCKED: ENDBRANCH   1  14
DOCKED: TORSDOF 7
DOCKED: TER
DOCKED: ENDMDL
________________________________________________________________________________


	BEGINNING GENETIC ALGORITHM DOCKING 55 of 100
Run: 55 Seed: 647868933 334428847 [ Run 55 of 100 GA/GALS ]
Beginning LAMARCKIAN GENETIC ALGORITHM (LGA), with a maximum of 2500000 energy evaluations.

Final-Value: -13.188


	FINAL GENETIC ALGORITHM DOCKED STATE
	_______________________________________________


Detailed state:  trans 19.312 -9.965 -3.008 quatxyzw -0.825217 0.281240 -0.463079 0.159621 center 1.179 0.138 -0.353 ntor 7 2.1570 -63.2042 74.4649 107.3643 -64.1742 -38.4078 -83.6020
State:	 19.312  -9.965  -3.008  -0.836  0.285 -0.469 161.630      2.16  -63.20   74.46  107.36  -64.17  -38.41  -83.60

DOCKED: MODEL       55
DOCKED: USER    Run = 55
DOCKED: USER    DPF = ligand_dock.biased.dpf
DOCKED: USER  
DOCKED: USER    Estimated Free Energy of Binding    =   -9.38 kcal/mol  [=(1)+(2)+(3)-(4)]
DOCKED: USER    Estimated Inhibition Constant, Ki   =  132.51 nM (nanomolar)  [Temperature = 298.15 K]
DOCKED: USER    
DOCKED: USER    (1) Final Intermolecular Energy     =  -11.47 kcal/mol
DOCKED: USER        vdW + Hbond + desolv Energy     =  -11.47 kcal/mol
DOCKED: USER        Electrostatic Energy            =   +0.00 kcal/mol
DOCKED: USER    (2) Final Total Internal Energy     =   -1.72 kcal/mol
DOCKED: USER    (3) Torsional Free Energy           =   +2.09 kcal/mol
DOCKED: USER    (4) Unbound System's Energy  [=(2)] =   -1.72 kcal/mol
DOCKED: USER    
DOCKED: USER    
DOCKED: USER    NEWDPF move ligand.pdbqt
DOCKED: USER    NEWDPF about 1.179000 0.138000 -0.353000
DOCKED: USER    NEWDPF tran0 19.312380 -9.964916 -3.008242
DOCKED: USER    NEWDPF quaternion0 -0.825217 0.281240 -0.463079 0.159621
DOCKED: USER    NEWDPF axisangle0 -0.835935 0.284893 -0.469093 161.630209
DOCKED: USER    NEWDPF quat0 -0.835935 0.284893 -0.469093 161.630209
DOCKED: USER    NEWDPF dihe0 2.16 -63.20 74.46 107.36 -64.17 -38.41 -83.60 
DOCKED: USER  keepresnum = 1 
DOCKED: USER  
DOCKED: REMARK  Name = 
DOCKED: REMARK  11 active torsions:
DOCKED: REMARK  status: ('A' for Active; 'I' for Inactive)
DOCKED: REMARK    1  A    between atoms: C_1  and  N_2
DOCKED: REMARK    2  A    between atoms: N_2  and  C_3
DOCKED: REMARK    3  A    between atoms: N_2  and  C_22
DOCKED: REMARK    4  A    between atoms: C_6  and  C_9
DOCKED: REMARK    5  A    between atoms: C_9  and  C_10
DOCKED: REMARK    6  A    between atoms: C_10  and  C_11
DOCKED: REMARK    7  A    between atoms: C_10  and  C_20
DOCKED: REMARK    8  A    between atoms: C_12  and  C_13
DOCKED: REMARK    9  A    between atoms: C_12  and  C_19
DOCKED: REMARK   10  A    between atoms: C_14  and  C_15
DOCKED: REMARK   11  A    between atoms: N_16  and  O_17
DOCKED: REMARK                            x       y       z     vdW  Elec       q    Type
DOCKED: REMARK                         _______ _______ _______ _____ _____    ______ ____
DOCKED: USER                              x       y       z     vdW  Elec       q    Type
DOCKED: USER                           _______ _______ _______ _____ _____    ______ ____
DOCKED: ROOT
DOCKED: ATOM      1  C   UNL     1      20.729 -10.462  -4.204 -0.48 -0.00    +0.000 C 
DOCKED: ATOM      2  C   UNL     1      21.865 -11.096  -5.013 -0.50 -0.00    +0.000 C 
DOCKED: ENDROOT
DOCKED: BRANCH   1   3
DOCKED: ATOM      3  C   UNL     1      20.835 -10.854  -2.745 -0.43 -0.00    +0.000 C 
DOCKED: ATOM      4  C   UNL     1      20.965  -9.980  -1.726 -0.61 -0.00    +0.000 C 
DOCKED: ATOM      5  C   UNL     1      21.034  -8.486  -1.963 -0.51 -0.00    +0.000 C 
DOCKED: BRANCH   4   6
DOCKED: ATOM      6  C   UNL     1      21.105 -10.529  -0.352 -0.70 -0.00    +0.000 C 
DOCKED: ATOM      7  C   UNL     1      20.070 -10.671   0.490 -0.65 -0.00    +0.000 C 
DOCKED: BRANCH   7   8
DOCKED: ATOM      8  C   UNL     1      20.203 -11.215   1.857 -0.75 -0.00    +0.000 C 
DOCKED: ATOM      9  N   UNL     1      20.413 -10.377   3.000 -0.56 -0.00    +0.000 N 
DOCKED: ATOM     10  O   UNL     1      20.104 -12.461   2.018 -1.64 -0.00    +0.000 OA
DOCKED: ATOM     11  H   UNL     1      20.389  -9.397   2.901 -0.56 -0.00    +0.000 HD
DOCKED: BRANCH   9  12
DOCKED: ATOM     12  O   UNL     1      20.641 -10.927   4.216 -0.75 -0.00    +0.000 OA
DOCKED: ATOM     13  H   UNL     1      20.665 -11.893   4.134 -0.49 -0.00    +0.000 HD
DOCKED: ENDBRANCH   9  12
DOCKED: ENDBRANCH   7   8
DOCKED: ENDBRANCH   4   6
DOCKED: ENDBRANCH   1   3
DOCKED: BRANCH   1  14
DOCKED: ATOM     14  C   UNL     1      19.396 -10.896  -4.776 -0.43 -0.00    +0.000 C 
DOCKED: ATOM     15  O   UNL     1      19.386 -11.595  -5.827 -0.49 -0.00    +0.000 OA
DOCKED: BRANCH  14  19
DOCKED: ATOM     16  C   UNL     1      15.614  -9.773  -3.005 -0.22 -0.00    +0.000 A 
DOCKED: ATOM     17  C   UNL     1      15.799  -9.764  -4.402 -0.18 -0.00    +0.000 A 
DOCKED: ATOM     18  C   UNL     1      17.026 -10.126  -4.965 -0.21 -0.00    +0.000 A 
DOCKED: ATOM     19  C   UNL     1      18.103 -10.513  -4.151 -0.25 -0.00    +0.000 A 
DOCKED: ATOM     20  C   UNL     1      17.928 -10.515  -2.757 -0.21 -0.00    +0.000 A 
DOCKED: ATOM     21  C   UNL     1      16.701 -10.152  -2.192 -0.19 -0.00    +0.000 A 
DOCKED: BRANCH  16  23
DOCKED: ATOM     22  C   UNL     1      13.358 -10.423  -2.047 -0.28 -0.00    +0.000 C 
DOCKED: ATOM     23  N   UNL     1      14.340  -9.397  -2.419 -0.18 -0.00    +0.000 N 
DOCKED: ATOM     24  C   UNL     1      14.011  -7.985  -2.190 -0.18 -0.00    +0.000 C 
DOCKED: ENDBRANCH  16  23
DOCKED: ENDBRANCH  14  19
DOCKED: ENDBRANCH   1  14
DOCKED: TORSDOF 7
DOCKED: TER
DOCKED: ENDMDL
________________________________________________________________________________


	BEGINNING GENETIC ALGORITHM DOCKING 56 of 100
Run: 56 Seed: 100414484 1968500833 [ Run 56 of 100 GA/GALS ]
Beginning LAMARCKIAN GENETIC ALGORITHM (LGA), with a maximum of 2500000 energy evaluations.

Final-Value: -11.974


	FINAL GENETIC ALGORITHM DOCKED STATE
	_______________________________________________


Detailed state:  trans 15.627 -11.912 -1.753 quatxyzw 0.682105 0.279502 0.271167 0.618935 center 1.179 0.138 -0.353 ntor 7 -12.5681 66.0175 166.9967 -131.5599 -26.2578 3.3835 -179.6852
State:	 15.627 -11.912  -1.753   0.868  0.356  0.345 103.523    -12.57   66.02  167.00 -131.56  -26.26    3.38 -179.69

DOCKED: MODEL       56
DOCKED: USER    Run = 56
DOCKED: USER    DPF = ligand_dock.biased.dpf
DOCKED: USER  
DOCKED: USER    Estimated Free Energy of Binding    =   -8.26 kcal/mol  [=(1)+(2)+(3)-(4)]
DOCKED: USER    Estimated Inhibition Constant, Ki   =  879.87 nM (nanomolar)  [Temperature = 298.15 K]
DOCKED: USER    
DOCKED: USER    (1) Final Intermolecular Energy     =  -10.35 kcal/mol
DOCKED: USER        vdW + Hbond + desolv Energy     =  -10.35 kcal/mol
DOCKED: USER        Electrostatic Energy            =   +0.00 kcal/mol
DOCKED: USER    (2) Final Total Internal Energy     =   -1.62 kcal/mol
DOCKED: USER    (3) Torsional Free Energy           =   +2.09 kcal/mol
DOCKED: USER    (4) Unbound System's Energy  [=(2)] =   -1.62 kcal/mol
DOCKED: USER    
DOCKED: USER    
DOCKED: USER    NEWDPF move ligand.pdbqt
DOCKED: USER    NEWDPF about 1.179000 0.138000 -0.353000
DOCKED: USER    NEWDPF tran0 15.627260 -11.912154 -1.752876
DOCKED: USER    NEWDPF quaternion0 0.682105 0.279502 0.271167 0.618935
DOCKED: USER    NEWDPF axisangle0 0.868434 0.355853 0.345241 103.523229
DOCKED: USER    NEWDPF quat0 0.868434 0.355853 0.345241 103.523229
DOCKED: USER    NEWDPF dihe0 -12.57 66.02 167.00 -131.56 -26.26 3.38 -179.69 
DOCKED: USER  keepresnum = 1 
DOCKED: USER  
DOCKED: REMARK  Name = 
DOCKED: REMARK  11 active torsions:
DOCKED: REMARK  status: ('A' for Active; 'I' for Inactive)
DOCKED: REMARK    1  A    between atoms: C_1  and  N_2
DOCKED: REMARK    2  A    between atoms: N_2  and  C_3
DOCKED: REMARK    3  A    between atoms: N_2  and  C_22
DOCKED: REMARK    4  A    between atoms: C_6  and  C_9
DOCKED: REMARK    5  A    between atoms: C_9  and  C_10
DOCKED: REMARK    6  A    between atoms: C_10  and  C_11
DOCKED: REMARK    7  A    between atoms: C_10  and  C_20
DOCKED: REMARK    8  A    between atoms: C_12  and  C_13
DOCKED: REMARK    9  A    between atoms: C_12  and  C_19
DOCKED: REMARK   10  A    between atoms: C_14  and  C_15
DOCKED: REMARK   11  A    between atoms: N_16  and  O_17
DOCKED: REMARK                            x       y       z     vdW  Elec       q    Type
DOCKED: REMARK                         _______ _______ _______ _____ _____    ______ ____
DOCKED: USER                              x       y       z     vdW  Elec       q    Type
DOCKED: USER                           _______ _______ _______ _____ _____    ______ ____
DOCKED: ROOT
DOCKED: ATOM      1  C   UNL     1      15.134 -10.057  -1.781 -0.28 -0.00    +0.000 C 
DOCKED: ATOM      2  C   UNL     1      15.015  -8.530  -1.792 -0.16 -0.00    +0.000 C 
DOCKED: ENDROOT
DOCKED: BRANCH   1   3
DOCKED: ATOM      3  C   UNL     1      16.287 -10.492  -0.900 -0.31 -0.00    +0.000 C 
DOCKED: ATOM      4  C   UNL     1      16.452 -11.742  -0.420 -0.42 +0.00    +0.000 C 
DOCKED: ATOM      5  C   UNL     1      15.460 -12.846  -0.716 -0.47 +0.00    +0.000 C 
DOCKED: BRANCH   4   6
DOCKED: ATOM      6  C   UNL     1      17.613 -11.996   0.473 -0.53 +0.00    +0.000 C 
DOCKED: ATOM      7  C   UNL     1      18.196 -11.037   1.208 -0.51 -0.00    +0.000 C 
DOCKED: BRANCH   7   8
DOCKED: ATOM      8  C   UNL     1      19.351 -11.283   2.096 -0.68 -0.00    +0.000 C 
DOCKED: ATOM      9  N   UNL     1      19.892 -10.268   2.952 -0.60 -0.00    +0.000 N 
DOCKED: ATOM     10  O   UNL     1      19.858 -12.437   2.114 -1.67 -0.00    +0.000 OA
DOCKED: ATOM     11  H   UNL     1      19.441  -9.396   3.022 -0.53 -0.00    +0.000 HD
DOCKED: BRANCH   9  12
DOCKED: ATOM     12  O   UNL     1      21.018 -10.507   3.663 -0.68 -0.00    +0.000 OA
DOCKED: ATOM     13  H   UNL     1      21.221 -11.456   3.641 -0.53 -0.00    +0.000 HD
DOCKED: ENDBRANCH   9  12
DOCKED: ENDBRANCH   7   8
DOCKED: ENDBRANCH   4   6
DOCKED: ENDBRANCH   1   3
DOCKED: BRANCH   1  14
DOCKED: ATOM     14  C   UNL     1      15.328 -10.561  -3.196 -0.27 -0.00    +0.000 C 
DOCKED: ATOM     15  O   UNL     1      14.336 -11.043  -3.809 -0.33 -0.00    +0.000 OA
DOCKED: BRANCH  14  19
DOCKED: ATOM     16  C   UNL     1      19.149 -10.473  -5.219 -0.31 -0.00    +0.000 A 
DOCKED: ATOM     17  C   UNL     1      18.013 -11.046  -5.825 -0.32 -0.00    +0.000 A 
DOCKED: ATOM     18  C   UNL     1      16.784 -11.073  -5.162 -0.08 -0.00    +0.000 A 
DOCKED: ATOM     19  C   UNL     1      16.648 -10.523  -3.878 -0.12 -0.00    +0.000 A 
DOCKED: ATOM     20  C   UNL     1      17.779  -9.958  -3.263 -0.21 -0.00    +0.000 A 
DOCKED: ATOM     21  C   UNL     1      19.011  -9.933  -3.924 -0.28 -0.00    +0.000 A 
DOCKED: BRANCH  16  23
DOCKED: ATOM     22  C   UNL     1      21.661 -10.823  -5.204 -0.50 -0.00    +0.000 C 
DOCKED: ATOM     23  N   UNL     1      20.428 -10.446  -5.906 -0.30 -0.00    +0.000 N 
DOCKED: ATOM     24  C   UNL     1      20.511 -10.038  -7.313 -0.25 -0.00    +0.000 C 
DOCKED: ENDBRANCH  16  23
DOCKED: ENDBRANCH  14  19
DOCKED: ENDBRANCH   1  14
DOCKED: TORSDOF 7
DOCKED: TER
DOCKED: ENDMDL
________________________________________________________________________________


	BEGINNING GENETIC ALGORITHM DOCKING 57 of 100
Run: 57 Seed: 861045186 276194546 [ Run 57 of 100 GA/GALS ]
Beginning LAMARCKIAN GENETIC ALGORITHM (LGA), with a maximum of 2500000 energy evaluations.

Final-Value: -12.918


	FINAL GENETIC ALGORITHM DOCKED STATE
	_______________________________________________


Detailed state:  trans 20.527 -8.641 -3.133 quatxyzw -0.613146 0.585567 -0.445797 0.287103 center 1.179 0.138 -0.353 ntor 7 27.1086 -20.9117 -74.7282 -110.0418 49.2716 -5.9034 -169.1604
State:	 20.527  -8.641  -3.133  -0.640  0.611 -0.465 146.631     27.11  -20.91  -74.73 -110.04   49.27   -5.90 -169.16

DOCKED: MODEL       57
DOCKED: USER    Run = 57
DOCKED: USER    DPF = ligand_dock.biased.dpf
DOCKED: USER  
DOCKED: USER    Estimated Free Energy of Binding    =   -9.10 kcal/mol  [=(1)+(2)+(3)-(4)]
DOCKED: USER    Estimated Inhibition Constant, Ki   =  214.82 nM (nanomolar)  [Temperature = 298.15 K]
DOCKED: USER    
DOCKED: USER    (1) Final Intermolecular Energy     =  -11.18 kcal/mol
DOCKED: USER        vdW + Hbond + desolv Energy     =  -11.18 kcal/mol
DOCKED: USER        Electrostatic Energy            =   +0.00 kcal/mol
DOCKED: USER    (2) Final Total Internal Energy     =   -1.73 kcal/mol
DOCKED: USER    (3) Torsional Free Energy           =   +2.09 kcal/mol
DOCKED: USER    (4) Unbound System's Energy  [=(2)] =   -1.73 kcal/mol
DOCKED: USER    
DOCKED: USER    
DOCKED: USER    NEWDPF move ligand.pdbqt
DOCKED: USER    NEWDPF about 1.179000 0.138000 -0.353000
DOCKED: USER    NEWDPF tran0 20.526841 -8.641102 -3.133040
DOCKED: USER    NEWDPF quaternion0 -0.613146 0.585567 -0.445797 0.287103
DOCKED: USER    NEWDPF axisangle0 -0.640094 0.611303 -0.465390 146.630830
DOCKED: USER    NEWDPF quat0 -0.640094 0.611303 -0.465390 146.630830
DOCKED: USER    NEWDPF dihe0 27.11 -20.91 -74.73 -110.04 49.27 -5.90 -169.16 
DOCKED: USER  keepresnum = 1 
DOCKED: USER  
DOCKED: REMARK  Name = 
DOCKED: REMARK  11 active torsions:
DOCKED: REMARK  status: ('A' for Active; 'I' for Inactive)
DOCKED: REMARK    1  A    between atoms: C_1  and  N_2
DOCKED: REMARK    2  A    between atoms: N_2  and  C_3
DOCKED: REMARK    3  A    between atoms: N_2  and  C_22
DOCKED: REMARK    4  A    between atoms: C_6  and  C_9
DOCKED: REMARK    5  A    between atoms: C_9  and  C_10
DOCKED: REMARK    6  A    between atoms: C_10  and  C_11
DOCKED: REMARK    7  A    between atoms: C_10  and  C_20
DOCKED: REMARK    8  A    between atoms: C_12  and  C_13
DOCKED: REMARK    9  A    between atoms: C_12  and  C_19
DOCKED: REMARK   10  A    between atoms: C_14  and  C_15
DOCKED: REMARK   11  A    between atoms: N_16  and  O_17
DOCKED: REMARK                            x       y       z     vdW  Elec       q    Type
DOCKED: REMARK                         _______ _______ _______ _____ _____    ______ ____
DOCKED: USER                              x       y       z     vdW  Elec       q    Type
DOCKED: USER                           _______ _______ _______ _____ _____    ______ ____
DOCKED: ROOT
DOCKED: ATOM      1  C   UNL     1      21.402 -10.047  -4.103 -0.47 -0.00    +0.000 C 
DOCKED: ATOM      2  C   UNL     1      21.915 -11.336  -4.753 -0.44 -0.00    +0.000 C 
DOCKED: ENDROOT
DOCKED: BRANCH   1   3
DOCKED: ATOM      3  C   UNL     1      20.940 -10.317  -2.686 -0.55 -0.00    +0.000 C 
DOCKED: ATOM      4  C   UNL     1      20.921  -9.396  -1.700 -0.58 -0.00    +0.000 C 
DOCKED: ATOM      5  C   UNL     1      21.390  -7.975  -1.929 -0.49 -0.00    +0.000 C 
DOCKED: BRANCH   4   6
DOCKED: ATOM      6  C   UNL     1      20.483  -9.833  -0.349 -0.60 -0.00    +0.000 C 
DOCKED: ATOM      7  C   UNL     1      20.933 -10.950   0.242 -0.68 -0.00    +0.000 C 
DOCKED: BRANCH   7   8
DOCKED: ATOM      8  C   UNL     1      20.501 -11.390   1.585 -0.76 -0.00    +0.000 C 
DOCKED: ATOM      9  N   UNL     1      20.639 -10.561   2.746 -0.62 -0.00    +0.000 N 
DOCKED: ATOM     10  O   UNL     1      19.971 -12.527   1.701 -1.66 -0.00    +0.000 OA
DOCKED: ATOM     11  H   UNL     1      20.956  -9.633   2.651 -0.57 -0.00    +0.000 HD
DOCKED: BRANCH   9  12
DOCKED: ATOM     12  O   UNL     1      20.334 -11.049   3.971 -0.81 -0.00    +0.000 OA
DOCKED: ATOM     13  H   UNL     1      20.456 -12.011   3.977 -0.39 -0.00    +0.000 HD
DOCKED: ENDBRANCH   9  12
DOCKED: ENDBRANCH   7   8
DOCKED: ENDBRANCH   4   6
DOCKED: ENDBRANCH   1   3
DOCKED: BRANCH   1  14
DOCKED: ATOM     14  C   UNL     1      20.271  -9.477  -4.931 -0.29 -0.00    +0.000 C 
DOCKED: ATOM     15  O   UNL     1      20.545  -8.656  -5.850 -0.17 -0.00    +0.000 OA
DOCKED: BRANCH  14  19
DOCKED: ATOM     16  C   UNL     1      16.135 -10.551  -4.264 -0.18 -0.00    +0.000 A 
DOCKED: ATOM     17  C   UNL     1      16.840 -11.021  -5.390 -0.21 -0.00    +0.000 A 
DOCKED: ATOM     18  C   UNL     1      18.175 -10.665  -5.599 -0.29 -0.00    +0.000 A 
DOCKED: ATOM     19  C   UNL     1      18.849  -9.837  -4.687 -0.25 -0.00    +0.000 A 
DOCKED: ATOM     20  C   UNL     1      18.149  -9.358  -3.567 -0.13 -0.00    +0.000 A 
DOCKED: ATOM     21  C   UNL     1      16.813  -9.711  -3.357 -0.20 -0.00    +0.000 A 
DOCKED: BRANCH  16  23
DOCKED: ATOM     22  C   UNL     1      14.270 -11.266  -2.701 -0.34 -0.00    +0.000 C 
DOCKED: ATOM     23  N   UNL     1      14.748 -10.919  -4.045 -0.27 -0.00    +0.000 N 
DOCKED: ATOM     24  C   UNL     1      13.799 -10.953  -5.165 -0.25 -0.00    +0.000 C 
DOCKED: ENDBRANCH  16  23
DOCKED: ENDBRANCH  14  19
DOCKED: ENDBRANCH   1  14
DOCKED: TORSDOF 7
DOCKED: TER
DOCKED: ENDMDL
________________________________________________________________________________


	BEGINNING GENETIC ALGORITHM DOCKING 58 of 100
Run: 58 Seed: 2117860709 1763071720 [ Run 58 of 100 GA/GALS ]
Beginning LAMARCKIAN GENETIC ALGORITHM (LGA), with a maximum of 2500000 energy evaluations.

Final-Value: -13.236


	FINAL GENETIC ALGORITHM DOCKED STATE
	_______________________________________________


Detailed state:  trans 21.303 -8.785 -3.106 quatxyzw 0.618618 -0.615687 0.306067 -0.380217 center 1.179 0.138 -0.353 ntor 7 21.8234 -171.6855 21.0226 139.1790 64.7966 21.9379 164.9788
State:	 21.303  -8.785  -3.106   0.669 -0.666  0.331 -135.306     21.82 -171.69   21.02  139.18   64.80   21.94  164.98

DOCKED: MODEL       58
DOCKED: USER    Run = 58
DOCKED: USER    DPF = ligand_dock.biased.dpf
DOCKED: USER  
DOCKED: USER    Estimated Free Energy of Binding    =   -9.33 kcal/mol  [=(1)+(2)+(3)-(4)]
DOCKED: USER    Estimated Inhibition Constant, Ki   =  144.41 nM (nanomolar)  [Temperature = 298.15 K]
DOCKED: USER    
DOCKED: USER    (1) Final Intermolecular Energy     =  -11.42 kcal/mol
DOCKED: USER        vdW + Hbond + desolv Energy     =  -11.42 kcal/mol
DOCKED: USER        Electrostatic Energy            =   +0.00 kcal/mol
DOCKED: USER    (2) Final Total Internal Energy     =   -1.82 kcal/mol
DOCKED: USER    (3) Torsional Free Energy           =   +2.09 kcal/mol
DOCKED: USER    (4) Unbound System's Energy  [=(2)] =   -1.82 kcal/mol
DOCKED: USER    
DOCKED: USER    
DOCKED: USER    NEWDPF move ligand.pdbqt
DOCKED: USER    NEWDPF about 1.179000 0.138000 -0.353000
DOCKED: USER    NEWDPF tran0 21.302986 -8.785361 -3.106472
DOCKED: USER    NEWDPF quaternion0 0.618618 -0.615687 0.306067 -0.380217
DOCKED: USER    NEWDPF axisangle0 0.668850 -0.665681 0.330919 -135.305808
DOCKED: USER    NEWDPF quat0 0.668850 -0.665681 0.330919 -135.305808
DOCKED: USER    NEWDPF dihe0 21.82 -171.69 21.02 139.18 64.80 21.94 164.98 
DOCKED: USER  keepresnum = 1 
DOCKED: USER  
DOCKED: REMARK  Name = 
DOCKED: REMARK  11 active torsions:
DOCKED: REMARK  status: ('A' for Active; 'I' for Inactive)
DOCKED: REMARK    1  A    between atoms: C_1  and  N_2
DOCKED: REMARK    2  A    between atoms: N_2  and  C_3
DOCKED: REMARK    3  A    between atoms: N_2  and  C_22
DOCKED: REMARK    4  A    between atoms: C_6  and  C_9
DOCKED: REMARK    5  A    between atoms: C_9  and  C_10
DOCKED: REMARK    6  A    between atoms: C_10  and  C_11
DOCKED: REMARK    7  A    between atoms: C_10  and  C_20
DOCKED: REMARK    8  A    between atoms: C_12  and  C_13
DOCKED: REMARK    9  A    between atoms: C_12  and  C_19
DOCKED: REMARK   10  A    between atoms: C_14  and  C_15
DOCKED: REMARK   11  A    between atoms: N_16  and  O_17
DOCKED: REMARK                            x       y       z     vdW  Elec       q    Type
DOCKED: REMARK                         _______ _______ _______ _____ _____    ______ ____
DOCKED: USER                              x       y       z     vdW  Elec       q    Type
DOCKED: USER                           _______ _______ _______ _____ _____    ______ ____
DOCKED: ROOT
DOCKED: ATOM      1  C   UNL     1      21.599 -10.218  -4.350 -0.46 -0.00    +0.000 C 
DOCKED: ATOM      2  C   UNL     1      21.656 -11.503  -5.181 -0.56 -0.00    +0.000 C 
DOCKED: ENDROOT
DOCKED: BRANCH   1   3
DOCKED: ATOM      3  C   UNL     1      21.470 -10.546  -2.876 -0.51 -0.00    +0.000 C 
DOCKED: ATOM      4  C   UNL     1      21.369  -9.626  -1.895 -0.58 -0.00    +0.000 C 
DOCKED: ATOM      5  C   UNL     1      21.393  -8.141  -2.190 -0.49 -0.00    +0.000 C 
DOCKED: BRANCH   4   6
DOCKED: ATOM      6  C   UNL     1      21.299 -10.110  -0.492 -0.71 -0.00    +0.000 C 
DOCKED: ATOM      7  C   UNL     1      20.286 -10.855  -0.024 -0.65 -0.00    +0.000 C 
DOCKED: BRANCH   7   8
DOCKED: ATOM      8  C   UNL     1      20.210 -11.340   1.370 -0.74 -0.00    +0.000 C 
DOCKED: ATOM      9  N   UNL     1      20.613 -10.535   2.486 -0.60 -0.00    +0.000 N 
DOCKED: ATOM     10  O   UNL     1      19.749 -12.494   1.579 -1.61 -0.00    +0.000 OA
DOCKED: ATOM     11  H   UNL     1      20.877  -9.597   2.344 -0.54 -0.00    +0.000 HD
DOCKED: BRANCH   9  12
DOCKED: ATOM     12  O   UNL     1      20.631 -11.061   3.733 -0.79 -0.00    +0.000 OA
DOCKED: ATOM     13  H   UNL     1      20.688 -12.028   3.676 -0.50 -0.00    +0.000 HD
DOCKED: ENDBRANCH   9  12
DOCKED: ENDBRANCH   7   8
DOCKED: ENDBRANCH   4   6
DOCKED: ENDBRANCH   1   3
DOCKED: BRANCH   1  14
DOCKED: ATOM     14  C   UNL     1      20.431  -9.369  -4.809 -0.31 -0.00    +0.000 C 
DOCKED: ATOM     15  O   UNL     1      20.666  -8.239  -5.318 -0.19 -0.00    +0.000 OA
DOCKED: BRANCH  14  19
DOCKED: ATOM     16  C   UNL     1      16.329 -10.686  -4.430 -0.11 -0.00    +0.000 A 
DOCKED: ATOM     17  C   UNL     1      17.072 -10.934  -5.602 -0.26 -0.00    +0.000 A 
DOCKED: ATOM     18  C   UNL     1      18.396 -10.502  -5.716 -0.28 -0.00    +0.000 A 
DOCKED: ATOM     19  C   UNL     1      19.021  -9.816  -4.663 -0.25 -0.00    +0.000 A 
DOCKED: ATOM     20  C   UNL     1      18.283  -9.557  -3.495 -0.18 -0.00    +0.000 A 
DOCKED: ATOM     21  C   UNL     1      16.957  -9.987  -3.380 -0.22 -0.00    +0.000 A 
DOCKED: BRANCH  16  23
DOCKED: ATOM     22  C   UNL     1      14.221 -11.617  -5.487 -0.30 -0.00    +0.000 C 
DOCKED: ATOM     23  N   UNL     1      14.954 -11.135  -4.310 -0.28 -0.00    +0.000 N 
DOCKED: ATOM     24  C   UNL     1      14.271 -11.112  -3.011 -0.32 -0.00    +0.000 C 
DOCKED: ENDBRANCH  16  23
DOCKED: ENDBRANCH  14  19
DOCKED: ENDBRANCH   1  14
DOCKED: TORSDOF 7
DOCKED: TER
DOCKED: ENDMDL
________________________________________________________________________________


	BEGINNING GENETIC ALGORITHM DOCKING 59 of 100
Run: 59 Seed: 468097941 1111922209 [ Run 59 of 100 GA/GALS ]
Beginning LAMARCKIAN GENETIC ALGORITHM (LGA), with a maximum of 2500000 energy evaluations.

Final-Value: -11.962


	FINAL GENETIC ALGORITHM DOCKED STATE
	_______________________________________________


Detailed state:  trans 21.844 -11.142 -5.455 quatxyzw 0.048592 0.724106 0.155422 0.670189 center 1.179 0.138 -0.353 ntor 7 -80.8941 -132.1229 -170.9567 117.4228 18.4239 136.2028 -62.8161
State:	 21.844 -11.142  -5.455   0.065  0.976  0.209 95.837    -80.89 -132.12 -170.96  117.42   18.42  136.20  -62.82

DOCKED: MODEL       59
DOCKED: USER    Run = 59
DOCKED: USER    DPF = ligand_dock.biased.dpf
DOCKED: USER  
DOCKED: USER    Estimated Free Energy of Binding    =   -8.77 kcal/mol  [=(1)+(2)+(3)-(4)]
DOCKED: USER    Estimated Inhibition Constant, Ki   =  372.14 nM (nanomolar)  [Temperature = 298.15 K]
DOCKED: USER    
DOCKED: USER    (1) Final Intermolecular Energy     =  -10.86 kcal/mol
DOCKED: USER        vdW + Hbond + desolv Energy     =  -10.86 kcal/mol
DOCKED: USER        Electrostatic Energy            =   +0.00 kcal/mol
DOCKED: USER    (2) Final Total Internal Energy     =   -1.10 kcal/mol
DOCKED: USER    (3) Torsional Free Energy           =   +2.09 kcal/mol
DOCKED: USER    (4) Unbound System's Energy  [=(2)] =   -1.10 kcal/mol
DOCKED: USER    
DOCKED: USER    
DOCKED: USER    NEWDPF move ligand.pdbqt
DOCKED: USER    NEWDPF about 1.179000 0.138000 -0.353000
DOCKED: USER    NEWDPF tran0 21.844229 -11.142115 -5.454868
DOCKED: USER    NEWDPF quaternion0 0.048592 0.724106 0.155422 0.670189
DOCKED: USER    NEWDPF axisangle0 0.065471 0.975634 0.209410 95.836639
DOCKED: USER    NEWDPF quat0 0.065471 0.975634 0.209410 95.836639
DOCKED: USER    NEWDPF dihe0 -80.89 -132.12 -170.96 117.42 18.42 136.20 -62.82 
DOCKED: USER  keepresnum = 1 
DOCKED: USER  
DOCKED: REMARK  Name = 
DOCKED: REMARK  11 active torsions:
DOCKED: REMARK  status: ('A' for Active; 'I' for Inactive)
DOCKED: REMARK    1  A    between atoms: C_1  and  N_2
DOCKED: REMARK    2  A    between atoms: N_2  and  C_3
DOCKED: REMARK    3  A    between atoms: N_2  and  C_22
DOCKED: REMARK    4  A    between atoms: C_6  and  C_9
DOCKED: REMARK    5  A    between atoms: C_9  and  C_10
DOCKED: REMARK    6  A    between atoms: C_10  and  C_11
DOCKED: REMARK    7  A    between atoms: C_10  and  C_20
DOCKED: REMARK    8  A    between atoms: C_12  and  C_13
DOCKED: REMARK    9  A    between atoms: C_12  and  C_19
DOCKED: REMARK   10  A    between atoms: C_14  and  C_15
DOCKED: REMARK   11  A    between atoms: N_16  and  O_17
DOCKED: REMARK                            x       y       z     vdW  Elec       q    Type
DOCKED: REMARK                         _______ _______ _______ _____ _____    ______ ____
DOCKED: USER                              x       y       z     vdW  Elec       q    Type
DOCKED: USER                           _______ _______ _______ _____ _____    ______ ____
DOCKED: ROOT
DOCKED: ATOM      1  C   UNL     1      19.982 -11.023  -5.904 -0.39 -0.00    +0.000 C 
DOCKED: ATOM      2  C   UNL     1      18.478 -10.765  -6.038 -0.35 -0.00    +0.000 C 
DOCKED: ENDROOT
DOCKED: BRANCH   1   3
DOCKED: ATOM      3  C   UNL     1      20.375 -11.121  -4.445 -0.51 -0.00    +0.000 C 
DOCKED: ATOM      4  C   UNL     1      20.283 -10.108  -3.560 -0.45 -0.00    +0.000 C 
DOCKED: ATOM      5  C   UNL     1      19.780  -8.739  -3.965 -0.28 -0.00    +0.000 C 
DOCKED: BRANCH   4   6
DOCKED: ATOM      6  C   UNL     1      20.757 -10.352  -2.172 -0.56 -0.00    +0.000 C 
DOCKED: ATOM      7  C   UNL     1      19.984 -10.895  -1.219 -0.49 -0.00    +0.000 C 
DOCKED: BRANCH   7   8
DOCKED: ATOM      8  C   UNL     1      20.448 -11.140   0.162 -0.63 -0.00    +0.000 C 
DOCKED: ATOM      9  N   UNL     1      19.896 -12.175   0.986 -0.64 -0.00    +0.000 N 
DOCKED: ATOM     10  O   UNL     1      21.380 -10.424   0.617 -0.74 -0.00    +0.000 OA
DOCKED: ATOM     11  H   UNL     1      19.240 -12.805   0.608 -0.38 -0.00    +0.000 HD
DOCKED: BRANCH   9  12
DOCKED: ATOM     12  O   UNL     1      20.273 -12.288   2.281 -1.56 -0.00    +0.000 OA
DOCKED: ATOM     13  H   UNL     1      21.123 -12.754   2.331 -0.57 -0.00    +0.000 HD
DOCKED: ENDBRANCH   9  12
DOCKED: ENDBRANCH   7   8
DOCKED: ENDBRANCH   4   6
DOCKED: ENDBRANCH   1   3
DOCKED: BRANCH   1  14
DOCKED: ATOM     14  C   UNL     1      20.749  -9.911  -6.587 -0.27 -0.00    +0.000 C 
DOCKED: ATOM     15  O   UNL     1      20.144  -8.839  -6.868 -0.13 -0.00    +0.000 OA
DOCKED: BRANCH  14  19
DOCKED: ATOM     16  C   UNL     1      24.930 -10.255  -7.638 -0.30 -0.00    +0.000 A 
DOCKED: ATOM     17  C   UNL     1      24.409  -9.066  -7.090 -0.18 -0.00    +0.000 A 
DOCKED: ATOM     18  C   UNL     1      23.056  -8.963  -6.757 -0.21 -0.00    +0.000 A 
DOCKED: ATOM     19  C   UNL     1      22.184 -10.045  -6.953 -0.28 -0.00    +0.000 A 
DOCKED: ATOM     20  C   UNL     1      22.695 -11.231  -7.508 -0.37 -0.00    +0.000 A 
DOCKED: ATOM     21  C   UNL     1      24.048 -11.335  -7.844 -0.40 -0.00    +0.000 A 
DOCKED: BRANCH  16  23
DOCKED: ATOM     22  C   UNL     1      27.343  -9.562  -7.279 -0.46 -0.00    +0.000 C 
DOCKED: ATOM     23  N   UNL     1      26.336 -10.364  -7.985 -0.39 -0.00    +0.000 N 
DOCKED: ATOM     24  C   UNL     1      26.775 -11.275  -9.049 -0.33 -0.00    +0.000 C 
DOCKED: ENDBRANCH  16  23
DOCKED: ENDBRANCH  14  19
DOCKED: ENDBRANCH   1  14
DOCKED: TORSDOF 7
DOCKED: TER
DOCKED: ENDMDL
________________________________________________________________________________


	BEGINNING GENETIC ALGORITHM DOCKING 60 of 100
Run: 60 Seed: 1189236615 845512891 [ Run 60 of 100 GA/GALS ]
Beginning LAMARCKIAN GENETIC ALGORITHM (LGA), with a maximum of 2500000 energy evaluations.

Final-Value: -12.986


	FINAL GENETIC ALGORITHM DOCKED STATE
	_______________________________________________


Detailed state:  trans 18.957 -11.096 -3.489 quatxyzw -0.759564 -0.061742 -0.620808 -0.183976 center 1.179 0.138 -0.353 ntor 7 6.2785 -179.8325 180.0000 -95.9672 -104.8627 -4.4594 -13.1083
State:	 18.957 -11.096  -3.489  -0.773 -0.063 -0.632 -158.797      6.28 -179.83  180.00  -95.97 -104.86   -4.46  -13.11

DOCKED: MODEL       60
DOCKED: USER    Run = 60
DOCKED: USER    DPF = ligand_dock.biased.dpf
DOCKED: USER  
DOCKED: USER    Estimated Free Energy of Binding    =   -9.19 kcal/mol  [=(1)+(2)+(3)-(4)]
DOCKED: USER    Estimated Inhibition Constant, Ki   =  182.33 nM (nanomolar)  [Temperature = 298.15 K]
DOCKED: USER    
DOCKED: USER    (1) Final Intermolecular Energy     =  -11.28 kcal/mol
DOCKED: USER        vdW + Hbond + desolv Energy     =  -11.28 kcal/mol
DOCKED: USER        Electrostatic Energy            =   +0.00 kcal/mol
DOCKED: USER    (2) Final Total Internal Energy     =   -1.70 kcal/mol
DOCKED: USER    (3) Torsional Free Energy           =   +2.09 kcal/mol
DOCKED: USER    (4) Unbound System's Energy  [=(2)] =   -1.70 kcal/mol
DOCKED: USER    
DOCKED: USER    
DOCKED: USER    NEWDPF move ligand.pdbqt
DOCKED: USER    NEWDPF about 1.179000 0.138000 -0.353000
DOCKED: USER    NEWDPF tran0 18.957393 -11.095952 -3.489156
DOCKED: USER    NEWDPF quaternion0 -0.759564 -0.061742 -0.620808 -0.183976
DOCKED: USER    NEWDPF axisangle0 -0.772755 -0.062814 -0.631589 -158.797173
DOCKED: USER    NEWDPF quat0 -0.772755 -0.062814 -0.631589 -158.797173
DOCKED: USER    NEWDPF dihe0 6.28 -179.83 180.00 -95.97 -104.86 -4.46 -13.11 
DOCKED: USER  keepresnum = 1 
DOCKED: USER  
DOCKED: REMARK  Name = 
DOCKED: REMARK  11 active torsions:
DOCKED: REMARK  status: ('A' for Active; 'I' for Inactive)
DOCKED: REMARK    1  A    between atoms: C_1  and  N_2
DOCKED: REMARK    2  A    between atoms: N_2  and  C_3
DOCKED: REMARK    3  A    between atoms: N_2  and  C_22
DOCKED: REMARK    4  A    between atoms: C_6  and  C_9
DOCKED: REMARK    5  A    between atoms: C_9  and  C_10
DOCKED: REMARK    6  A    between atoms: C_10  and  C_11
DOCKED: REMARK    7  A    between atoms: C_10  and  C_20
DOCKED: REMARK    8  A    between atoms: C_12  and  C_13
DOCKED: REMARK    9  A    between atoms: C_12  and  C_19
DOCKED: REMARK   10  A    between atoms: C_14  and  C_15
DOCKED: REMARK   11  A    between atoms: N_16  and  O_17
DOCKED: REMARK                            x       y       z     vdW  Elec       q    Type
DOCKED: REMARK                         _______ _______ _______ _____ _____    ______ ____
DOCKED: USER                              x       y       z     vdW  Elec       q    Type
DOCKED: USER                           _______ _______ _______ _____ _____    ______ ____
DOCKED: ROOT
DOCKED: ATOM      1  C   UNL     1      20.433  -9.962  -3.959 -0.42 -0.00    +0.000 C 
DOCKED: ATOM      2  C   UNL     1      21.763  -9.237  -4.184 -0.35 -0.00    +0.000 C 
DOCKED: ENDROOT
DOCKED: BRANCH   1   3
DOCKED: ATOM      3  C   UNL     1      20.383 -10.555  -2.566 -0.51 -0.00    +0.000 C 
DOCKED: ATOM      4  C   UNL     1      19.247 -10.817  -1.888 -0.45 -0.00    +0.000 C 
DOCKED: ATOM      5  C   UNL     1      17.884 -10.517  -2.472 -0.27 -0.00    +0.000 C 
DOCKED: BRANCH   4   6
DOCKED: ATOM      6  C   UNL     1      19.370 -11.356  -0.507 -0.50 -0.00    +0.000 C 
DOCKED: ATOM      7  C   UNL     1      19.978 -10.692   0.487 -0.64 -0.00    +0.000 C 
DOCKED: BRANCH   7   8
DOCKED: ATOM      8  C   UNL     1      20.104 -11.222   1.860 -0.74 -0.00    +0.000 C 
DOCKED: ATOM      9  N   UNL     1      20.403 -10.383   2.983 -0.57 -0.00    +0.000 N 
DOCKED: ATOM     10  O   UNL     1      19.916 -12.455   2.047 -1.68 -0.00    +0.000 OA
DOCKED: ATOM     11  H   UNL     1      20.450  -9.406   2.866 -0.56 -0.00    +0.000 HD
DOCKED: BRANCH   9  12
DOCKED: ATOM     12  O   UNL     1      20.619 -10.929   4.203 -0.75 -0.00    +0.000 OA
DOCKED: ATOM     13  H   UNL     1      20.634 -11.896   4.127 -0.49 -0.00    +0.000 HD
DOCKED: ENDBRANCH   9  12
DOCKED: ENDBRANCH   7   8
DOCKED: ENDBRANCH   4   6
DOCKED: ENDBRANCH   1   3
DOCKED: BRANCH   1  14
DOCKED: ATOM     14  C   UNL     1      20.262 -11.044  -5.003 -0.49 -0.00    +0.000 C 
DOCKED: ATOM     15  O   UNL     1      21.058 -12.024  -4.997 -0.73 -0.00    +0.000 OA
DOCKED: BRANCH  14  19
DOCKED: ATOM     16  C   UNL     1      17.215 -10.844  -8.065 -0.25 -0.00    +0.000 A 
DOCKED: ATOM     17  C   UNL     1      18.541 -10.442  -8.325 -0.19 -0.00    +0.000 A 
DOCKED: ATOM     18  C   UNL     1      19.517 -10.508  -7.328 -0.26 -0.00    +0.000 A 
DOCKED: ATOM     19  C   UNL     1      19.203 -10.982  -6.044 -0.34 -0.00    +0.000 A 
DOCKED: ATOM     20  C   UNL     1      17.881 -11.375  -5.776 -0.28 -0.00    +0.000 A 
DOCKED: ATOM     21  C   UNL     1      16.902 -11.308  -6.772 -0.32 -0.00    +0.000 A 
DOCKED: BRANCH  16  23
DOCKED: ATOM     22  C   UNL     1      16.380  -9.906 -10.268 -0.11 -0.00    +0.000 C 
DOCKED: ATOM     23  N   UNL     1      16.198 -10.776  -9.100 -0.17 -0.00    +0.000 N 
DOCKED: ATOM     24  C   UNL     1      14.971 -11.574  -8.994 -0.21 -0.00    +0.000 C 
DOCKED: ENDBRANCH  16  23
DOCKED: ENDBRANCH  14  19
DOCKED: ENDBRANCH   1  14
DOCKED: TORSDOF 7
DOCKED: TER
DOCKED: ENDMDL
________________________________________________________________________________


	BEGINNING GENETIC ALGORITHM DOCKING 61 of 100
Run: 61 Seed: 1670574189 1780757209 [ Run 61 of 100 GA/GALS ]
Beginning LAMARCKIAN GENETIC ALGORITHM (LGA), with a maximum of 2500000 energy evaluations.

Final-Value: -12.881


	FINAL GENETIC ALGORITHM DOCKED STATE
	_______________________________________________


Detailed state:  trans 20.629 -12.339 -3.165 quatxyzw -0.456824 -0.628133 -0.410396 -0.477846 center 1.179 0.138 -0.353 ntor 7 8.5412 -120.1592 18.8622 -171.9295 -20.1034 147.1054 43.2257
State:	 20.629 -12.339  -3.165  -0.520 -0.715 -0.467 -122.910      8.54 -120.16   18.86 -171.93  -20.10  147.11   43.23

DOCKED: MODEL       61
DOCKED: USER    Run = 61
DOCKED: USER    DPF = ligand_dock.biased.dpf
DOCKED: USER  
DOCKED: USER    Estimated Free Energy of Binding    =   -9.46 kcal/mol  [=(1)+(2)+(3)-(4)]
DOCKED: USER    Estimated Inhibition Constant, Ki   =  115.41 nM (nanomolar)  [Temperature = 298.15 K]
DOCKED: USER    
DOCKED: USER    (1) Final Intermolecular Energy     =  -11.55 kcal/mol
DOCKED: USER        vdW + Hbond + desolv Energy     =  -11.55 kcal/mol
DOCKED: USER        Electrostatic Energy            =   +0.00 kcal/mol
DOCKED: USER    (2) Final Total Internal Energy     =   -1.33 kcal/mol
DOCKED: USER    (3) Torsional Free Energy           =   +2.09 kcal/mol
DOCKED: USER    (4) Unbound System's Energy  [=(2)] =   -1.33 kcal/mol
DOCKED: USER    
DOCKED: USER    
DOCKED: USER    NEWDPF move ligand.pdbqt
DOCKED: USER    NEWDPF about 1.179000 0.138000 -0.353000
DOCKED: USER    NEWDPF tran0 20.629439 -12.339042 -3.164865
DOCKED: USER    NEWDPF quaternion0 -0.456824 -0.628133 -0.410396 -0.477846
DOCKED: USER    NEWDPF axisangle0 -0.520038 -0.715052 -0.467186 -122.910426
DOCKED: USER    NEWDPF quat0 -0.520038 -0.715052 -0.467186 -122.910426
DOCKED: USER    NEWDPF dihe0 8.54 -120.16 18.86 -171.93 -20.10 147.11 43.23 
DOCKED: USER  keepresnum = 1 
DOCKED: USER  
DOCKED: REMARK  Name = 
DOCKED: REMARK  11 active torsions:
DOCKED: REMARK  status: ('A' for Active; 'I' for Inactive)
DOCKED: REMARK    1  A    between atoms: C_1  and  N_2
DOCKED: REMARK    2  A    between atoms: N_2  and  C_3
DOCKED: REMARK    3  A    between atoms: N_2  and  C_22
DOCKED: REMARK    4  A    between atoms: C_6  and  C_9
DOCKED: REMARK    5  A    between atoms: C_9  and  C_10
DOCKED: REMARK    6  A    between atoms: C_10  and  C_11
DOCKED: REMARK    7  A    between atoms: C_10  and  C_20
DOCKED: REMARK    8  A    between atoms: C_12  and  C_13
DOCKED: REMARK    9  A    between atoms: C_12  and  C_19
DOCKED: REMARK   10  A    between atoms: C_14  and  C_15
DOCKED: REMARK   11  A    between atoms: N_16  and  O_17
DOCKED: REMARK                            x       y       z     vdW  Elec       q    Type
DOCKED: REMARK                         _______ _______ _______ _____ _____    ______ ____
DOCKED: USER                              x       y       z     vdW  Elec       q    Type
DOCKED: USER                           _______ _______ _______ _____ _____    ______ ____
DOCKED: ROOT
DOCKED: ATOM      1  C   UNL     1      19.789 -10.757  -3.854 -0.45 -0.00    +0.000 C 
DOCKED: ATOM      2  C   UNL     1      19.260  -9.363  -4.204 -0.28 -0.00    +0.000 C 
DOCKED: ENDROOT
DOCKED: BRANCH   1   3
DOCKED: ATOM      3  C   UNL     1      19.961 -10.898  -2.356 -0.43 -0.00    +0.000 C 
DOCKED: ATOM      4  C   UNL     1      20.670 -10.048  -1.586 -0.59 -0.00    +0.000 C 
DOCKED: ATOM      5  C   UNL     1      21.390  -8.853  -2.173 -0.51 -0.00    +0.000 C 
DOCKED: BRANCH   4   6
DOCKED: ATOM      6  C   UNL     1      20.782 -10.353  -0.135 -0.69 -0.00    +0.000 C 
DOCKED: ATOM      7  C   UNL     1      19.993 -11.239   0.491 -0.66 -0.00    +0.000 C 
DOCKED: BRANCH   7   8
DOCKED: ATOM      8  C   UNL     1      20.100 -11.546   1.932 -0.77 -0.00    +0.000 C 
DOCKED: ATOM      9  N   UNL     1      20.407 -10.544   2.911 -0.65 -0.00    +0.000 N 
DOCKED: ATOM     10  O   UNL     1      19.889 -12.729   2.310 -1.43 -0.00    +0.000 OA
DOCKED: ATOM     11  H   UNL     1      20.472  -9.599   2.640 -0.54 -0.00    +0.000 HD
DOCKED: BRANCH   9  12
DOCKED: ATOM     12  O   UNL     1      20.604 -10.892   4.203 -0.77 -0.00    +0.000 OA
DOCKED: ATOM     13  H   UNL     1      20.638 -11.859   4.277 -0.46 -0.00    +0.000 HD
DOCKED: ENDBRANCH   9  12
DOCKED: ENDBRANCH   7   8
DOCKED: ENDBRANCH   4   6
DOCKED: ENDBRANCH   1   3
DOCKED: BRANCH   1  14
DOCKED: ATOM     14  C   UNL     1      21.105 -10.992  -4.564 -0.53 -0.00    +0.000 C 
DOCKED: ATOM     15  O   UNL     1      22.127 -11.263  -3.874 -0.54 -0.00    +0.000 OA
DOCKED: BRANCH  14  19
DOCKED: ATOM     16  C   UNL     1      21.538 -10.729  -8.859 -0.21 -0.00    +0.000 A 
DOCKED: ATOM     17  C   UNL     1      22.621 -11.100  -8.036 -0.31 -0.00    +0.000 A 
DOCKED: ATOM     18  C   UNL     1      22.472 -11.179  -6.649 -0.41 -0.00    +0.000 A 
DOCKED: ATOM     19  C   UNL     1      21.237 -10.897  -6.042 -0.39 -0.00    +0.000 A 
DOCKED: ATOM     20  C   UNL     1      20.157 -10.518  -6.856 -0.27 -0.00    +0.000 A 
DOCKED: ATOM     21  C   UNL     1      20.305 -10.436  -8.244 -0.21 -0.00    +0.000 A 
DOCKED: BRANCH  16  23
DOCKED: ATOM     22  C   UNL     1      22.493 -11.640 -11.024 -0.19 -0.00    +0.000 C 
DOCKED: ATOM     23  N   UNL     1      21.692 -10.646 -10.301 -0.16 -0.00    +0.000 N 
DOCKED: ATOM     24  C   UNL     1      21.050  -9.565 -11.059 -0.09 -0.00    +0.000 C 
DOCKED: ENDBRANCH  16  23
DOCKED: ENDBRANCH  14  19
DOCKED: ENDBRANCH   1  14
DOCKED: TORSDOF 7
DOCKED: TER
DOCKED: ENDMDL
________________________________________________________________________________


	BEGINNING GENETIC ALGORITHM DOCKING 62 of 100
Run: 62 Seed: 1115354794 1255994700 [ Run 62 of 100 GA/GALS ]
Beginning LAMARCKIAN GENETIC ALGORITHM (LGA), with a maximum of 2500000 energy evaluations.

Final-Value: -12.096


	FINAL GENETIC ALGORITHM DOCKED STATE
	_______________________________________________


Detailed state:  trans 14.593 -12.025 1.938 quatxyzw 0.691275 0.095935 -0.054296 0.714134 center 1.179 0.138 -0.353 ntor 7 0.7789 -116.2962 -124.3188 173.1288 -84.4808 -62.7155 -167.0790
State:	 14.593 -12.025   1.938   0.988  0.137 -0.078 88.855      0.78 -116.30 -124.32  173.13  -84.48  -62.72 -167.08

DOCKED: MODEL       62
DOCKED: USER    Run = 62
DOCKED: USER    DPF = ligand_dock.biased.dpf
DOCKED: USER  
DOCKED: USER    Estimated Free Energy of Binding    =   -8.07 kcal/mol  [=(1)+(2)+(3)-(4)]
DOCKED: USER    Estimated Inhibition Constant, Ki   =    1.21 uM (micromolar)  [Temperature = 298.15 K]
DOCKED: USER    
DOCKED: USER    (1) Final Intermolecular Energy     =  -10.16 kcal/mol
DOCKED: USER        vdW + Hbond + desolv Energy     =  -10.16 kcal/mol
DOCKED: USER        Electrostatic Energy            =   +0.00 kcal/mol
DOCKED: USER    (2) Final Total Internal Energy     =   -1.93 kcal/mol
DOCKED: USER    (3) Torsional Free Energy           =   +2.09 kcal/mol
DOCKED: USER    (4) Unbound System's Energy  [=(2)] =   -1.93 kcal/mol
DOCKED: USER    
DOCKED: USER    
DOCKED: USER    NEWDPF move ligand.pdbqt
DOCKED: USER    NEWDPF about 1.179000 0.138000 -0.353000
DOCKED: USER    NEWDPF tran0 14.592629 -12.024630 1.938426
DOCKED: USER    NEWDPF quaternion0 0.691275 0.095935 -0.054296 0.714134
DOCKED: USER    NEWDPF axisangle0 0.987523 0.137048 -0.077564 88.855475
DOCKED: USER    NEWDPF quat0 0.987523 0.137048 -0.077564 88.855475
DOCKED: USER    NEWDPF dihe0 0.78 -116.30 -124.32 173.13 -84.48 -62.72 -167.08 
DOCKED: USER  keepresnum = 1 
DOCKED: USER  
DOCKED: REMARK  Name = 
DOCKED: REMARK  11 active torsions:
DOCKED: REMARK  status: ('A' for Active; 'I' for Inactive)
DOCKED: REMARK    1  A    between atoms: C_1  and  N_2
DOCKED: REMARK    2  A    between atoms: N_2  and  C_3
DOCKED: REMARK    3  A    between atoms: N_2  and  C_22
DOCKED: REMARK    4  A    between atoms: C_6  and  C_9
DOCKED: REMARK    5  A    between atoms: C_9  and  C_10
DOCKED: REMARK    6  A    between atoms: C_10  and  C_11
DOCKED: REMARK    7  A    between atoms: C_10  and  C_20
DOCKED: REMARK    8  A    between atoms: C_12  and  C_13
DOCKED: REMARK    9  A    between atoms: C_12  and  C_19
DOCKED: REMARK   10  A    between atoms: C_14  and  C_15
DOCKED: REMARK   11  A    between atoms: N_16  and  O_17
DOCKED: REMARK                            x       y       z     vdW  Elec       q    Type
DOCKED: REMARK                         _______ _______ _______ _____ _____    ______ ____
DOCKED: USER                              x       y       z     vdW  Elec       q    Type
DOCKED: USER                           _______ _______ _______ _____ _____    ______ ____
DOCKED: ROOT
DOCKED: ATOM      1  C   UNL     1      13.904 -10.306   2.446 -0.34 +0.00    +0.000 C 
DOCKED: ATOM      2  C   UNL     1      13.551  -8.834   2.679 -0.23 +0.00    +0.000 C 
DOCKED: ENDROOT
DOCKED: BRANCH   1   3
DOCKED: ATOM      3  C   UNL     1      15.400 -10.470   2.271 -0.40 +0.00    +0.000 C 
DOCKED: ATOM      4  C   UNL     1      16.249 -10.827   3.257 -0.52 +0.00    +0.000 C 
DOCKED: ATOM      5  C   UNL     1      15.767 -11.086   4.668 -0.40 +0.00    +0.000 C 
DOCKED: BRANCH   4   6
DOCKED: ATOM      6  C   UNL     1      17.698 -10.898   2.934 -0.51 +0.00    +0.000 C 
DOCKED: ATOM      7  C   UNL     1      18.164 -11.207   1.714 -0.54 -0.00    +0.000 C 
DOCKED: BRANCH   7   8
DOCKED: ATOM      8  C   UNL     1      19.603 -11.279   1.388 -0.68 -0.00    +0.000 C 
DOCKED: ATOM      9  N   UNL     1      20.265 -10.274   0.610 -0.58 -0.00    +0.000 N 
DOCKED: ATOM     10  O   UNL     1      20.270 -12.251   1.833 -1.69 -0.00    +0.000 OA
DOCKED: ATOM     11  H   UNL     1      19.779  -9.460   0.344 -0.05 -0.00    +0.000 HD
DOCKED: BRANCH   9  12
DOCKED: ATOM     12  O   UNL     1      21.557 -10.440   0.241 -0.75 -0.00    +0.000 OA
DOCKED: ATOM     13  H   UNL     1      21.881 -11.292   0.571 -0.40 -0.00    +0.000 HD
DOCKED: ENDBRANCH   9  12
DOCKED: ENDBRANCH   7   8
DOCKED: ENDBRANCH   4   6
DOCKED: ENDBRANCH   1   3
DOCKED: BRANCH   1  14
DOCKED: ATOM     14  C   UNL     1      13.168 -10.816   1.225 -0.34 +0.00    +0.000 C 
DOCKED: ATOM     15  O   UNL     1      12.010 -11.296   1.371 -0.41 +0.00    +0.000 OA
DOCKED: BRANCH  14  19
DOCKED: ATOM     16  C   UNL     1      14.919 -10.784  -2.730 -0.27 -0.00    +0.000 A 
DOCKED: ATOM     17  C   UNL     1      14.547 -11.991  -2.104 -0.26 -0.00    +0.000 A 
DOCKED: ATOM     18  C   UNL     1      13.985 -11.992  -0.825 -0.35 +0.00    +0.000 A 
DOCKED: ATOM     19  C   UNL     1      13.771 -10.788  -0.134 -0.27 +0.00    +0.000 A 
DOCKED: ATOM     20  C   UNL     1      14.148  -9.582  -0.749 -0.21 -0.00    +0.000 A 
DOCKED: ATOM     21  C   UNL     1      14.712  -9.580  -2.028 -0.22 -0.00    +0.000 A 
DOCKED: BRANCH  16  23
DOCKED: ATOM     22  C   UNL     1      14.951 -11.636  -5.118 -0.27 -0.00    +0.000 C 
DOCKED: ATOM     23  N   UNL     1      15.503 -10.782  -4.059 -0.23 -0.00    +0.000 N 
DOCKED: ATOM     24  C   UNL     1      16.657  -9.929  -4.366 -0.23 -0.00    +0.000 C 
DOCKED: ENDBRANCH  16  23
DOCKED: ENDBRANCH  14  19
DOCKED: ENDBRANCH   1  14
DOCKED: TORSDOF 7
DOCKED: TER
DOCKED: ENDMDL
________________________________________________________________________________


	BEGINNING GENETIC ALGORITHM DOCKING 63 of 100
Run: 63 Seed: 529234412 1005274434 [ Run 63 of 100 GA/GALS ]
Beginning LAMARCKIAN GENETIC ALGORITHM (LGA), with a maximum of 2500000 energy evaluations.

Final-Value: -13.399


	FINAL GENETIC ALGORITHM DOCKED STATE
	_______________________________________________


Detailed state:  trans 18.751 -10.948 3.066 quatxyzw -0.431673 -0.858803 0.192445 -0.197686 center 1.179 0.138 -0.353 ntor 7 -11.4842 160.8178 -144.8402 -5.0869 91.4100 -64.2987 161.4746
State:	 18.751 -10.948   3.066  -0.440 -0.876  0.196 -157.197    -11.48  160.82 -144.84   -5.09   91.41  -64.30  161.47

DOCKED: MODEL       63
DOCKED: USER    Run = 63
DOCKED: USER    DPF = ligand_dock.biased.dpf
DOCKED: USER  
DOCKED: USER    Estimated Free Energy of Binding    =   -9.75 kcal/mol  [=(1)+(2)+(3)-(4)]
DOCKED: USER    Estimated Inhibition Constant, Ki   =   71.54 nM (nanomolar)  [Temperature = 298.15 K]
DOCKED: USER    
DOCKED: USER    (1) Final Intermolecular Energy     =  -11.84 kcal/mol
DOCKED: USER        vdW + Hbond + desolv Energy     =  -11.84 kcal/mol
DOCKED: USER        Electrostatic Energy            =   +0.00 kcal/mol
DOCKED: USER    (2) Final Total Internal Energy     =   -1.56 kcal/mol
DOCKED: USER    (3) Torsional Free Energy           =   +2.09 kcal/mol
DOCKED: USER    (4) Unbound System's Energy  [=(2)] =   -1.56 kcal/mol
DOCKED: USER    
DOCKED: USER    
DOCKED: USER    NEWDPF move ligand.pdbqt
DOCKED: USER    NEWDPF about 1.179000 0.138000 -0.353000
DOCKED: USER    NEWDPF tran0 18.750659 -10.947735 3.065951
DOCKED: USER    NEWDPF quaternion0 -0.431673 -0.858803 0.192445 -0.197686
DOCKED: USER    NEWDPF axisangle0 -0.440364 -0.876093 0.196319 -157.196654
DOCKED: USER    NEWDPF quat0 -0.440364 -0.876093 0.196319 -157.196654
DOCKED: USER    NEWDPF dihe0 -11.48 160.82 -144.84 -5.09 91.41 -64.30 161.47 
DOCKED: USER  keepresnum = 1 
DOCKED: USER  
DOCKED: REMARK  Name = 
DOCKED: REMARK  11 active torsions:
DOCKED: REMARK  status: ('A' for Active; 'I' for Inactive)
DOCKED: REMARK    1  A    between atoms: C_1  and  N_2
DOCKED: REMARK    2  A    between atoms: N_2  and  C_3
DOCKED: REMARK    3  A    between atoms: N_2  and  C_22
DOCKED: REMARK    4  A    between atoms: C_6  and  C_9
DOCKED: REMARK    5  A    between atoms: C_9  and  C_10
DOCKED: REMARK    6  A    between atoms: C_10  and  C_11
DOCKED: REMARK    7  A    between atoms: C_10  and  C_20
DOCKED: REMARK    8  A    between atoms: C_12  and  C_13
DOCKED: REMARK    9  A    between atoms: C_12  and  C_19
DOCKED: REMARK   10  A    between atoms: C_14  and  C_15
DOCKED: REMARK   11  A    between atoms: N_16  and  O_17
DOCKED: REMARK                            x       y       z     vdW  Elec       q    Type
DOCKED: REMARK                         _______ _______ _______ _____ _____    ______ ____
DOCKED: USER                              x       y       z     vdW  Elec       q    Type
DOCKED: USER                           _______ _______ _______ _____ _____    ______ ____
DOCKED: ROOT
DOCKED: ATOM      1  C   UNL     1      17.656 -11.734   1.699 -0.44 +0.00    +0.000 C 
DOCKED: ATOM      2  C   UNL     1      16.769 -12.103   0.506 -0.50 +0.00    +0.000 C 
DOCKED: ENDROOT
DOCKED: BRANCH   1   3
DOCKED: ATOM      3  C   UNL     1      17.290 -10.363   2.227 -0.48 +0.00    +0.000 C 
DOCKED: ATOM      4  C   UNL     1      16.441 -10.141   3.252 -0.48 +0.00    +0.000 C 
DOCKED: ATOM      5  C   UNL     1      15.749 -11.277   3.973 -0.54 +0.00    +0.000 C 
DOCKED: BRANCH   4   6
DOCKED: ATOM      6  C   UNL     1      16.148  -8.730   3.619 -0.33 +0.00    +0.000 C 
DOCKED: ATOM      7  C   UNL     1      14.993  -8.344   4.181 -0.39 +0.00    +0.000 C 
DOCKED: BRANCH   7   8
DOCKED: ATOM      8  C   UNL     1      14.696  -6.944   4.548 -0.42 +0.00    +0.000 C 
DOCKED: ATOM      9  N   UNL     1      14.268  -6.569   5.864 -0.46 +0.00    +0.000 N 
DOCKED: ATOM     10  O   UNL     1      14.850  -6.050   3.673 -0.36 +0.00    +0.000 OA
DOCKED: ATOM     11  H   UNL     1      14.243  -7.243   6.582 -0.05 +0.00    +0.000 HD
DOCKED: BRANCH   9  12
DOCKED: ATOM     12  O   UNL     1      13.899  -5.292   6.121 -1.05 +0.00    +0.000 OA
DOCKED: ATOM     13  H   UNL     1      14.150  -4.726   5.375 -0.02 +0.00    +0.000 HD
DOCKED: ENDBRANCH   9  12
DOCKED: ENDBRANCH   7   8
DOCKED: ENDBRANCH   4   6
DOCKED: ENDBRANCH   1   3
DOCKED: BRANCH   1  14
DOCKED: ATOM     14  C   UNL     1      19.111 -11.770   1.279 -0.65 -0.00    +0.000 C 
DOCKED: ATOM     15  O   UNL     1      19.893 -12.567   1.868 -1.65 -0.00    +0.000 OA
DOCKED: BRANCH  14  19
DOCKED: ATOM     16  C   UNL     1      20.653  -9.226  -1.859 -0.45 -0.00    +0.000 A 
DOCKED: ATOM     17  C   UNL     1      19.703 -10.230  -2.132 -0.39 -0.00    +0.000 A 
DOCKED: ATOM     18  C   UNL     1      19.213 -11.049  -1.112 -0.41 -0.00    +0.000 A 
DOCKED: ATOM     19  C   UNL     1      19.651 -10.887   0.212 -0.53 -0.00    +0.000 A 
DOCKED: ATOM     20  C   UNL     1      20.605  -9.894   0.490 -0.51 -0.00    +0.000 A 
DOCKED: ATOM     21  C   UNL     1      21.098  -9.075  -0.530 -0.50 -0.00    +0.000 A 
DOCKED: BRANCH  16  23
DOCKED: ATOM     22  C   UNL     1      21.460  -8.929  -4.244 -0.36 -0.00    +0.000 C 
DOCKED: ATOM     23  N   UNL     1      21.164  -8.374  -2.918 -0.42 -0.00    +0.000 N 
DOCKED: ATOM     24  C   UNL     1      21.394  -6.944  -2.681 -0.44 -0.00    +0.000 C 
DOCKED: ENDBRANCH  16  23
DOCKED: ENDBRANCH  14  19
DOCKED: ENDBRANCH   1  14
DOCKED: TORSDOF 7
DOCKED: TER
DOCKED: ENDMDL
________________________________________________________________________________


	BEGINNING GENETIC ALGORITHM DOCKING 64 of 100
Run: 64 Seed: 1064547293 517920497 [ Run 64 of 100 GA/GALS ]
Beginning LAMARCKIAN GENETIC ALGORITHM (LGA), with a maximum of 2500000 energy evaluations.

Final-Value: -12.601


	FINAL GENETIC ALGORITHM DOCKED STATE
	_______________________________________________


Detailed state:  trans 21.044 -10.398 -3.217 quatxyzw 0.196916 0.763851 0.271694 0.551306 center 1.179 0.138 -0.353 ntor 7 21.8178 66.1109 -38.4154 -45.3445 131.7438 25.6784 -16.5162
State:	 21.044 -10.398  -3.217   0.236  0.916  0.326 113.087     21.82   66.11  -38.42  -45.34  131.74   25.68  -16.52

DOCKED: MODEL       64
DOCKED: USER    Run = 64
DOCKED: USER    DPF = ligand_dock.biased.dpf
DOCKED: USER  
DOCKED: USER    Estimated Free Energy of Binding    =   -9.12 kcal/mol  [=(1)+(2)+(3)-(4)]
DOCKED: USER    Estimated Inhibition Constant, Ki   =  205.53 nM (nanomolar)  [Temperature = 298.15 K]
DOCKED: USER    
DOCKED: USER    (1) Final Intermolecular Energy     =  -11.21 kcal/mol
DOCKED: USER        vdW + Hbond + desolv Energy     =  -11.21 kcal/mol
DOCKED: USER        Electrostatic Energy            =   +0.00 kcal/mol
DOCKED: USER    (2) Final Total Internal Energy     =   -1.39 kcal/mol
DOCKED: USER    (3) Torsional Free Energy           =   +2.09 kcal/mol
DOCKED: USER    (4) Unbound System's Energy  [=(2)] =   -1.39 kcal/mol
DOCKED: USER    
DOCKED: USER    
DOCKED: USER    NEWDPF move ligand.pdbqt
DOCKED: USER    NEWDPF about 1.179000 0.138000 -0.353000
DOCKED: USER    NEWDPF tran0 21.044023 -10.397874 -3.216962
DOCKED: USER    NEWDPF quaternion0 0.196916 0.763851 0.271694 0.551306
DOCKED: USER    NEWDPF axisangle0 0.236025 0.915556 0.325654 113.086728
DOCKED: USER    NEWDPF quat0 0.236025 0.915556 0.325654 113.086728
DOCKED: USER    NEWDPF dihe0 21.82 66.11 -38.42 -45.34 131.74 25.68 -16.52 
DOCKED: USER  keepresnum = 1 
DOCKED: USER  
DOCKED: REMARK  Name = 
DOCKED: REMARK  11 active torsions:
DOCKED: REMARK  status: ('A' for Active; 'I' for Inactive)
DOCKED: REMARK    1  A    between atoms: C_1  and  N_2
DOCKED: REMARK    2  A    between atoms: N_2  and  C_3
DOCKED: REMARK    3  A    between atoms: N_2  and  C_22
DOCKED: REMARK    4  A    between atoms: C_6  and  C_9
DOCKED: REMARK    5  A    between atoms: C_9  and  C_10
DOCKED: REMARK    6  A    between atoms: C_10  and  C_11
DOCKED: REMARK    7  A    between atoms: C_10  and  C_20
DOCKED: REMARK    8  A    between atoms: C_12  and  C_13
DOCKED: REMARK    9  A    between atoms: C_12  and  C_19
DOCKED: REMARK   10  A    between atoms: C_14  and  C_15
DOCKED: REMARK   11  A    between atoms: N_16  and  O_17
DOCKED: REMARK                            x       y       z     vdW  Elec       q    Type
DOCKED: REMARK                         _______ _______ _______ _____ _____    ______ ____
DOCKED: USER                              x       y       z     vdW  Elec       q    Type
DOCKED: USER                           _______ _______ _______ _____ _____    ______ ____
DOCKED: ROOT
DOCKED: ATOM      1  C   UNL     1      19.493  -9.607  -4.026 -0.32 -0.00    +0.000 C 
DOCKED: ATOM      2  C   UNL     1      18.266  -8.798  -4.456 -0.21 -0.00    +0.000 C 
DOCKED: ENDROOT
DOCKED: BRANCH   1   3
DOCKED: ATOM      3  C   UNL     1      19.553  -9.716  -2.516 -0.28 -0.00    +0.000 C 
DOCKED: ATOM      4  C   UNL     1      20.568 -10.282  -1.831 -0.57 -0.00    +0.000 C 
DOCKED: ATOM      5  C   UNL     1      21.763 -10.889  -2.534 -0.22 -0.00    +0.000 C 
DOCKED: BRANCH   4   6
DOCKED: ATOM      6  C   UNL     1      20.452 -10.353  -0.351 -0.64 -0.00    +0.000 C 
DOCKED: ATOM      7  C   UNL     1      20.297 -11.506   0.317 -0.51 -0.00    +0.000 C 
DOCKED: BRANCH   7   8
DOCKED: ATOM      8  C   UNL     1      20.181 -11.584   1.788 -0.77 -0.00    +0.000 C 
DOCKED: ATOM      9  N   UNL     1      20.638 -10.534   2.651 -0.61 -0.00    +0.000 N 
DOCKED: ATOM     10  O   UNL     1      19.638 -12.603   2.294 -1.42 -0.00    +0.000 OA
DOCKED: ATOM     11  H   UNL     1      20.969  -9.691   2.265 -0.57 -0.00    +0.000 HD
DOCKED: BRANCH   9  12
DOCKED: ATOM     12  O   UNL     1      20.613 -10.699   3.995 -0.81 -0.00    +0.000 OA
DOCKED: ATOM     13  H   UNL     1      20.601 -11.645   4.205 -0.41 -0.00    +0.000 HD
DOCKED: ENDBRANCH   9  12
DOCKED: ENDBRANCH   7   8
DOCKED: ENDBRANCH   4   6
DOCKED: ENDBRANCH   1   3
DOCKED: BRANCH   1  14
DOCKED: ATOM     14  C   UNL     1      20.747  -8.947  -4.560 -0.32 -0.00    +0.000 C 
DOCKED: ATOM     15  O   UNL     1      21.030  -7.779  -4.175 -0.30 -0.00    +0.000 OA
DOCKED: BRANCH  14  19
DOCKED: ATOM     16  C   UNL     1      23.340 -10.952  -7.382 -0.36 -0.00    +0.000 A 
DOCKED: ATOM     17  C   UNL     1      22.514 -11.680  -6.501 -0.44 -0.00    +0.000 A 
DOCKED: ATOM     18  C   UNL     1      21.682 -11.023  -5.591 -0.45 -0.00    +0.000 A 
DOCKED: ATOM     19  C   UNL     1      21.644  -9.621  -5.536 -0.30 -0.00    +0.000 A 
DOCKED: ATOM     20  C   UNL     1      22.471  -8.889  -6.404 -0.22 -0.00    +0.000 A 
DOCKED: ATOM     21  C   UNL     1      23.306  -9.545  -7.315 -0.23 -0.00    +0.000 A 
DOCKED: BRANCH  16  23
DOCKED: ATOM     22  C   UNL     1      25.602 -11.213  -8.498 -0.42 -0.00    +0.000 C 
DOCKED: ATOM     23  N   UNL     1      24.205 -11.633  -8.328 -0.40 -0.00    +0.000 N 
DOCKED: ATOM     24  C   UNL     1      23.699 -12.752  -9.132 -0.44 -0.00    +0.000 C 
DOCKED: ENDBRANCH  16  23
DOCKED: ENDBRANCH  14  19
DOCKED: ENDBRANCH   1  14
DOCKED: TORSDOF 7
DOCKED: TER
DOCKED: ENDMDL
________________________________________________________________________________


	BEGINNING GENETIC ALGORITHM DOCKING 65 of 100
Run: 65 Seed: 837406153 770851680 [ Run 65 of 100 GA/GALS ]
Beginning LAMARCKIAN GENETIC ALGORITHM (LGA), with a maximum of 2500000 energy evaluations.

Final-Value: -13.474


	FINAL GENETIC ALGORITHM DOCKED STATE
	_______________________________________________


Detailed state:  trans 20.803 -9.144 -3.172 quatxyzw 0.614240 -0.646000 0.389542 -0.231625 center 1.179 0.138 -0.353 ntor 7 41.7096 -168.1262 -167.6518 -23.2739 72.1107 3.7960 170.1857
State:	 20.803  -9.144  -3.172   0.631 -0.664  0.400 -153.214     41.71 -168.13 -167.65  -23.27   72.11    3.80  170.19

DOCKED: MODEL       65
DOCKED: USER    Run = 65
DOCKED: USER    DPF = ligand_dock.biased.dpf
DOCKED: USER  
DOCKED: USER    Estimated Free Energy of Binding    =   -9.84 kcal/mol  [=(1)+(2)+(3)-(4)]
DOCKED: USER    Estimated Inhibition Constant, Ki   =   61.24 nM (nanomolar)  [Temperature = 298.15 K]
DOCKED: USER    
DOCKED: USER    (1) Final Intermolecular Energy     =  -11.93 kcal/mol
DOCKED: USER        vdW + Hbond + desolv Energy     =  -11.93 kcal/mol
DOCKED: USER        Electrostatic Energy            =   +0.00 kcal/mol
DOCKED: USER    (2) Final Total Internal Energy     =   -1.55 kcal/mol
DOCKED: USER    (3) Torsional Free Energy           =   +2.09 kcal/mol
DOCKED: USER    (4) Unbound System's Energy  [=(2)] =   -1.55 kcal/mol
DOCKED: USER    
DOCKED: USER    
DOCKED: USER    NEWDPF move ligand.pdbqt
DOCKED: USER    NEWDPF about 1.179000 0.138000 -0.353000
DOCKED: USER    NEWDPF tran0 20.803404 -9.143864 -3.171514
DOCKED: USER    NEWDPF quaternion0 0.614240 -0.646000 0.389542 -0.231625
DOCKED: USER    NEWDPF axisangle0 0.631411 -0.664059 0.400432 -153.214481
DOCKED: USER    NEWDPF quat0 0.631411 -0.664059 0.400432 -153.214481
DOCKED: USER    NEWDPF dihe0 41.71 -168.13 -167.65 -23.27 72.11 3.80 170.19 
DOCKED: USER  keepresnum = 1 
DOCKED: USER  
DOCKED: REMARK  Name = 
DOCKED: REMARK  11 active torsions:
DOCKED: REMARK  status: ('A' for Active; 'I' for Inactive)
DOCKED: REMARK    1  A    between atoms: C_1  and  N_2
DOCKED: REMARK    2  A    between atoms: N_2  and  C_3
DOCKED: REMARK    3  A    between atoms: N_2  and  C_22
DOCKED: REMARK    4  A    between atoms: C_6  and  C_9
DOCKED: REMARK    5  A    between atoms: C_9  and  C_10
DOCKED: REMARK    6  A    between atoms: C_10  and  C_11
DOCKED: REMARK    7  A    between atoms: C_10  and  C_20
DOCKED: REMARK    8  A    between atoms: C_12  and  C_13
DOCKED: REMARK    9  A    between atoms: C_12  and  C_19
DOCKED: REMARK   10  A    between atoms: C_14  and  C_15
DOCKED: REMARK   11  A    between atoms: N_16  and  O_17
DOCKED: REMARK                            x       y       z     vdW  Elec       q    Type
DOCKED: REMARK                         _______ _______ _______ _____ _____    ______ ____
DOCKED: USER                              x       y       z     vdW  Elec       q    Type
DOCKED: USER                           _______ _______ _______ _____ _____    ______ ____
DOCKED: ROOT
DOCKED: ATOM      1  C   UNL     1      21.637 -10.393  -4.367 -0.47 -0.00    +0.000 C 
DOCKED: ATOM      2  C   UNL     1      22.103 -11.566  -5.235 -0.52 -0.00    +0.000 C 
DOCKED: ENDROOT
DOCKED: BRANCH   1   3
DOCKED: ATOM      3  C   UNL     1      21.112 -10.895  -3.038 -0.43 -0.00    +0.000 C 
DOCKED: ATOM      4  C   UNL     1      20.933 -10.123  -1.947 -0.60 -0.00    +0.000 C 
DOCKED: ATOM      5  C   UNL     1      21.268  -8.646  -1.952 -0.52 -0.00    +0.000 C 
DOCKED: BRANCH   4   6
DOCKED: ATOM      6  C   UNL     1      20.454 -10.778  -0.701 -0.58 -0.00    +0.000 C 
DOCKED: ATOM      7  C   UNL     1      21.005 -10.558   0.502 -0.69 -0.00    +0.000 C 
DOCKED: BRANCH   7   8
DOCKED: ATOM      8  C   UNL     1      20.534 -11.207   1.743 -0.74 -0.00    +0.000 C 
DOCKED: ATOM      9  N   UNL     1      20.631 -10.574   3.025 -0.64 -0.00    +0.000 N 
DOCKED: ATOM     10  O   UNL     1      20.006 -12.349   1.659 -1.72 -0.00    +0.000 OA
DOCKED: ATOM     11  H   UNL     1      20.946  -9.643   3.090 -0.60 -0.00    +0.000 HD
DOCKED: BRANCH   9  12
DOCKED: ATOM     12  O   UNL     1      20.290 -11.252   4.146 -0.80 -0.00    +0.000 OA
DOCKED: ATOM     13  H   UNL     1      20.628 -12.160   4.092 -0.51 -0.00    +0.000 HD
DOCKED: ENDBRANCH   9  12
DOCKED: ENDBRANCH   7   8
DOCKED: ENDBRANCH   4   6
DOCKED: ENDBRANCH   1   3
DOCKED: BRANCH   1  14
DOCKED: ATOM     14  C   UNL     1      20.567  -9.613  -5.101 -0.32 -0.00    +0.000 C 
DOCKED: ATOM     15  O   UNL     1      20.836  -8.450  -5.509 -0.20 -0.00    +0.000 OA
DOCKED: BRANCH  14  19
DOCKED: ATOM     16  C   UNL     1      16.626 -11.238  -5.834 -0.26 -0.00    +0.000 A 
DOCKED: ATOM     17  C   UNL     1      17.704 -11.514  -6.699 -0.32 -0.00    +0.000 A 
DOCKED: ATOM     18  C   UNL     1      18.973 -10.982  -6.455 -0.33 -0.00    +0.000 A 
DOCKED: ATOM     19  C   UNL     1      19.206 -10.164  -5.338 -0.27 -0.00    +0.000 A 
DOCKED: ATOM     20  C   UNL     1      18.134  -9.877  -4.477 -0.24 -0.00    +0.000 A 
DOCKED: ATOM     21  C   UNL     1      16.863 -10.407  -4.721 -0.21 -0.00    +0.000 A 
DOCKED: BRANCH  16  23
DOCKED: ATOM     22  C   UNL     1      15.020 -12.493  -7.342 -0.39 -0.00    +0.000 C 
DOCKED: ATOM     23  N   UNL     1      15.307 -11.790  -6.086 -0.30 -0.00    +0.000 N 
DOCKED: ATOM     24  C   UNL     1      14.238 -11.654  -5.090 -0.30 -0.00    +0.000 C 
DOCKED: ENDBRANCH  16  23
DOCKED: ENDBRANCH  14  19
DOCKED: ENDBRANCH   1  14
DOCKED: TORSDOF 7
DOCKED: TER
DOCKED: ENDMDL
________________________________________________________________________________


	BEGINNING GENETIC ALGORITHM DOCKING 66 of 100
Run: 66 Seed: 2135758980 281198434 [ Run 66 of 100 GA/GALS ]
Beginning LAMARCKIAN GENETIC ALGORITHM (LGA), with a maximum of 2500000 energy evaluations.

Final-Value: -12.212


	FINAL GENETIC ALGORITHM DOCKED STATE
	_______________________________________________


Detailed state:  trans 21.952 -12.660 -5.086 quatxyzw -0.546296 -0.664174 -0.452720 -0.235536 center 1.179 0.138 -0.353 ntor 7 -8.9050 -128.3127 58.9603 -174.4761 -114.0913 -61.7085 76.8106
State:	 21.952 -12.660  -5.086  -0.562 -0.683 -0.466 -152.754     -8.91 -128.31   58.96 -174.48 -114.09  -61.71   76.81

DOCKED: MODEL       66
DOCKED: USER    Run = 66
DOCKED: USER    DPF = ligand_dock.biased.dpf
DOCKED: USER  
DOCKED: USER    Estimated Free Energy of Binding    =   -8.51 kcal/mol  [=(1)+(2)+(3)-(4)]
DOCKED: USER    Estimated Inhibition Constant, Ki   =  579.08 nM (nanomolar)  [Temperature = 298.15 K]
DOCKED: USER    
DOCKED: USER    (1) Final Intermolecular Energy     =  -10.60 kcal/mol
DOCKED: USER        vdW + Hbond + desolv Energy     =  -10.60 kcal/mol
DOCKED: USER        Electrostatic Energy            =   +0.00 kcal/mol
DOCKED: USER    (2) Final Total Internal Energy     =   -1.61 kcal/mol
DOCKED: USER    (3) Torsional Free Energy           =   +2.09 kcal/mol
DOCKED: USER    (4) Unbound System's Energy  [=(2)] =   -1.61 kcal/mol
DOCKED: USER    
DOCKED: USER    
DOCKED: USER    NEWDPF move ligand.pdbqt
DOCKED: USER    NEWDPF about 1.179000 0.138000 -0.353000
DOCKED: USER    NEWDPF tran0 21.951528 -12.660488 -5.086103
DOCKED: USER    NEWDPF quaternion0 -0.546296 -0.664174 -0.452720 -0.235536
DOCKED: USER    NEWDPF axisangle0 -0.562111 -0.683401 -0.465826 -152.753506
DOCKED: USER    NEWDPF quat0 -0.562111 -0.683401 -0.465826 -152.753506
DOCKED: USER    NEWDPF dihe0 -8.91 -128.31 58.96 -174.48 -114.09 -61.71 76.81 
DOCKED: USER  keepresnum = 1 
DOCKED: USER  
DOCKED: REMARK  Name = 
DOCKED: REMARK  11 active torsions:
DOCKED: REMARK  status: ('A' for Active; 'I' for Inactive)
DOCKED: REMARK    1  A    between atoms: C_1  and  N_2
DOCKED: REMARK    2  A    between atoms: N_2  and  C_3
DOCKED: REMARK    3  A    between atoms: N_2  and  C_22
DOCKED: REMARK    4  A    between atoms: C_6  and  C_9
DOCKED: REMARK    5  A    between atoms: C_9  and  C_10
DOCKED: REMARK    6  A    between atoms: C_10  and  C_11
DOCKED: REMARK    7  A    between atoms: C_10  and  C_20
DOCKED: REMARK    8  A    between atoms: C_12  and  C_13
DOCKED: REMARK    9  A    between atoms: C_12  and  C_19
DOCKED: REMARK   10  A    between atoms: C_14  and  C_15
DOCKED: REMARK   11  A    between atoms: N_16  and  O_17
DOCKED: REMARK                            x       y       z     vdW  Elec       q    Type
DOCKED: REMARK                         _______ _______ _______ _____ _____    ______ ____
DOCKED: USER                              x       y       z     vdW  Elec       q    Type
DOCKED: USER                           _______ _______ _______ _____ _____    ______ ____
DOCKED: ROOT
DOCKED: ATOM      1  C   UNL     1      21.918 -11.222  -6.356 -0.44 -0.00    +0.000 C 
DOCKED: ATOM      2  C   UNL     1      22.017  -9.927  -7.169 -0.28 -0.00    +0.000 C 
DOCKED: ENDROOT
DOCKED: BRANCH   1   3
DOCKED: ATOM      3  C   UNL     1      21.652 -10.913  -4.898 -0.52 -0.00    +0.000 C 
DOCKED: ATOM      4  C   UNL     1      20.433 -10.940  -4.321 -0.50 -0.00    +0.000 C 
DOCKED: ATOM      5  C   UNL     1      19.186 -11.276  -5.111 -0.45 -0.00    +0.000 C 
DOCKED: BRANCH   4   6
DOCKED: ATOM      6  C   UNL     1      20.334 -10.564  -2.887 -0.50 -0.00    +0.000 C 
DOCKED: ATOM      7  C   UNL     1      21.391 -10.536  -2.061 -0.57 -0.00    +0.000 C 
DOCKED: BRANCH   7   8
DOCKED: ATOM      8  C   UNL     1      21.298 -10.163  -0.634 -0.71 -0.00    +0.000 C 
DOCKED: ATOM      9  N   UNL     1      20.792 -11.060   0.362 -0.63 -0.00    +0.000 N 
DOCKED: ATOM     10  O   UNL     1      21.704  -9.022  -0.285 -0.66 -0.00    +0.000 OA
DOCKED: ATOM     11  H   UNL     1      20.568 -11.988   0.119 -0.03 -0.00    +0.000 HD
DOCKED: BRANCH   9  12
DOCKED: ATOM     12  O   UNL     1      20.621 -10.636   1.636 -0.85 -0.00    +0.000 OA
DOCKED: ATOM     13  H   UNL     1      21.015  -9.756   1.740 -0.54 -0.00    +0.000 HD
DOCKED: ENDBRANCH   9  12
DOCKED: ENDBRANCH   7   8
DOCKED: ENDBRANCH   4   6
DOCKED: ENDBRANCH   1   3
DOCKED: BRANCH   1  14
DOCKED: ATOM     14  C   UNL     1      23.201 -12.013  -6.506 -0.49 -0.00    +0.000 C 
DOCKED: ATOM     15  O   UNL     1      23.518 -12.832  -5.601 -0.89 -0.00    +0.000 OA
DOCKED: BRANCH  14  19
DOCKED: ATOM     16  C   UNL     1      25.858 -11.479  -9.877 -0.25 -0.00    +0.000 A 
DOCKED: ATOM     17  C   UNL     1      25.983 -10.692  -8.714 -0.33 -0.00    +0.000 A 
DOCKED: ATOM     18  C   UNL     1      25.118 -10.870  -7.632 -0.29 -0.00    +0.000 A 
DOCKED: ATOM     19  C   UNL     1      24.106 -11.842  -7.673 -0.44 -0.00    +0.000 A 
DOCKED: ATOM     20  C   UNL     1      23.969 -12.624  -8.833 -0.37 -0.00    +0.000 A 
DOCKED: ATOM     21  C   UNL     1      24.833 -12.446  -9.918 -0.31 -0.00    +0.000 A 
DOCKED: BRANCH  16  23
DOCKED: ATOM     22  C   UNL     1      28.141 -10.859 -10.789 -0.25 -0.00    +0.000 C 
DOCKED: ATOM     23  N   UNL     1      26.756 -11.296 -11.003 -0.19 -0.00    +0.000 N 
DOCKED: ATOM     24  C   UNL     1      26.294 -11.541 -12.374 -0.12 -0.00    +0.000 C 
DOCKED: ENDBRANCH  16  23
DOCKED: ENDBRANCH  14  19
DOCKED: ENDBRANCH   1  14
DOCKED: TORSDOF 7
DOCKED: TER
DOCKED: ENDMDL
________________________________________________________________________________


	BEGINNING GENETIC ALGORITHM DOCKING 67 of 100
Run: 67 Seed: 2048149240 1395011318 [ Run 67 of 100 GA/GALS ]
Beginning LAMARCKIAN GENETIC ALGORITHM (LGA), with a maximum of 2500000 energy evaluations.

Final-Value: -13.765


	FINAL GENETIC ALGORITHM DOCKED STATE
	_______________________________________________


Detailed state:  trans 18.974 -11.298 -3.362 quatxyzw -0.735740 -0.095487 -0.647116 -0.175527 center 1.179 0.138 -0.353 ntor 7 17.5317 -52.8803 -154.6904 -115.5888 -106.3269 -10.5531 89.5814
State:	 18.974 -11.298  -3.362  -0.747 -0.097 -0.657 -159.781     17.53  -52.88 -154.69 -115.59 -106.33  -10.55   89.58

DOCKED: MODEL       67
DOCKED: USER    Run = 67
DOCKED: USER    DPF = ligand_dock.biased.dpf
DOCKED: USER  
DOCKED: USER    Estimated Free Energy of Binding    =  -10.09 kcal/mol  [=(1)+(2)+(3)-(4)]
DOCKED: USER    Estimated Inhibition Constant, Ki   =   40.24 nM (nanomolar)  [Temperature = 298.15 K]
DOCKED: USER    
DOCKED: USER    (1) Final Intermolecular Energy     =  -12.18 kcal/mol
DOCKED: USER        vdW + Hbond + desolv Energy     =  -12.18 kcal/mol
DOCKED: USER        Electrostatic Energy            =   +0.00 kcal/mol
DOCKED: USER    (2) Final Total Internal Energy     =   -1.59 kcal/mol
DOCKED: USER    (3) Torsional Free Energy           =   +2.09 kcal/mol
DOCKED: USER    (4) Unbound System's Energy  [=(2)] =   -1.59 kcal/mol
DOCKED: USER    
DOCKED: USER    
DOCKED: USER    NEWDPF move ligand.pdbqt
DOCKED: USER    NEWDPF about 1.179000 0.138000 -0.353000
DOCKED: USER    NEWDPF tran0 18.973561 -11.298121 -3.361551
DOCKED: USER    NEWDPF quaternion0 -0.735740 -0.095487 -0.647116 -0.175527
DOCKED: USER    NEWDPF axisangle0 -0.747343 -0.096993 -0.657321 -159.781320
DOCKED: USER    NEWDPF quat0 -0.747343 -0.096993 -0.657321 -159.781320
DOCKED: USER    NEWDPF dihe0 17.53 -52.88 -154.69 -115.59 -106.33 -10.55 89.58 
DOCKED: USER  keepresnum = 1 
DOCKED: USER  
DOCKED: REMARK  Name = 
DOCKED: REMARK  11 active torsions:
DOCKED: REMARK  status: ('A' for Active; 'I' for Inactive)
DOCKED: REMARK    1  A    between atoms: C_1  and  N_2
DOCKED: REMARK    2  A    between atoms: N_2  and  C_3
DOCKED: REMARK    3  A    between atoms: N_2  and  C_22
DOCKED: REMARK    4  A    between atoms: C_6  and  C_9
DOCKED: REMARK    5  A    between atoms: C_9  and  C_10
DOCKED: REMARK    6  A    between atoms: C_10  and  C_11
DOCKED: REMARK    7  A    between atoms: C_10  and  C_20
DOCKED: REMARK    8  A    between atoms: C_12  and  C_13
DOCKED: REMARK    9  A    between atoms: C_12  and  C_19
DOCKED: REMARK   10  A    between atoms: C_14  and  C_15
DOCKED: REMARK   11  A    between atoms: N_16  and  O_17
DOCKED: REMARK                            x       y       z     vdW  Elec       q    Type
DOCKED: REMARK                         _______ _______ _______ _____ _____    ______ ____
DOCKED: USER                              x       y       z     vdW  Elec       q    Type
DOCKED: USER                           _______ _______ _______ _____ _____    ______ ____
DOCKED: ROOT
DOCKED: ATOM      1  C   UNL     1      20.446 -10.132  -3.758 -0.46 -0.00    +0.000 C 
DOCKED: ATOM      2  C   UNL     1      21.767  -9.370  -3.905 -0.34 -0.00    +0.000 C 
DOCKED: ENDROOT
DOCKED: BRANCH   1   3
DOCKED: ATOM      3  C   UNL     1      20.299 -10.669  -2.349 -0.48 -0.00    +0.000 C 
DOCKED: ATOM      4  C   UNL     1      19.121 -10.833  -1.713 -0.45 -0.00    +0.000 C 
DOCKED: ATOM      5  C   UNL     1      17.805 -10.469  -2.367 -0.25 -0.00    +0.000 C 
DOCKED: BRANCH   4   6
DOCKED: ATOM      6  C   UNL     1      19.150 -11.327  -0.311 -0.53 -0.00    +0.000 C 
DOCKED: ATOM      7  C   UNL     1      20.043 -10.904   0.596 -0.66 -0.00    +0.000 C 
DOCKED: BRANCH   7   8
DOCKED: ATOM      8  C   UNL     1      20.078 -11.392   1.991 -0.76 -0.00    +0.000 C 
DOCKED: ATOM      9  N   UNL     1      20.266 -10.513   3.107 -0.68 -0.00    +0.000 N 
DOCKED: ATOM     10  O   UNL     1      19.911 -12.623   2.199 -1.53 -0.00    +0.000 OA
DOCKED: ATOM     11  H   UNL     1      20.295  -9.539   2.964 -0.56 -0.00    +0.000 HD
DOCKED: BRANCH   9  12
DOCKED: ATOM     12  O   UNL     1      20.403 -11.017   4.355 -0.71 -0.00    +0.000 OA
DOCKED: ATOM     13  H   UNL     1      20.628 -11.959   4.301 -0.47 -0.00    +0.000 HD
DOCKED: ENDBRANCH   9  12
DOCKED: ENDBRANCH   7   8
DOCKED: ENDBRANCH   4   6
DOCKED: ENDBRANCH   1   3
DOCKED: BRANCH   1  14
DOCKED: ATOM     14  C   UNL     1      20.398 -11.263  -4.764 -0.52 -0.00    +0.000 C 
DOCKED: ATOM     15  O   UNL     1      19.495 -12.137  -4.652 -0.59 -0.00    +0.000 OA
DOCKED: BRANCH  14  19
DOCKED: ATOM     16  C   UNL     1      23.308 -11.655  -7.939 -0.41 -0.00    +0.000 A 
DOCKED: ATOM     17  C   UNL     1      23.448 -12.361  -6.727 -0.38 -0.00    +0.000 A 
DOCKED: ATOM     18  C   UNL     1      22.504 -12.225  -5.706 -0.47 -0.00    +0.000 A 
DOCKED: ATOM     19  C   UNL     1      21.389 -11.386  -5.865 -0.35 -0.00    +0.000 A 
DOCKED: ATOM     20  C   UNL     1      21.249 -10.672  -7.067 -0.27 -0.00    +0.000 A 
DOCKED: ATOM     21  C   UNL     1      22.193 -10.806  -8.090 -0.27 -0.00    +0.000 A 
DOCKED: BRANCH  16  23
DOCKED: ATOM     22  C   UNL     1      23.969 -12.555 -10.216 -0.32 -0.00    +0.000 C 
DOCKED: ATOM     23  N   UNL     1      24.288 -11.795  -9.002 -0.33 -0.00    +0.000 N 
DOCKED: ATOM     24  C   UNL     1      25.615 -11.180  -8.879 -0.39 -0.00    +0.000 C 
DOCKED: ENDBRANCH  16  23
DOCKED: ENDBRANCH  14  19
DOCKED: ENDBRANCH   1  14
DOCKED: TORSDOF 7
DOCKED: TER
DOCKED: ENDMDL
________________________________________________________________________________


	BEGINNING GENETIC ALGORITHM DOCKING 68 of 100
Run: 68 Seed: 1313516670 1987438767 [ Run 68 of 100 GA/GALS ]
Beginning LAMARCKIAN GENETIC ALGORITHM (LGA), with a maximum of 2500000 energy evaluations.

Final-Value: -12.573


	FINAL GENETIC ALGORITHM DOCKED STATE
	_______________________________________________


Detailed state:  trans 18.856 -9.776 -3.602 quatxyzw -0.724293 0.331940 -0.583177 0.158490 center 1.179 0.138 -0.353 ntor 7 36.0286 -158.9968 -119.1432 -55.9950 -179.2684 -55.4153 -88.9551
State:	 18.856  -9.776  -3.602  -0.734  0.336 -0.591 161.761     36.03 -159.00 -119.14  -56.00 -179.27  -55.42  -88.96

DOCKED: MODEL       68
DOCKED: USER    Run = 68
DOCKED: USER    DPF = ligand_dock.biased.dpf
DOCKED: USER  
DOCKED: USER    Estimated Free Energy of Binding    =   -8.99 kcal/mol  [=(1)+(2)+(3)-(4)]
DOCKED: USER    Estimated Inhibition Constant, Ki   =  257.08 nM (nanomolar)  [Temperature = 298.15 K]
DOCKED: USER    
DOCKED: USER    (1) Final Intermolecular Energy     =  -11.08 kcal/mol
DOCKED: USER        vdW + Hbond + desolv Energy     =  -11.08 kcal/mol
DOCKED: USER        Electrostatic Energy            =   +0.00 kcal/mol
DOCKED: USER    (2) Final Total Internal Energy     =   -1.49 kcal/mol
DOCKED: USER    (3) Torsional Free Energy           =   +2.09 kcal/mol
DOCKED: USER    (4) Unbound System's Energy  [=(2)] =   -1.49 kcal/mol
DOCKED: USER    
DOCKED: USER    
DOCKED: USER    NEWDPF move ligand.pdbqt
DOCKED: USER    NEWDPF about 1.179000 0.138000 -0.353000
DOCKED: USER    NEWDPF tran0 18.856490 -9.776482 -3.601870
DOCKED: USER    NEWDPF quaternion0 -0.724293 0.331940 -0.583177 0.158490
DOCKED: USER    NEWDPF axisangle0 -0.733565 0.336190 -0.590642 161.761490
DOCKED: USER    NEWDPF quat0 -0.733565 0.336190 -0.590642 161.761490
DOCKED: USER    NEWDPF dihe0 36.03 -159.00 -119.14 -56.00 -179.27 -55.42 -88.96 
DOCKED: USER  keepresnum = 1 
DOCKED: USER  
DOCKED: REMARK  Name = 
DOCKED: REMARK  11 active torsions:
DOCKED: REMARK  status: ('A' for Active; 'I' for Inactive)
DOCKED: REMARK    1  A    between atoms: C_1  and  N_2
DOCKED: REMARK    2  A    between atoms: N_2  and  C_3
DOCKED: REMARK    3  A    between atoms: N_2  and  C_22
DOCKED: REMARK    4  A    between atoms: C_6  and  C_9
DOCKED: REMARK    5  A    between atoms: C_9  and  C_10
DOCKED: REMARK    6  A    between atoms: C_10  and  C_11
DOCKED: REMARK    7  A    between atoms: C_10  and  C_20
DOCKED: REMARK    8  A    between atoms: C_12  and  C_13
DOCKED: REMARK    9  A    between atoms: C_12  and  C_19
DOCKED: REMARK   10  A    between atoms: C_14  and  C_15
DOCKED: REMARK   11  A    between atoms: N_16  and  O_17
DOCKED: REMARK                            x       y       z     vdW  Elec       q    Type
DOCKED: REMARK                         _______ _______ _______ _____ _____    ______ ____
DOCKED: USER                              x       y       z     vdW  Elec       q    Type
DOCKED: USER                           _______ _______ _______ _____ _____    ______ ____
DOCKED: ROOT
DOCKED: ATOM      1  C   UNL     1      20.506 -10.479  -4.287 -0.46 -0.00    +0.000 C 
DOCKED: ATOM      2  C   UNL     1      21.758 -11.266  -4.686 -0.52 -0.00    +0.000 C 
DOCKED: ENDROOT
DOCKED: BRANCH   1   3
DOCKED: ATOM      3  C   UNL     1      20.124 -10.782  -2.853 -0.47 -0.00    +0.000 C 
DOCKED: ATOM      4  C   UNL     1      20.342  -9.953  -1.813 -0.53 -0.00    +0.000 C 
DOCKED: ATOM      5  C   UNL     1      21.023  -8.613  -1.991 -0.52 -0.00    +0.000 C 
DOCKED: BRANCH   4   6
DOCKED: ATOM      6  C   UNL     1      19.951 -10.420  -0.457 -0.57 -0.00    +0.000 C 
DOCKED: ATOM      7  C   UNL     1      20.829 -10.906   0.433 -0.70 -0.00    +0.000 C 
DOCKED: BRANCH   7   8
DOCKED: ATOM      8  C   UNL     1      20.446 -11.373   1.781 -0.76 -0.00    +0.000 C 
DOCKED: ATOM      9  N   UNL     1      20.642 -10.574   2.955 -0.63 -0.00    +0.000 N 
DOCKED: ATOM     10  O   UNL     1      19.905 -12.506   1.893 -1.68 -0.00    +0.000 OA
DOCKED: ATOM     11  H   UNL     1      20.968  -9.648   2.869 -0.60 -0.00    +0.000 HD
DOCKED: BRANCH   9  12
DOCKED: ATOM     12  O   UNL     1      20.380 -11.087   4.180 -0.75 -0.00    +0.000 OA
DOCKED: ATOM     13  H   UNL     1      20.624 -12.025   4.197 -0.49 -0.00    +0.000 HD
DOCKED: ENDBRANCH   9  12
DOCKED: ENDBRANCH   7   8
DOCKED: ENDBRANCH   4   6
DOCKED: ENDBRANCH   1   3
DOCKED: BRANCH   1  14
DOCKED: ATOM     14  C   UNL     1      19.369 -10.826  -5.225 -0.40 -0.00    +0.000 C 
DOCKED: ATOM     15  O   UNL     1      19.621 -11.504  -6.259 -0.39 -0.00    +0.000 OA
DOCKED: BRANCH  14  19
DOCKED: ATOM     16  C   UNL     1      15.324  -9.493  -4.475 -0.16 -0.00    +0.000 A 
DOCKED: ATOM     17  C   UNL     1      16.431  -8.812  -3.931 -0.16 -0.00    +0.000 A 
DOCKED: ATOM     18  C   UNL     1      17.734  -9.252  -4.176 -0.20 -0.00    +0.000 A 
DOCKED: ATOM     19  C   UNL     1      17.973 -10.381  -4.977 -0.26 -0.00    +0.000 A 
DOCKED: ATOM     20  C   UNL     1      16.873 -11.070  -5.515 -0.22 -0.00    +0.000 A 
DOCKED: ATOM     21  C   UNL     1      15.568 -10.632  -5.269 -0.22 -0.00    +0.000 A 
DOCKED: BRANCH  16  23
DOCKED: ATOM     22  C   UNL     1      13.725  -7.846  -3.399 -0.13 -0.00    +0.000 C 
DOCKED: ATOM     23  N   UNL     1      13.969  -9.037  -4.221 -0.12 -0.00    +0.000 N 
DOCKED: ATOM     24  C   UNL     1      12.820  -9.760  -4.780 -0.15 -0.00    +0.000 C 
DOCKED: ENDBRANCH  16  23
DOCKED: ENDBRANCH  14  19
DOCKED: ENDBRANCH   1  14
DOCKED: TORSDOF 7
DOCKED: TER
DOCKED: ENDMDL
________________________________________________________________________________


	BEGINNING GENETIC ALGORITHM DOCKING 69 of 100
Run: 69 Seed: 260282259 1556885614 [ Run 69 of 100 GA/GALS ]
Beginning LAMARCKIAN GENETIC ALGORITHM (LGA), with a maximum of 2500000 energy evaluations.

Final-Value: -13.253


	FINAL GENETIC ALGORITHM DOCKED STATE
	_______________________________________________


Detailed state:  trans 20.693 -9.147 -3.202 quatxyzw 0.632009 -0.636407 0.386454 -0.214949 center 1.179 0.138 -0.353 ntor 7 41.7277 -180.0000 180.0000 -10.4587 -113.0034 -0.7493 -171.1837
State:	 20.693  -9.147  -3.202   0.647 -0.652  0.396 -155.175     41.73 -180.00  180.00  -10.46 -113.00   -0.75 -171.18

DOCKED: MODEL       69
DOCKED: USER    Run = 69
DOCKED: USER    DPF = ligand_dock.biased.dpf
DOCKED: USER  
DOCKED: USER    Estimated Free Energy of Binding    =   -9.54 kcal/mol  [=(1)+(2)+(3)-(4)]
DOCKED: USER    Estimated Inhibition Constant, Ki   =  101.03 nM (nanomolar)  [Temperature = 298.15 K]
DOCKED: USER    
DOCKED: USER    (1) Final Intermolecular Energy     =  -11.63 kcal/mol
DOCKED: USER        vdW + Hbond + desolv Energy     =  -11.63 kcal/mol
DOCKED: USER        Electrostatic Energy            =   +0.00 kcal/mol
DOCKED: USER    (2) Final Total Internal Energy     =   -1.62 kcal/mol
DOCKED: USER    (3) Torsional Free Energy           =   +2.09 kcal/mol
DOCKED: USER    (4) Unbound System's Energy  [=(2)] =   -1.62 kcal/mol
DOCKED: USER    
DOCKED: USER    
DOCKED: USER    NEWDPF move ligand.pdbqt
DOCKED: USER    NEWDPF about 1.179000 0.138000 -0.353000
DOCKED: USER    NEWDPF tran0 20.693490 -9.147361 -3.202081
DOCKED: USER    NEWDPF quaternion0 0.632009 -0.636407 0.386454 -0.214949
DOCKED: USER    NEWDPF axisangle0 0.647136 -0.651639 0.395704 -155.174979
DOCKED: USER    NEWDPF quat0 0.647136 -0.651639 0.395704 -155.174979
DOCKED: USER    NEWDPF dihe0 41.73 -180.00 180.00 -10.46 -113.00 -0.75 -171.18 
DOCKED: USER  keepresnum = 1 
DOCKED: USER  
DOCKED: REMARK  Name = 
DOCKED: REMARK  11 active torsions:
DOCKED: REMARK  status: ('A' for Active; 'I' for Inactive)
DOCKED: REMARK    1  A    between atoms: C_1  and  N_2
DOCKED: REMARK    2  A    between atoms: N_2  and  C_3
DOCKED: REMARK    3  A    between atoms: N_2  and  C_22
DOCKED: REMARK    4  A    between atoms: C_6  and  C_9
DOCKED: REMARK    5  A    between atoms: C_9  and  C_10
DOCKED: REMARK    6  A    between atoms: C_10  and  C_11
DOCKED: REMARK    7  A    between atoms: C_10  and  C_20
DOCKED: REMARK    8  A    between atoms: C_12  and  C_13
DOCKED: REMARK    9  A    between atoms: C_12  and  C_19
DOCKED: REMARK   10  A    between atoms: C_14  and  C_15
DOCKED: REMARK   11  A    between atoms: N_16  and  O_17
DOCKED: REMARK                            x       y       z     vdW  Elec       q    Type
DOCKED: REMARK                         _______ _______ _______ _____ _____    ______ ____
DOCKED: USER                              x       y       z     vdW  Elec       q    Type
DOCKED: USER                           _______ _______ _______ _____ _____    ______ ____
DOCKED: ROOT
DOCKED: ATOM      1  C   UNL     1      21.583 -10.326  -4.429 -0.47 -0.00    +0.000 C 
DOCKED: ATOM      2  C   UNL     1      22.102 -11.453  -5.326 -0.52 -0.00    +0.000 C 
DOCKED: ENDROOT
DOCKED: BRANCH   1   3
DOCKED: ATOM      3  C   UNL     1      21.083 -10.885  -3.113 -0.44 -0.00    +0.000 C 
DOCKED: ATOM      4  C   UNL     1      20.953 -10.167  -1.978 -0.59 -0.00    +0.000 C 
DOCKED: ATOM      5  C   UNL     1      21.322  -8.701  -1.917 -0.52 -0.00    +0.000 C 
DOCKED: BRANCH   4   6
DOCKED: ATOM      6  C   UNL     1      20.493 -10.876  -0.755 -0.56 -0.00    +0.000 C 
DOCKED: ATOM      7  C   UNL     1      20.909 -10.554   0.479 -0.69 -0.00    +0.000 C 
DOCKED: BRANCH   7   8
DOCKED: ATOM      8  C   UNL     1      20.456 -11.256   1.698 -0.75 -0.00    +0.000 C 
DOCKED: ATOM      9  N   UNL     1      20.595 -10.688   3.007 -0.66 -0.00    +0.000 N 
DOCKED: ATOM     10  O   UNL     1      19.907 -12.383   1.572 -1.70 -0.00    +0.000 OA
DOCKED: ATOM     11  H   UNL     1      20.927  -9.767   3.109 -0.60 -0.00    +0.000 HD
DOCKED: BRANCH   9  12
DOCKED: ATOM     12  O   UNL     1      20.269 -11.415   4.102 -0.81 -0.00    +0.000 OA
DOCKED: ATOM     13  H   UNL     1      20.589 -12.324   3.995 -0.50 -0.00    +0.000 HD
DOCKED: ENDBRANCH   9  12
DOCKED: ENDBRANCH   7   8
DOCKED: ENDBRANCH   4   6
DOCKED: ENDBRANCH   1   3
DOCKED: BRANCH   1  14
DOCKED: ATOM     14  C   UNL     1      20.476  -9.578  -5.142 -0.30 -0.00    +0.000 C 
DOCKED: ATOM     15  O   UNL     1      20.775  -8.561  -5.827 -0.18 -0.00    +0.000 OA
DOCKED: BRANCH  14  19
DOCKED: ATOM     16  C   UNL     1      16.325 -10.750  -4.829 -0.17 -0.00    +0.000 A 
DOCKED: ATOM     17  C   UNL     1      16.900  -9.841  -3.917 -0.22 -0.00    +0.000 A 
DOCKED: ATOM     18  C   UNL     1      18.243  -9.471  -4.025 -0.22 -0.00    +0.000 A 
DOCKED: ATOM     19  C   UNL     1      19.051  -9.991  -5.049 -0.25 -0.00    +0.000 A 
DOCKED: ATOM     20  C   UNL     1      18.487 -10.905  -5.954 -0.33 -0.00    +0.000 A 
DOCKED: ATOM     21  C   UNL     1      17.144 -11.278  -5.847 -0.28 -0.00    +0.000 A 
DOCKED: BRANCH  16  23
DOCKED: ATOM     22  C   UNL     1      14.207 -10.967  -3.451 -0.30 -0.00    +0.000 C 
DOCKED: ATOM     23  N   UNL     1      14.930 -11.135  -4.718 -0.27 -0.00    +0.000 N 
DOCKED: ATOM     24  C   UNL     1      14.218 -11.702  -5.869 -0.30 -0.00    +0.000 C 
DOCKED: ENDBRANCH  16  23
DOCKED: ENDBRANCH  14  19
DOCKED: ENDBRANCH   1  14
DOCKED: TORSDOF 7
DOCKED: TER
DOCKED: ENDMDL
________________________________________________________________________________


	BEGINNING GENETIC ALGORITHM DOCKING 70 of 100
Run: 70 Seed: 1577946940 974274595 [ Run 70 of 100 GA/GALS ]
Beginning LAMARCKIAN GENETIC ALGORITHM (LGA), with a maximum of 2500000 energy evaluations.

Final-Value: -12.364


	FINAL GENETIC ALGORITHM DOCKED STATE
	_______________________________________________


Detailed state:  trans 20.656 -8.813 -3.579 quatxyzw -0.585169 0.595988 -0.470507 0.284601 center 1.179 0.138 -0.353 ntor 7 151.8568 -163.4146 -89.4158 -98.6552 56.2317 -10.4141 -180.0000
State:	 20.656  -8.813  -3.579  -0.610  0.622 -0.491 146.930    151.86 -163.41  -89.42  -98.66   56.23  -10.41 -180.00

DOCKED: MODEL       70
DOCKED: USER    Run = 70
DOCKED: USER    DPF = ligand_dock.biased.dpf
DOCKED: USER  
DOCKED: USER    Estimated Free Energy of Binding    =   -8.94 kcal/mol  [=(1)+(2)+(3)-(4)]
DOCKED: USER    Estimated Inhibition Constant, Ki   =  281.25 nM (nanomolar)  [Temperature = 298.15 K]
DOCKED: USER    
DOCKED: USER    (1) Final Intermolecular Energy     =  -11.03 kcal/mol
DOCKED: USER        vdW + Hbond + desolv Energy     =  -11.03 kcal/mol
DOCKED: USER        Electrostatic Energy            =   +0.00 kcal/mol
DOCKED: USER    (2) Final Total Internal Energy     =   -1.34 kcal/mol
DOCKED: USER    (3) Torsional Free Energy           =   +2.09 kcal/mol
DOCKED: USER    (4) Unbound System's Energy  [=(2)] =   -1.34 kcal/mol
DOCKED: USER    
DOCKED: USER    
DOCKED: USER    NEWDPF move ligand.pdbqt
DOCKED: USER    NEWDPF about 1.179000 0.138000 -0.353000
DOCKED: USER    NEWDPF tran0 20.656258 -8.813033 -3.579262
DOCKED: USER    NEWDPF quaternion0 -0.585169 0.595988 -0.470507 0.284601
DOCKED: USER    NEWDPF axisangle0 -0.610412 0.621698 -0.490804 146.930012
DOCKED: USER    NEWDPF quat0 -0.610412 0.621698 -0.490804 146.930012
DOCKED: USER    NEWDPF dihe0 151.86 -163.41 -89.42 -98.66 56.23 -10.41 -180.00 
DOCKED: USER  keepresnum = 1 
DOCKED: USER  
DOCKED: REMARK  Name = 
DOCKED: REMARK  11 active torsions:
DOCKED: REMARK  status: ('A' for Active; 'I' for Inactive)
DOCKED: REMARK    1  A    between atoms: C_1  and  N_2
DOCKED: REMARK    2  A    between atoms: N_2  and  C_3
DOCKED: REMARK    3  A    between atoms: N_2  and  C_22
DOCKED: REMARK    4  A    between atoms: C_6  and  C_9
DOCKED: REMARK    5  A    between atoms: C_9  and  C_10
DOCKED: REMARK    6  A    between atoms: C_10  and  C_11
DOCKED: REMARK    7  A    between atoms: C_10  and  C_20
DOCKED: REMARK    8  A    between atoms: C_12  and  C_13
DOCKED: REMARK    9  A    between atoms: C_12  and  C_19
DOCKED: REMARK   10  A    between atoms: C_14  and  C_15
DOCKED: REMARK   11  A    between atoms: N_16  and  O_17
DOCKED: REMARK                            x       y       z     vdW  Elec       q    Type
DOCKED: REMARK                         _______ _______ _______ _____ _____    ______ ____
DOCKED: USER                              x       y       z     vdW  Elec       q    Type
DOCKED: USER                           _______ _______ _______ _____ _____    ______ ____
DOCKED: ROOT
DOCKED: ATOM      1  C   UNL     1      21.549 -10.275  -4.445 -0.47 -0.00    +0.000 C 
DOCKED: ATOM      2  C   UNL     1      22.063 -11.599  -5.020 -0.49 -0.00    +0.000 C 
DOCKED: ENDROOT
DOCKED: BRANCH   1   3
DOCKED: ATOM      3  C   UNL     1      20.989 -10.484  -3.053 -0.54 -0.00    +0.000 C 
DOCKED: ATOM      4  C   UNL     1      21.014  -9.557  -2.073 -0.58 -0.00    +0.000 C 
DOCKED: ATOM      5  C   UNL     1      21.637  -8.194  -2.282 -0.36 -0.00    +0.000 C 
DOCKED: BRANCH   4   6
DOCKED: ATOM      6  C   UNL     1      20.465  -9.936  -0.745 -0.60 -0.00    +0.000 C 
DOCKED: ATOM      7  C   UNL     1      20.929 -10.970  -0.028 -0.62 -0.00    +0.000 C 
DOCKED: BRANCH   7   8
DOCKED: ATOM      8  C   UNL     1      20.387 -11.351   1.293 -0.74 -0.00    +0.000 C 
DOCKED: ATOM      9  N   UNL     1      20.609 -10.565   2.471 -0.61 -0.00    +0.000 N 
DOCKED: ATOM     10  O   UNL     1      19.685 -12.395   1.374 -1.57 -0.00    +0.000 OA
DOCKED: ATOM     11  H   UNL     1      21.067  -9.696   2.400 -0.57 -0.00    +0.000 HD
DOCKED: BRANCH   9  12
DOCKED: ATOM     12  O   UNL     1      20.189 -11.012   3.677 -0.84 -0.00    +0.000 OA
DOCKED: ATOM     13  H   UNL     1      20.757 -10.648   4.374 -0.15 -0.00    +0.000 HD
DOCKED: ENDBRANCH   9  12
DOCKED: ENDBRANCH   7   8
DOCKED: ENDBRANCH   4   6
DOCKED: ENDBRANCH   1   3
DOCKED: BRANCH   1  14
DOCKED: ATOM     14  C   UNL     1      20.490  -9.701  -5.363 -0.30 -0.00    +0.000 C 
DOCKED: ATOM     15  O   UNL     1      20.810  -8.767  -6.149 -0.17 -0.00    +0.000 OA
DOCKED: BRANCH  14  19
DOCKED: ATOM     16  C   UNL     1      16.413 -11.145  -5.382 -0.19 -0.00    +0.000 A 
DOCKED: ATOM     17  C   UNL     1      17.338 -11.552  -6.364 -0.29 -0.00    +0.000 A 
DOCKED: ATOM     18  C   UNL     1      18.652 -11.078  -6.351 -0.34 -0.00    +0.000 A 
DOCKED: ATOM     19  C   UNL     1      19.086 -10.188  -5.355 -0.27 -0.00    +0.000 A 
DOCKED: ATOM     20  C   UNL     1      18.166  -9.770  -4.379 -0.23 -0.00    +0.000 A 
DOCKED: ATOM     21  C   UNL     1      16.850 -10.243  -4.391 -0.21 -0.00    +0.000 A 
DOCKED: BRANCH  16  23
DOCKED: ATOM     22  C   UNL     1      14.576 -12.505  -6.480 -0.34 -0.00    +0.000 C 
DOCKED: ATOM     23  N   UNL     1      15.047 -11.636  -5.394 -0.29 -0.00    +0.000 N 
DOCKED: ATOM     24  C   UNL     1      14.113 -11.272  -4.322 -0.28 -0.00    +0.000 C 
DOCKED: ENDBRANCH  16  23
DOCKED: ENDBRANCH  14  19
DOCKED: ENDBRANCH   1  14
DOCKED: TORSDOF 7
DOCKED: TER
DOCKED: ENDMDL
________________________________________________________________________________


	BEGINNING GENETIC ALGORITHM DOCKING 71 of 100
Run: 71 Seed: 1754319503 365135999 [ Run 71 of 100 GA/GALS ]
Beginning LAMARCKIAN GENETIC ALGORITHM (LGA), with a maximum of 2500000 energy evaluations.

Final-Value: -12.711


	FINAL GENETIC ALGORITHM DOCKED STATE
	_______________________________________________


Detailed state:  trans 15.025 -8.110 2.077 quatxyzw 0.664911 -0.029820 -0.253537 -0.701942 center 1.179 0.138 -0.353 ntor 7 -10.0214 175.9842 -69.5441 87.3728 -151.9867 142.3925 -84.2201
State:	 15.025  -8.110   2.077   0.934 -0.042 -0.356 -90.834    -10.02  175.98  -69.54   87.37 -151.99  142.39  -84.22

DOCKED: MODEL       71
DOCKED: USER    Run = 71
DOCKED: USER    DPF = ligand_dock.biased.dpf
DOCKED: USER  
DOCKED: USER    Estimated Free Energy of Binding    =   -8.93 kcal/mol  [=(1)+(2)+(3)-(4)]
DOCKED: USER    Estimated Inhibition Constant, Ki   =  285.70 nM (nanomolar)  [Temperature = 298.15 K]
DOCKED: USER    
DOCKED: USER    (1) Final Intermolecular Energy     =  -11.02 kcal/mol
DOCKED: USER        vdW + Hbond + desolv Energy     =  -11.02 kcal/mol
DOCKED: USER        Electrostatic Energy            =   +0.00 kcal/mol
DOCKED: USER    (2) Final Total Internal Energy     =   -1.70 kcal/mol
DOCKED: USER    (3) Torsional Free Energy           =   +2.09 kcal/mol
DOCKED: USER    (4) Unbound System's Energy  [=(2)] =   -1.70 kcal/mol
DOCKED: USER    
DOCKED: USER    
DOCKED: USER    NEWDPF move ligand.pdbqt
DOCKED: USER    NEWDPF about 1.179000 0.138000 -0.353000
DOCKED: USER    NEWDPF tran0 15.024914 -8.110464 2.076978
DOCKED: USER    NEWDPF quaternion0 0.664911 -0.029820 -0.253537 -0.701942
DOCKED: USER    NEWDPF axisangle0 0.933557 -0.041868 -0.355975 -90.833983
DOCKED: USER    NEWDPF quat0 0.933557 -0.041868 -0.355975 -90.833983
DOCKED: USER    NEWDPF dihe0 -10.02 175.98 -69.54 87.37 -151.99 142.39 -84.22 
DOCKED: USER  keepresnum = 1 
DOCKED: USER  
DOCKED: REMARK  Name = 
DOCKED: REMARK  11 active torsions:
DOCKED: REMARK  status: ('A' for Active; 'I' for Inactive)
DOCKED: REMARK    1  A    between atoms: C_1  and  N_2
DOCKED: REMARK    2  A    between atoms: N_2  and  C_3
DOCKED: REMARK    3  A    between atoms: N_2  and  C_22
DOCKED: REMARK    4  A    between atoms: C_6  and  C_9
DOCKED: REMARK    5  A    between atoms: C_9  and  C_10
DOCKED: REMARK    6  A    between atoms: C_10  and  C_11
DOCKED: REMARK    7  A    between atoms: C_10  and  C_20
DOCKED: REMARK    8  A    between atoms: C_12  and  C_13
DOCKED: REMARK    9  A    between atoms: C_12  and  C_19
DOCKED: REMARK   10  A    between atoms: C_14  and  C_15
DOCKED: REMARK   11  A    between atoms: N_16  and  O_17
DOCKED: REMARK                            x       y       z     vdW  Elec       q    Type
DOCKED: REMARK                         _______ _______ _______ _____ _____    ______ ____
DOCKED: USER                              x       y       z     vdW  Elec       q    Type
DOCKED: USER                           _______ _______ _______ _____ _____    ______ ____
DOCKED: ROOT
DOCKED: ATOM      1  C   UNL     1      13.934  -9.682   1.915 -0.26 +0.00    +0.000 C 
DOCKED: ATOM      2  C   UNL     1      13.278 -11.066   1.909 -0.38 +0.00    +0.000 C 
DOCKED: ENDROOT
DOCKED: BRANCH   1   3
DOCKED: ATOM      3  C   UNL     1      15.426  -9.802   1.680 -0.33 +0.00    +0.000 C 
DOCKED: ATOM      4  C   UNL     1      16.267 -10.516   2.456 -0.45 +0.00    +0.000 C 
DOCKED: ATOM      5  C   UNL     1      15.779 -11.269   3.675 -0.54 +0.00    +0.000 C 
DOCKED: BRANCH   4   6
DOCKED: ATOM      6  C   UNL     1      17.714 -10.494   2.118 -0.50 -0.00    +0.000 C 
DOCKED: ATOM      7  C   UNL     1      18.393 -11.583   1.728 -0.56 -0.00    +0.000 C 
DOCKED: BRANCH   7   8
DOCKED: ATOM      8  C   UNL     1      19.831 -11.567   1.391 -0.72 -0.00    +0.000 C 
DOCKED: ATOM      9  N   UNL     1      20.392 -10.630   0.462 -0.60 -0.00    +0.000 N 
DOCKED: ATOM     10  O   UNL     1      20.590 -12.395   1.963 -1.48 -0.00    +0.000 OA
DOCKED: ATOM     11  H   UNL     1      19.829  -9.914   0.088 -0.02 -0.00    +0.000 HD
DOCKED: BRANCH   9  12
DOCKED: ATOM     12  O   UNL     1      21.693 -10.726   0.101 -0.73 -0.00    +0.000 OA
DOCKED: ATOM     13  H   UNL     1      22.141 -11.372   0.669 -0.53 -0.00    +0.000 HD
DOCKED: ENDBRANCH   9  12
DOCKED: ENDBRANCH   7   8
DOCKED: ENDBRANCH   4   6
DOCKED: ENDBRANCH   1   3
DOCKED: BRANCH   1  14
DOCKED: ATOM     14  C   UNL     1      13.659  -8.997   3.237 -0.28 +0.00    +0.000 C 
DOCKED: ATOM     15  O   UNL     1      12.889  -9.560   4.064 -0.31 +0.00    +0.000 OA
DOCKED: BRANCH  14  19
DOCKED: ATOM     16  C   UNL     1      15.358  -5.139   4.204 -0.36 +0.00    +0.000 A 
DOCKED: ATOM     17  C   UNL     1      14.680  -5.356   2.988 -0.24 +0.00    +0.000 A 
DOCKED: ATOM     18  C   UNL     1      14.137  -6.607   2.683 -0.21 +0.00    +0.000 A 
DOCKED: ATOM     19  C   UNL     1      14.248  -7.677   3.585 -0.26 +0.00    +0.000 A 
DOCKED: ATOM     20  C   UNL     1      14.932  -7.470   4.795 -0.36 +0.00    +0.000 A 
DOCKED: ATOM     21  C   UNL     1      15.477  -6.220   5.101 -0.41 +0.00    +0.000 A 
DOCKED: BRANCH  16  23
DOCKED: ATOM     22  C   UNL     1      16.286  -2.902   3.453 -0.47 -0.00    +0.000 C 
DOCKED: ATOM     23  N   UNL     1      15.923  -3.840   4.522 -0.47 -0.00    +0.000 N 
DOCKED: ATOM     24  C   UNL     1      16.143  -3.443   5.918 -0.52 -0.00    +0.000 C 
DOCKED: ENDBRANCH  16  23
DOCKED: ENDBRANCH  14  19
DOCKED: ENDBRANCH   1  14
DOCKED: TORSDOF 7
DOCKED: TER
DOCKED: ENDMDL
________________________________________________________________________________


	BEGINNING GENETIC ALGORITHM DOCKING 72 of 100
Run: 72 Seed: 839481691 1932320787 [ Run 72 of 100 GA/GALS ]
Beginning LAMARCKIAN GENETIC ALGORITHM (LGA), with a maximum of 2500000 energy evaluations.

Final-Value: -13.452


	FINAL GENETIC ALGORITHM DOCKED STATE
	_______________________________________________


Detailed state:  trans 20.278 -8.501 -2.783 quatxyzw -0.664378 0.560643 -0.327195 0.370438 center 1.179 0.138 -0.353 ntor 7 19.1241 36.9364 3.7922 -180.0000 88.0850 -3.3580 126.2951
State:	 20.278  -8.501  -2.783  -0.715  0.604 -0.352 136.515     19.12   36.94    3.79 -180.00   88.09   -3.36  126.30

DOCKED: MODEL       72
DOCKED: USER    Run = 72
DOCKED: USER    DPF = ligand_dock.biased.dpf
DOCKED: USER  
DOCKED: USER    Estimated Free Energy of Binding    =   -9.84 kcal/mol  [=(1)+(2)+(3)-(4)]
DOCKED: USER    Estimated Inhibition Constant, Ki   =   61.04 nM (nanomolar)  [Temperature = 298.15 K]
DOCKED: USER    
DOCKED: USER    (1) Final Intermolecular Energy     =  -11.93 kcal/mol
DOCKED: USER        vdW + Hbond + desolv Energy     =  -11.93 kcal/mol
DOCKED: USER        Electrostatic Energy            =   +0.00 kcal/mol
DOCKED: USER    (2) Final Total Internal Energy     =   -1.52 kcal/mol
DOCKED: USER    (3) Torsional Free Energy           =   +2.09 kcal/mol
DOCKED: USER    (4) Unbound System's Energy  [=(2)] =   -1.52 kcal/mol
DOCKED: USER    
DOCKED: USER    
DOCKED: USER    NEWDPF move ligand.pdbqt
DOCKED: USER    NEWDPF about 1.179000 0.138000 -0.353000
DOCKED: USER    NEWDPF tran0 20.277530 -8.500635 -2.783082
DOCKED: USER    NEWDPF quaternion0 -0.664378 0.560643 -0.327195 0.370438
DOCKED: USER    NEWDPF axisangle0 -0.715264 0.603584 -0.352255 136.514737
DOCKED: USER    NEWDPF quat0 -0.715264 0.603584 -0.352255 136.514737
DOCKED: USER    NEWDPF dihe0 19.12 36.94 3.79 -180.00 88.09 -3.36 126.30 
DOCKED: USER  keepresnum = 1 
DOCKED: USER  
DOCKED: REMARK  Name = 
DOCKED: REMARK  11 active torsions:
DOCKED: REMARK  status: ('A' for Active; 'I' for Inactive)
DOCKED: REMARK    1  A    between atoms: C_1  and  N_2
DOCKED: REMARK    2  A    between atoms: N_2  and  C_3
DOCKED: REMARK    3  A    between atoms: N_2  and  C_22
DOCKED: REMARK    4  A    between atoms: C_6  and  C_9
DOCKED: REMARK    5  A    between atoms: C_9  and  C_10
DOCKED: REMARK    6  A    between atoms: C_10  and  C_11
DOCKED: REMARK    7  A    between atoms: C_10  and  C_20
DOCKED: REMARK    8  A    between atoms: C_12  and  C_13
DOCKED: REMARK    9  A    between atoms: C_12  and  C_19
DOCKED: REMARK   10  A    between atoms: C_14  and  C_15
DOCKED: REMARK   11  A    between atoms: N_16  and  O_17
DOCKED: REMARK                            x       y       z     vdW  Elec       q    Type
DOCKED: REMARK                         _______ _______ _______ _____ _____    ______ ____
DOCKED: USER                              x       y       z     vdW  Elec       q    Type
DOCKED: USER                           _______ _______ _______ _____ _____    ______ ____
DOCKED: ROOT
DOCKED: ATOM      1  C   UNL     1      20.741  -9.893  -4.020 -0.44 -0.00    +0.000 C 
DOCKED: ATOM      2  C   UNL     1      20.961 -11.169  -4.840 -0.53 -0.00    +0.000 C 
DOCKED: ENDROOT
DOCKED: BRANCH   1   3
DOCKED: ATOM      3  C   UNL     1      20.707 -10.214  -2.540 -0.54 -0.00    +0.000 C 
DOCKED: ATOM      4  C   UNL     1      20.989  -9.331  -1.561 -0.60 -0.00    +0.000 C 
DOCKED: ATOM      5  C   UNL     1      21.392  -7.904  -1.866 -0.49 -0.00    +0.000 C 
DOCKED: BRANCH   4   6
DOCKED: ATOM      6  C   UNL     1      20.958  -9.816  -0.156 -0.69 -0.00    +0.000 C 
DOCKED: ATOM      7  C   UNL     1      20.258 -10.893   0.232 -0.66 -0.00    +0.000 C 
DOCKED: BRANCH   7   8
DOCKED: ATOM      8  C   UNL     1      20.222 -11.380   1.626 -0.76 -0.00    +0.000 C 
DOCKED: ATOM      9  N   UNL     1      20.530 -10.536   2.743 -0.63 -0.00    +0.000 N 
DOCKED: ATOM     10  O   UNL     1      19.884 -12.576   1.834 -1.65 -0.00    +0.000 OA
DOCKED: ATOM     11  H   UNL     1      20.695  -9.575   2.600 -0.54 -0.00    +0.000 HD
DOCKED: BRANCH   9  12
DOCKED: ATOM     12  O   UNL     1      20.594 -11.055   3.991 -0.75 -0.00    +0.000 OA
DOCKED: ATOM     13  H   UNL     1      20.710 -12.016   3.937 -0.54 -0.00    +0.000 HD
DOCKED: ENDBRANCH   9  12
DOCKED: ENDBRANCH   7   8
DOCKED: ENDBRANCH   4   6
DOCKED: ENDBRANCH   1   3
DOCKED: BRANCH   1  14
DOCKED: ATOM     14  C   UNL     1      19.449  -9.231  -4.450 -0.27 -0.00    +0.000 C 
DOCKED: ATOM     15  O   UNL     1      19.317  -7.988  -4.275 -0.22 -0.00    +0.000 OA
DOCKED: BRANCH  14  19
DOCKED: ATOM     16  C   UNL     1      16.212 -11.470  -6.242 -0.27 -0.00    +0.000 A 
DOCKED: ATOM     17  C   UNL     1      17.430 -11.271  -6.924 -0.34 -0.00    +0.000 A 
DOCKED: ATOM     18  C   UNL     1      18.468 -10.544  -6.338 -0.29 -0.00    +0.000 A 
DOCKED: ATOM     19  C   UNL     1      18.327  -9.998  -5.052 -0.23 -0.00    +0.000 A 
DOCKED: ATOM     20  C   UNL     1      17.112 -10.184  -4.371 -0.22 -0.00    +0.000 A 
DOCKED: ATOM     21  C   UNL     1      16.070 -10.910  -4.957 -0.19 -0.00    +0.000 A 
DOCKED: BRANCH  16  23
DOCKED: ATOM     22  C   UNL     1      13.765 -12.133  -6.320 -0.31 -0.00    +0.000 C 
DOCKED: ATOM     23  N   UNL     1      15.131 -12.225  -6.850 -0.33 -0.00    +0.000 N 
DOCKED: ATOM     24  C   UNL     1      15.386 -13.097  -8.004 -0.46 +0.00    +0.000 C 
DOCKED: ENDBRANCH  16  23
DOCKED: ENDBRANCH  14  19
DOCKED: ENDBRANCH   1  14
DOCKED: TORSDOF 7
DOCKED: TER
DOCKED: ENDMDL
________________________________________________________________________________


	BEGINNING GENETIC ALGORITHM DOCKING 73 of 100
Run: 73 Seed: 244490170 1305965383 [ Run 73 of 100 GA/GALS ]
Beginning LAMARCKIAN GENETIC ALGORITHM (LGA), with a maximum of 2500000 energy evaluations.

Final-Value: -12.188


	FINAL GENETIC ALGORITHM DOCKED STATE
	_______________________________________________


Detailed state:  trans 21.694 -12.587 -5.038 quatxyzw 0.611379 0.552769 0.493622 0.277488 center 1.179 0.138 -0.353 ntor 7 -8.0997 42.7115 -161.3507 87.0358 73.4898 -88.1630 67.6991
State:	 21.694 -12.587  -5.038   0.636  0.575  0.514 147.779     -8.10   42.71 -161.35   87.04   73.49  -88.16   67.70

DOCKED: MODEL       73
DOCKED: USER    Run = 73
DOCKED: USER    DPF = ligand_dock.biased.dpf
DOCKED: USER  
DOCKED: USER    Estimated Free Energy of Binding    =   -8.59 kcal/mol  [=(1)+(2)+(3)-(4)]
DOCKED: USER    Estimated Inhibition Constant, Ki   =  505.11 nM (nanomolar)  [Temperature = 298.15 K]
DOCKED: USER    
DOCKED: USER    (1) Final Intermolecular Energy     =  -10.68 kcal/mol
DOCKED: USER        vdW + Hbond + desolv Energy     =  -10.68 kcal/mol
DOCKED: USER        Electrostatic Energy            =   +0.00 kcal/mol
DOCKED: USER    (2) Final Total Internal Energy     =   -1.51 kcal/mol
DOCKED: USER    (3) Torsional Free Energy           =   +2.09 kcal/mol
DOCKED: USER    (4) Unbound System's Energy  [=(2)] =   -1.51 kcal/mol
DOCKED: USER    
DOCKED: USER    
DOCKED: USER    NEWDPF move ligand.pdbqt
DOCKED: USER    NEWDPF about 1.179000 0.138000 -0.353000
DOCKED: USER    NEWDPF tran0 21.694018 -12.586833 -5.037613
DOCKED: USER    NEWDPF quaternion0 0.611379 0.552769 0.493622 0.277488
DOCKED: USER    NEWDPF axisangle0 0.636370 0.575364 0.513799 147.779270
DOCKED: USER    NEWDPF quat0 0.636370 0.575364 0.513799 147.779270
DOCKED: USER    NEWDPF dihe0 -8.10 42.71 -161.35 87.04 73.49 -88.16 67.70 
DOCKED: USER  keepresnum = 1 
DOCKED: USER  
DOCKED: REMARK  Name = 
DOCKED: REMARK  11 active torsions:
DOCKED: REMARK  status: ('A' for Active; 'I' for Inactive)
DOCKED: REMARK    1  A    between atoms: C_1  and  N_2
DOCKED: REMARK    2  A    between atoms: N_2  and  C_3
DOCKED: REMARK    3  A    between atoms: N_2  and  C_22
DOCKED: REMARK    4  A    between atoms: C_6  and  C_9
DOCKED: REMARK    5  A    between atoms: C_9  and  C_10
DOCKED: REMARK    6  A    between atoms: C_10  and  C_11
DOCKED: REMARK    7  A    between atoms: C_10  and  C_20
DOCKED: REMARK    8  A    between atoms: C_12  and  C_13
DOCKED: REMARK    9  A    between atoms: C_12  and  C_19
DOCKED: REMARK   10  A    between atoms: C_14  and  C_15
DOCKED: REMARK   11  A    between atoms: N_16  and  O_17
DOCKED: REMARK                            x       y       z     vdW  Elec       q    Type
DOCKED: REMARK                         _______ _______ _______ _____ _____    ______ ____
DOCKED: USER                              x       y       z     vdW  Elec       q    Type
DOCKED: USER                           _______ _______ _______ _____ _____    ______ ____
DOCKED: ROOT
DOCKED: ATOM      1  C   UNL     1      21.813 -10.960  -6.050 -0.47 -0.00    +0.000 C 
DOCKED: ATOM      2  C   UNL     1      22.080  -9.578  -6.654 -0.28 -0.00    +0.000 C 
DOCKED: ENDROOT
DOCKED: BRANCH   1   3
DOCKED: ATOM      3  C   UNL     1      21.768 -10.877  -4.538 -0.51 -0.00    +0.000 C 
DOCKED: ATOM      4  C   UNL     1      20.772 -10.302  -3.834 -0.49 -0.00    +0.000 C 
DOCKED: ATOM      5  C   UNL     1      19.585  -9.656  -4.515 -0.30 -0.00    +0.000 C 
DOCKED: BRANCH   4   6
DOCKED: ATOM      6  C   UNL     1      20.901 -10.260  -2.353 -0.57 -0.00    +0.000 C 
DOCKED: ATOM      7  C   UNL     1      20.060 -10.898  -1.526 -0.45 -0.00    +0.000 C 
DOCKED: BRANCH   7   8
DOCKED: ATOM      8  C   UNL     1      20.183 -10.859  -0.054 -0.64 -0.00    +0.000 C 
DOCKED: ATOM      9  N   UNL     1      19.890 -11.994   0.771 -0.62 -0.00    +0.000 N 
DOCKED: ATOM     10  O   UNL     1      20.583  -9.793   0.486 -0.66 -0.00    +0.000 OA
DOCKED: ATOM     11  H   UNL     1      19.676 -12.861   0.355 -0.43 -0.00    +0.000 HD
DOCKED: BRANCH   9  12
DOCKED: ATOM     12  O   UNL     1      19.908 -11.878   2.120 -1.60 -0.00    +0.000 OA
DOCKED: ATOM     13  H   UNL     1      20.258 -11.007   2.365 -0.03 -0.00    +0.000 HD
DOCKED: ENDBRANCH   9  12
DOCKED: ENDBRANCH   7   8
DOCKED: ENDBRANCH   4   6
DOCKED: ENDBRANCH   1   3
DOCKED: BRANCH   1  14
DOCKED: ATOM     14  C   UNL     1      22.891 -11.925  -6.497 -0.53 -0.00    +0.000 C 
DOCKED: ATOM     15  O   UNL     1      23.254 -12.838  -5.704 -0.86 -0.00    +0.000 OA
DOCKED: BRANCH  14  19
DOCKED: ATOM     16  C   UNL     1      24.759 -11.650 -10.387 -0.19 -0.00    +0.000 A 
DOCKED: ATOM     17  C   UNL     1      23.525 -12.309 -10.213 -0.26 -0.00    +0.000 A 
DOCKED: ATOM     18  C   UNL     1      22.931 -12.396  -8.951 -0.34 -0.00    +0.000 A 
DOCKED: ATOM     19  C   UNL     1      23.546 -11.822  -7.827 -0.44 -0.00    +0.000 A 
DOCKED: ATOM     20  C   UNL     1      24.781 -11.172  -7.992 -0.38 -0.00    +0.000 A 
DOCKED: ATOM     21  C   UNL     1      25.378 -11.086  -9.254 -0.29 -0.00    +0.000 A 
DOCKED: BRANCH  16  23
DOCKED: ATOM     22  C   UNL     1      26.823 -11.332 -11.826 -0.16 -0.00    +0.000 C 
DOCKED: ATOM     23  N   UNL     1      25.378 -11.560 -11.697 -0.11 -0.00    +0.000 N 
DOCKED: ATOM     24  C   UNL     1      24.570 -11.693 -12.916 -0.06 -0.00    +0.000 C 
DOCKED: ENDBRANCH  16  23
DOCKED: ENDBRANCH  14  19
DOCKED: ENDBRANCH   1  14
DOCKED: TORSDOF 7
DOCKED: TER
DOCKED: ENDMDL
________________________________________________________________________________


	BEGINNING GENETIC ALGORITHM DOCKING 74 of 100
Run: 74 Seed: 1282142305 1758262003 [ Run 74 of 100 GA/GALS ]
Beginning LAMARCKIAN GENETIC ALGORITHM (LGA), with a maximum of 2500000 energy evaluations.

Final-Value: -12.816


	FINAL GENETIC ALGORITHM DOCKED STATE
	_______________________________________________


Detailed state:  trans 18.671 -9.801 0.701 quatxyzw 0.107924 -0.314932 0.942827 -0.015705 center 1.179 0.138 -0.353 ntor 7 6.2227 -66.5460 -84.1657 0.9762 50.3428 119.6814 -61.2825
State:	 18.671  -9.801   0.701   0.108 -0.315  0.943 -178.200      6.22  -66.55  -84.17    0.98   50.34  119.68  -61.28

DOCKED: MODEL       74
DOCKED: USER    Run = 74
DOCKED: USER    DPF = ligand_dock.biased.dpf
DOCKED: USER  
DOCKED: USER    Estimated Free Energy of Binding    =   -9.50 kcal/mol  [=(1)+(2)+(3)-(4)]
DOCKED: USER    Estimated Inhibition Constant, Ki   =  108.78 nM (nanomolar)  [Temperature = 298.15 K]
DOCKED: USER    
DOCKED: USER    (1) Final Intermolecular Energy     =  -11.59 kcal/mol
DOCKED: USER        vdW + Hbond + desolv Energy     =  -11.59 kcal/mol
DOCKED: USER        Electrostatic Energy            =   +0.00 kcal/mol
DOCKED: USER    (2) Final Total Internal Energy     =   -1.23 kcal/mol
DOCKED: USER    (3) Torsional Free Energy           =   +2.09 kcal/mol
DOCKED: USER    (4) Unbound System's Energy  [=(2)] =   -1.23 kcal/mol
DOCKED: USER    
DOCKED: USER    
DOCKED: USER    NEWDPF move ligand.pdbqt
DOCKED: USER    NEWDPF about 1.179000 0.138000 -0.353000
DOCKED: USER    NEWDPF tran0 18.671200 -9.801048 0.701393
DOCKED: USER    NEWDPF quaternion0 0.107924 -0.314932 0.942827 -0.015705
DOCKED: USER    NEWDPF axisangle0 0.107937 -0.314971 0.942944 -178.200274
DOCKED: USER    NEWDPF quat0 0.107937 -0.314971 0.942944 -178.200274
DOCKED: USER    NEWDPF dihe0 6.22 -66.55 -84.17 0.98 50.34 119.68 -61.28 
DOCKED: USER  keepresnum = 1 
DOCKED: USER  
DOCKED: REMARK  Name = 
DOCKED: REMARK  11 active torsions:
DOCKED: REMARK  status: ('A' for Active; 'I' for Inactive)
DOCKED: REMARK    1  A    between atoms: C_1  and  N_2
DOCKED: REMARK    2  A    between atoms: N_2  and  C_3
DOCKED: REMARK    3  A    between atoms: N_2  and  C_22
DOCKED: REMARK    4  A    between atoms: C_6  and  C_9
DOCKED: REMARK    5  A    between atoms: C_9  and  C_10
DOCKED: REMARK    6  A    between atoms: C_10  and  C_11
DOCKED: REMARK    7  A    between atoms: C_10  and  C_20
DOCKED: REMARK    8  A    between atoms: C_12  and  C_13
DOCKED: REMARK    9  A    between atoms: C_12  and  C_19
DOCKED: REMARK   10  A    between atoms: C_14  and  C_15
DOCKED: REMARK   11  A    between atoms: N_16  and  O_17
DOCKED: REMARK                            x       y       z     vdW  Elec       q    Type
DOCKED: REMARK                         _______ _______ _______ _____ _____    ______ ____
DOCKED: USER                              x       y       z     vdW  Elec       q    Type
DOCKED: USER                           _______ _______ _______ _____ _____    ______ ____
DOCKED: ROOT
DOCKED: ATOM      1  C   UNL     1      19.346 -10.505   2.355 -0.65 -0.00    +0.000 C 
DOCKED: ATOM      2  C   UNL     1      19.680 -11.255   3.648 -0.68 -0.00    +0.000 C 
DOCKED: ENDROOT
DOCKED: BRANCH   1   3
DOCKED: ATOM      3  C   UNL     1      17.848 -10.472   2.134 -0.51 -0.00    +0.000 C 
DOCKED: ATOM      4  C   UNL     1      17.130 -11.487   1.610 -0.46 +0.00    +0.000 C 
DOCKED: ATOM      5  C   UNL     1      17.783 -12.780   1.170 -0.24 +0.00    +0.000 C 
DOCKED: BRANCH   4   6
DOCKED: ATOM      6  C   UNL     1      15.672 -11.278   1.413 -0.42 +0.00    +0.000 C 
DOCKED: ATOM      7  C   UNL     1      14.941 -11.989   0.541 -0.47 +0.00    +0.000 C 
DOCKED: BRANCH   7   8
DOCKED: ATOM      8  C   UNL     1      13.492 -11.786   0.340 -0.43 +0.00    +0.000 C 
DOCKED: ATOM      9  N   UNL     1      12.527 -12.072   1.361 -0.43 +0.00    +0.000 N 
DOCKED: ATOM     10  O   UNL     1      13.099 -11.321  -0.764 -0.38 +0.00    +0.000 OA
DOCKED: ATOM     11  H   UNL     1      12.829 -12.336   2.260 -0.43 +0.00    +0.000 HD
DOCKED: BRANCH   9  12
DOCKED: ATOM     12  O   UNL     1      11.204 -11.977   1.093 -0.53 +0.00    +0.000 OA
DOCKED: ATOM     13  H   UNL     1      11.076 -11.803   0.147 -0.04 +0.00    +0.000 HD
DOCKED: ENDBRANCH   9  12
DOCKED: ENDBRANCH   7   8
DOCKED: ENDBRANCH   4   6
DOCKED: ENDBRANCH   1   3
DOCKED: BRANCH   1  14
DOCKED: ATOM     14  C   UNL     1      20.040 -11.175   1.188 -0.71 -0.00    +0.000 C 
DOCKED: ATOM     15  O   UNL     1      20.469 -12.353   1.332 -1.46 -0.00    +0.000 OA
DOCKED: BRANCH  14  19
DOCKED: ATOM     16  C   UNL     1      20.614  -9.198  -2.616 -0.42 -0.00    +0.000 A 
DOCKED: ATOM     17  C   UNL     1      19.658 -10.222  -2.460 -0.39 -0.00    +0.000 A 
DOCKED: ATOM     18  C   UNL     1      19.482 -10.857  -1.228 -0.43 -0.00    +0.000 A 
DOCKED: ATOM     19  C   UNL     1      20.250 -10.485  -0.113 -0.56 -0.00    +0.000 A 
DOCKED: ATOM     20  C   UNL     1      21.211  -9.472  -0.263 -0.57 -0.00    +0.000 A 
DOCKED: ATOM     21  C   UNL     1      21.390  -8.837  -1.496 -0.48 -0.00    +0.000 A 
DOCKED: BRANCH  16  23
DOCKED: ATOM     22  C   UNL     1      20.073  -7.300  -4.208 -0.23 -0.00    +0.000 C 
DOCKED: ATOM     23  N   UNL     1      20.799  -8.537  -3.895 -0.32 -0.00    +0.000 N 
DOCKED: ATOM     24  C   UNL     1      21.712  -9.095  -4.900 -0.33 -0.00    +0.000 C 
DOCKED: ENDBRANCH  16  23
DOCKED: ENDBRANCH  14  19
DOCKED: ENDBRANCH   1  14
DOCKED: TORSDOF 7
DOCKED: TER
DOCKED: ENDMDL
________________________________________________________________________________


	BEGINNING GENETIC ALGORITHM DOCKING 75 of 100
Run: 75 Seed: 1537520852 1722104093 [ Run 75 of 100 GA/GALS ]
Beginning LAMARCKIAN GENETIC ALGORITHM (LGA), with a maximum of 2500000 energy evaluations.

Final-Value: -13.950


	FINAL GENETIC ALGORITHM DOCKED STATE
	_______________________________________________


Detailed state:  trans 19.411 -11.442 -3.396 quatxyzw -0.760760 -0.161508 -0.589432 -0.218471 center 1.179 0.138 -0.353 ntor 7 13.0760 -20.1851 71.6576 111.0871 -99.4073 -111.1011 91.9154
State:	 19.411 -11.442  -3.396  -0.780 -0.166 -0.604 -154.762     13.08  -20.19   71.66  111.09  -99.41 -111.10   91.92

DOCKED: MODEL       75
DOCKED: USER    Run = 75
DOCKED: USER    DPF = ligand_dock.biased.dpf
DOCKED: USER  
DOCKED: USER    Estimated Free Energy of Binding    =  -10.59 kcal/mol  [=(1)+(2)+(3)-(4)]
DOCKED: USER    Estimated Inhibition Constant, Ki   =   17.18 nM (nanomolar)  [Temperature = 298.15 K]
DOCKED: USER    
DOCKED: USER    (1) Final Intermolecular Energy     =  -12.68 kcal/mol
DOCKED: USER        vdW + Hbond + desolv Energy     =  -12.68 kcal/mol
DOCKED: USER        Electrostatic Energy            =   +0.00 kcal/mol
DOCKED: USER    (2) Final Total Internal Energy     =   -1.27 kcal/mol
DOCKED: USER    (3) Torsional Free Energy           =   +2.09 kcal/mol
DOCKED: USER    (4) Unbound System's Energy  [=(2)] =   -1.27 kcal/mol
DOCKED: USER    
DOCKED: USER    
DOCKED: USER    NEWDPF move ligand.pdbqt
DOCKED: USER    NEWDPF about 1.179000 0.138000 -0.353000
DOCKED: USER    NEWDPF tran0 19.411021 -11.442313 -3.396139
DOCKED: USER    NEWDPF quaternion0 -0.760760 -0.161508 -0.589432 -0.218471
DOCKED: USER    NEWDPF axisangle0 -0.779592 -0.165506 -0.604023 -154.761535
DOCKED: USER    NEWDPF quat0 -0.779592 -0.165506 -0.604023 -154.761535
DOCKED: USER    NEWDPF dihe0 13.08 -20.19 71.66 111.09 -99.41 -111.10 91.92 
DOCKED: USER  keepresnum = 1 
DOCKED: USER  
DOCKED: REMARK  Name = 
DOCKED: REMARK  11 active torsions:
DOCKED: REMARK  status: ('A' for Active; 'I' for Inactive)
DOCKED: REMARK    1  A    between atoms: C_1  and  N_2
DOCKED: REMARK    2  A    between atoms: N_2  and  C_3
DOCKED: REMARK    3  A    between atoms: N_2  and  C_22
DOCKED: REMARK    4  A    between atoms: C_6  and  C_9
DOCKED: REMARK    5  A    between atoms: C_9  and  C_10
DOCKED: REMARK    6  A    between atoms: C_10  and  C_11
DOCKED: REMARK    7  A    between atoms: C_10  and  C_20
DOCKED: REMARK    8  A    between atoms: C_12  and  C_13
DOCKED: REMARK    9  A    between atoms: C_12  and  C_19
DOCKED: REMARK   10  A    between atoms: C_14  and  C_15
DOCKED: REMARK   11  A    between atoms: N_16  and  O_17
DOCKED: REMARK                            x       y       z     vdW  Elec       q    Type
DOCKED: REMARK                         _______ _______ _______ _____ _____    ______ ____
DOCKED: USER                              x       y       z     vdW  Elec       q    Type
DOCKED: USER                           _______ _______ _______ _____ _____    ______ ____
DOCKED: ROOT
DOCKED: ATOM      1  C   UNL     1      20.619 -10.071  -3.984 -0.45 -0.00    +0.000 C 
DOCKED: ATOM      2  C   UNL     1      21.770  -9.109  -4.295 -0.33 -0.00    +0.000 C 
DOCKED: ENDROOT
DOCKED: BRANCH   1   3
DOCKED: ATOM      3  C   UNL     1      20.704 -10.552  -2.550 -0.53 -0.00    +0.000 C 
DOCKED: ATOM      4  C   UNL     1      20.886  -9.747  -1.483 -0.62 -0.00    +0.000 C 
DOCKED: ATOM      5  C   UNL     1      21.042  -8.249  -1.633 -0.48 -0.00    +0.000 C 
DOCKED: BRANCH   4   6
DOCKED: ATOM      6  C   UNL     1      20.996 -10.382  -0.144 -0.71 -0.00    +0.000 C 
DOCKED: ATOM      7  C   UNL     1      19.943 -10.578   0.664 -0.64 -0.00    +0.000 C 
DOCKED: BRANCH   7   8
DOCKED: ATOM      8  C   UNL     1      20.046 -11.208   1.996 -0.74 -0.00    +0.000 C 
DOCKED: ATOM      9  N   UNL     1      20.287 -10.448   3.188 -0.66 -0.00    +0.000 N 
DOCKED: ATOM     10  O   UNL     1      19.892 -12.456   2.083 -1.68 -0.00    +0.000 OA
DOCKED: ATOM     11  H   UNL     1      20.307  -9.465   3.147 -0.58 -0.00    +0.000 HD
DOCKED: BRANCH   9  12
DOCKED: ATOM     12  O   UNL     1      20.486 -11.080   4.369 -0.68 -0.00    +0.000 OA
DOCKED: ATOM     13  H   UNL     1      20.640 -12.024   4.210 -0.50 -0.00    +0.000 HD
DOCKED: ENDBRANCH   9  12
DOCKED: ENDBRANCH   7   8
DOCKED: ENDBRANCH   4   6
DOCKED: ENDBRANCH   1   3
DOCKED: BRANCH   1  14
DOCKED: ATOM     14  C   UNL     1      20.664 -11.243  -4.941 -0.53 -0.00    +0.000 C 
DOCKED: ATOM     15  O   UNL     1      19.905 -12.228  -4.731 -0.71 -0.00    +0.000 OA
DOCKED: BRANCH  14  19
DOCKED: ATOM     16  C   UNL     1      23.374 -11.378  -8.309 -0.34 -0.00    +0.000 A 
DOCKED: ATOM     17  C   UNL     1      23.628 -12.116  -7.135 -0.45 -0.00    +0.000 A 
DOCKED: ATOM     18  C   UNL     1      22.748 -12.064  -6.052 -0.40 -0.00    +0.000 A 
DOCKED: ATOM     19  C   UNL     1      21.585 -11.278  -6.107 -0.38 -0.00    +0.000 A 
DOCKED: ATOM     20  C   UNL     1      21.332 -10.532  -7.271 -0.27 -0.00    +0.000 A 
DOCKED: ATOM     21  C   UNL     1      22.212 -10.582  -8.356 -0.24 -0.00    +0.000 A 
DOCKED: BRANCH  16  23
DOCKED: ATOM     22  C   UNL     1      23.775 -11.488 -10.810 -0.16 -0.00    +0.000 C 
DOCKED: ATOM     23  N   UNL     1      24.288 -11.431  -9.436 -0.24 -0.00    +0.000 N 
DOCKED: ATOM     24  C   UNL     1      25.740 -11.432  -9.221 -0.37 -0.00    +0.000 C 
DOCKED: ENDBRANCH  16  23
DOCKED: ENDBRANCH  14  19
DOCKED: ENDBRANCH   1  14
DOCKED: TORSDOF 7
DOCKED: TER
DOCKED: ENDMDL
________________________________________________________________________________


	BEGINNING GENETIC ALGORITHM DOCKING 76 of 100
Run: 76 Seed: 1689341303 1802265094 [ Run 76 of 100 GA/GALS ]
Beginning LAMARCKIAN GENETIC ALGORITHM (LGA), with a maximum of 2500000 energy evaluations.

Final-Value: -12.401


	FINAL GENETIC ALGORITHM DOCKED STATE
	_______________________________________________


Detailed state:  trans 16.002 -8.046 2.552 quatxyzw 0.586449 -0.094737 -0.337378 -0.730259 center 1.179 0.138 -0.353 ntor 7 -4.1361 -120.9741 -158.4441 179.5288 -163.1642 150.6828 -51.5743
State:	 16.002  -8.046   2.552   0.858 -0.139 -0.494 -86.184     -4.14 -120.97 -158.44  179.53 -163.16  150.68  -51.57

DOCKED: MODEL       76
DOCKED: USER    Run = 76
DOCKED: USER    DPF = ligand_dock.biased.dpf
DOCKED: USER  
DOCKED: USER    Estimated Free Energy of Binding    =   -8.85 kcal/mol  [=(1)+(2)+(3)-(4)]
DOCKED: USER    Estimated Inhibition Constant, Ki   =  325.80 nM (nanomolar)  [Temperature = 298.15 K]
DOCKED: USER    
DOCKED: USER    (1) Final Intermolecular Energy     =  -10.94 kcal/mol
DOCKED: USER        vdW + Hbond + desolv Energy     =  -10.94 kcal/mol
DOCKED: USER        Electrostatic Energy            =   +0.00 kcal/mol
DOCKED: USER    (2) Final Total Internal Energy     =   -1.46 kcal/mol
DOCKED: USER    (3) Torsional Free Energy           =   +2.09 kcal/mol
DOCKED: USER    (4) Unbound System's Energy  [=(2)] =   -1.46 kcal/mol
DOCKED: USER    
DOCKED: USER    
DOCKED: USER    NEWDPF move ligand.pdbqt
DOCKED: USER    NEWDPF about 1.179000 0.138000 -0.353000
DOCKED: USER    NEWDPF tran0 16.001634 -8.045754 2.552347
DOCKED: USER    NEWDPF quaternion0 0.586449 -0.094737 -0.337378 -0.730259
DOCKED: USER    NEWDPF axisangle0 0.858423 -0.138673 -0.493842 -86.183813
DOCKED: USER    NEWDPF quat0 0.858423 -0.138673 -0.493842 -86.183813
DOCKED: USER    NEWDPF dihe0 -4.14 -120.97 -158.44 179.53 -163.16 150.68 -51.57 
DOCKED: USER  keepresnum = 1 
DOCKED: USER  
DOCKED: REMARK  Name = 
DOCKED: REMARK  11 active torsions:
DOCKED: REMARK  status: ('A' for Active; 'I' for Inactive)
DOCKED: REMARK    1  A    between atoms: C_1  and  N_2
DOCKED: REMARK    2  A    between atoms: N_2  and  C_3
DOCKED: REMARK    3  A    between atoms: N_2  and  C_22
DOCKED: REMARK    4  A    between atoms: C_6  and  C_9
DOCKED: REMARK    5  A    between atoms: C_9  and  C_10
DOCKED: REMARK    6  A    between atoms: C_10  and  C_11
DOCKED: REMARK    7  A    between atoms: C_10  and  C_20
DOCKED: REMARK    8  A    between atoms: C_12  and  C_13
DOCKED: REMARK    9  A    between atoms: C_12  and  C_19
DOCKED: REMARK   10  A    between atoms: C_14  and  C_15
DOCKED: REMARK   11  A    between atoms: N_16  and  O_17
DOCKED: REMARK                            x       y       z     vdW  Elec       q    Type
DOCKED: REMARK                         _______ _______ _______ _____ _____    ______ ____
DOCKED: USER                              x       y       z     vdW  Elec       q    Type
DOCKED: USER                           _______ _______ _______ _____ _____    ______ ____
DOCKED: ROOT
DOCKED: ATOM      1  C   UNL     1      14.627  -9.374   2.725 -0.33 +0.00    +0.000 C 
DOCKED: ATOM      2  C   UNL     1      13.725 -10.582   2.997 -0.34 +0.00    +0.000 C 
DOCKED: ENDROOT
DOCKED: BRANCH   1   3
DOCKED: ATOM      3  C   UNL     1      16.047  -9.825   2.449 -0.41 +0.00    +0.000 C 
DOCKED: ATOM      4  C   UNL     1      16.741 -10.681   3.227 -0.50 +0.00    +0.000 C 
DOCKED: ATOM      5  C   UNL     1      16.148 -11.270   4.489 -0.37 +0.00    +0.000 C 
DOCKED: BRANCH   4   6
DOCKED: ATOM      6  C   UNL     1      18.145 -10.986   2.844 -0.53 -0.00    +0.000 C 
DOCKED: ATOM      7  C   UNL     1      18.608 -10.855   1.593 -0.55 -0.00    +0.000 C 
DOCKED: BRANCH   7   8
DOCKED: ATOM      8  C   UNL     1      20.002 -11.158   1.206 -0.70 -0.00    +0.000 C 
DOCKED: ATOM      9  N   UNL     1      20.732 -10.350   0.274 -0.63 -0.00    +0.000 N 
DOCKED: ATOM     10  O   UNL     1      20.569 -12.150   1.737 -1.55 -0.00    +0.000 OA
DOCKED: ATOM     11  H   UNL     1      20.336  -9.517  -0.069 -0.04 -0.00    +0.000 HD
DOCKED: BRANCH   9  12
DOCKED: ATOM     12  O   UNL     1      21.966 -10.730  -0.135 -0.74 -0.00    +0.000 OA
DOCKED: ATOM     13  H   UNL     1      22.233 -11.531   0.343 -0.47 -0.00    +0.000 HD
DOCKED: ENDBRANCH   9  12
DOCKED: ENDBRANCH   7   8
DOCKED: ENDBRANCH   4   6
DOCKED: ENDBRANCH   1   3
DOCKED: BRANCH   1  14
DOCKED: ATOM     14  C   UNL     1      14.589  -8.436   3.913 -0.37 +0.00    +0.000 C 
DOCKED: ATOM     15  O   UNL     1      14.342  -8.913   5.055 -0.47 +0.00    +0.000 OA
DOCKED: BRANCH  14  19
DOCKED: ATOM     16  C   UNL     1      15.218  -4.180   3.470 -0.31 -0.00    +0.000 A 
DOCKED: ATOM     17  C   UNL     1      14.471  -4.912   2.524 -0.20 -0.00    +0.000 A 
DOCKED: ATOM     18  C   UNL     1      14.277  -6.287   2.674 -0.22 +0.00    +0.000 A 
DOCKED: ATOM     19  C   UNL     1      14.814  -6.973   3.775 -0.31 +0.00    +0.000 A 
DOCKED: ATOM     20  C   UNL     1      15.568  -6.251   4.717 -0.38 +0.00    +0.000 A 
DOCKED: ATOM     21  C   UNL     1      15.765  -4.875   4.567 -0.39 -0.00    +0.000 A 
DOCKED: BRANCH  16  23
DOCKED: ATOM     22  C   UNL     1      14.342  -1.893   2.812 -0.33 -0.00    +0.000 C 
DOCKED: ATOM     23  N   UNL     1      15.422  -2.751   3.315 -0.36 -0.00    +0.000 N 
DOCKED: ATOM     24  C   UNL     1      16.712  -2.139   3.657 -0.43 -0.00    +0.000 C 
DOCKED: ENDBRANCH  16  23
DOCKED: ENDBRANCH  14  19
DOCKED: ENDBRANCH   1  14
DOCKED: TORSDOF 7
DOCKED: TER
DOCKED: ENDMDL
________________________________________________________________________________


	BEGINNING GENETIC ALGORITHM DOCKING 77 of 100
Run: 77 Seed: 1155442939 1414668560 [ Run 77 of 100 GA/GALS ]
Beginning LAMARCKIAN GENETIC ALGORITHM (LGA), with a maximum of 2500000 energy evaluations.

Final-Value: -13.420


	FINAL GENETIC ALGORITHM DOCKED STATE
	_______________________________________________


Detailed state:  trans 20.939 -8.494 -2.818 quatxyzw -0.598358 0.621589 -0.384494 0.328268 center 1.179 0.138 -0.353 ntor 7 29.1363 -170.8748 -45.9774 -146.2039 77.7829 9.8444 156.4135
State:	 20.939  -8.494  -2.818  -0.633  0.658 -0.407 141.673     29.14 -170.87  -45.98 -146.20   77.78    9.84  156.41

DOCKED: MODEL       77
DOCKED: USER    Run = 77
DOCKED: USER    DPF = ligand_dock.biased.dpf
DOCKED: USER  
DOCKED: USER    Estimated Free Energy of Binding    =   -9.66 kcal/mol  [=(1)+(2)+(3)-(4)]
DOCKED: USER    Estimated Inhibition Constant, Ki   =   82.37 nM (nanomolar)  [Temperature = 298.15 K]
DOCKED: USER    
DOCKED: USER    (1) Final Intermolecular Energy     =  -11.75 kcal/mol
DOCKED: USER        vdW + Hbond + desolv Energy     =  -11.75 kcal/mol
DOCKED: USER        Electrostatic Energy            =   +0.00 kcal/mol
DOCKED: USER    (2) Final Total Internal Energy     =   -1.67 kcal/mol
DOCKED: USER    (3) Torsional Free Energy           =   +2.09 kcal/mol
DOCKED: USER    (4) Unbound System's Energy  [=(2)] =   -1.67 kcal/mol
DOCKED: USER    
DOCKED: USER    
DOCKED: USER    NEWDPF move ligand.pdbqt
DOCKED: USER    NEWDPF about 1.179000 0.138000 -0.353000
DOCKED: USER    NEWDPF tran0 20.938801 -8.493981 -2.818039
DOCKED: USER    NEWDPF quaternion0 -0.598358 0.621589 -0.384494 0.328268
DOCKED: USER    NEWDPF axisangle0 -0.633461 0.658055 -0.407051 141.672593
DOCKED: USER    NEWDPF quat0 -0.633461 0.658055 -0.407051 141.672593
DOCKED: USER    NEWDPF dihe0 29.14 -170.87 -45.98 -146.20 77.78 9.84 156.41 
DOCKED: USER  keepresnum = 1 
DOCKED: USER  
DOCKED: REMARK  Name = 
DOCKED: REMARK  11 active torsions:
DOCKED: REMARK  status: ('A' for Active; 'I' for Inactive)
DOCKED: REMARK    1  A    between atoms: C_1  and  N_2
DOCKED: REMARK    2  A    between atoms: N_2  and  C_3
DOCKED: REMARK    3  A    between atoms: N_2  and  C_22
DOCKED: REMARK    4  A    between atoms: C_6  and  C_9
DOCKED: REMARK    5  A    between atoms: C_9  and  C_10
DOCKED: REMARK    6  A    between atoms: C_10  and  C_11
DOCKED: REMARK    7  A    between atoms: C_10  and  C_20
DOCKED: REMARK    8  A    between atoms: C_12  and  C_13
DOCKED: REMARK    9  A    between atoms: C_12  and  C_19
DOCKED: REMARK   10  A    between atoms: C_14  and  C_15
DOCKED: REMARK   11  A    between atoms: N_16  and  O_17
DOCKED: REMARK                            x       y       z     vdW  Elec       q    Type
DOCKED: REMARK                         _______ _______ _______ _____ _____    ______ ____
DOCKED: USER                              x       y       z     vdW  Elec       q    Type
DOCKED: USER                           _______ _______ _______ _____ _____    ______ ____
DOCKED: ROOT
DOCKED: ATOM      1  C   UNL     1      21.530  -9.952  -3.918 -0.45 -0.00    +0.000 C 
DOCKED: ATOM      2  C   UNL     1      21.806 -11.262  -4.662 -0.50 -0.00    +0.000 C 
DOCKED: ENDROOT
DOCKED: BRANCH   1   3
DOCKED: ATOM      3  C   UNL     1      21.159 -10.230  -2.476 -0.57 -0.00    +0.000 C 
DOCKED: ATOM      4  C   UNL     1      21.061  -9.287  -1.517 -0.60 -0.00    +0.000 C 
DOCKED: ATOM      5  C   UNL     1      21.338  -7.827  -1.805 -0.47 -0.00    +0.000 C 
DOCKED: BRANCH   4   6
DOCKED: ATOM      6  C   UNL     1      20.734  -9.730  -0.136 -0.65 -0.00    +0.000 C 
DOCKED: ATOM      7  C   UNL     1      20.735 -11.017   0.240 -0.66 -0.00    +0.000 C 
DOCKED: BRANCH   7   8
DOCKED: ATOM      8  C   UNL     1      20.409 -11.464   1.610 -0.76 -0.00    +0.000 C 
DOCKED: ATOM      9  N   UNL     1      20.631 -10.638   2.760 -0.63 -0.00    +0.000 N 
DOCKED: ATOM     10  O   UNL     1      19.897 -12.605   1.763 -1.65 -0.00    +0.000 OA
DOCKED: ATOM     11  H   UNL     1      20.933  -9.708   2.645 -0.58 -0.00    +0.000 HD
DOCKED: BRANCH   9  12
DOCKED: ATOM     12  O   UNL     1      20.422 -11.131   4.003 -0.78 -0.00    +0.000 OA
DOCKED: ATOM     13  H   UNL     1      20.583 -12.088   4.003 -0.49 -0.00    +0.000 HD
DOCKED: ENDBRANCH   9  12
DOCKED: ENDBRANCH   7   8
DOCKED: ENDBRANCH   4   6
DOCKED: ENDBRANCH   1   3
DOCKED: BRANCH   1  14
DOCKED: ATOM     14  C   UNL     1      20.418  -9.197  -4.616 -0.31 -0.00    +0.000 C 
DOCKED: ATOM     15  O   UNL     1      20.631  -8.009  -4.986 -0.20 -0.00    +0.000 OA
DOCKED: BRANCH  14  19
DOCKED: ATOM     16  C   UNL     1      16.550 -10.978  -5.372 -0.21 -0.00    +0.000 A 
DOCKED: ATOM     17  C   UNL     1      17.662 -11.268  -6.189 -0.33 -0.00    +0.000 A 
DOCKED: ATOM     18  C   UNL     1      18.907 -10.686  -5.938 -0.31 -0.00    +0.000 A 
DOCKED: ATOM     19  C   UNL     1      19.082  -9.801  -4.862 -0.24 -0.00    +0.000 A 
DOCKED: ATOM     20  C   UNL     1      17.976  -9.499  -4.050 -0.22 -0.00    +0.000 A 
DOCKED: ATOM     21  C   UNL     1      16.729 -10.080  -4.300 -0.21 -0.00    +0.000 A 
DOCKED: BRANCH  16  23
DOCKED: ATOM     22  C   UNL     1      15.010 -12.311  -6.882 -0.36 -0.00    +0.000 C 
DOCKED: ATOM     23  N   UNL     1      15.256 -11.583  -5.631 -0.28 -0.00    +0.000 N 
DOCKED: ATOM     24  C   UNL     1      14.171 -11.475  -4.649 -0.27 -0.00    +0.000 C 
DOCKED: ENDBRANCH  16  23
DOCKED: ENDBRANCH  14  19
DOCKED: ENDBRANCH   1  14
DOCKED: TORSDOF 7
DOCKED: TER
DOCKED: ENDMDL
________________________________________________________________________________


	BEGINNING GENETIC ALGORITHM DOCKING 78 of 100
Run: 78 Seed: 1974093643 1585823717 [ Run 78 of 100 GA/GALS ]
Beginning LAMARCKIAN GENETIC ALGORITHM (LGA), with a maximum of 2500000 energy evaluations.

Final-Value: -13.508


	FINAL GENETIC ALGORITHM DOCKED STATE
	_______________________________________________


Detailed state:  trans 20.676 -8.518 -2.950 quatxyzw -0.597687 0.617942 -0.410766 0.303625 center 1.179 0.138 -0.353 ntor 7 41.1222 -166.0513 -68.6453 -117.3285 -109.2079 0.0750 151.0071
State:	 20.676  -8.518  -2.950  -0.627  0.649 -0.431 144.649     41.12 -166.05  -68.65 -117.33 -109.21    0.07  151.01

DOCKED: MODEL       78
DOCKED: USER    Run = 78
DOCKED: USER    DPF = ligand_dock.biased.dpf
DOCKED: USER  
DOCKED: USER    Estimated Free Energy of Binding    =   -9.88 kcal/mol  [=(1)+(2)+(3)-(4)]
DOCKED: USER    Estimated Inhibition Constant, Ki   =   56.97 nM (nanomolar)  [Temperature = 298.15 K]
DOCKED: USER    
DOCKED: USER    (1) Final Intermolecular Energy     =  -11.97 kcal/mol
DOCKED: USER        vdW + Hbond + desolv Energy     =  -11.97 kcal/mol
DOCKED: USER        Electrostatic Energy            =   +0.00 kcal/mol
DOCKED: USER    (2) Final Total Internal Energy     =   -1.54 kcal/mol
DOCKED: USER    (3) Torsional Free Energy           =   +2.09 kcal/mol
DOCKED: USER    (4) Unbound System's Energy  [=(2)] =   -1.54 kcal/mol
DOCKED: USER    
DOCKED: USER    
DOCKED: USER    NEWDPF move ligand.pdbqt
DOCKED: USER    NEWDPF about 1.179000 0.138000 -0.353000
DOCKED: USER    NEWDPF tran0 20.676416 -8.518026 -2.949784
DOCKED: USER    NEWDPF quaternion0 -0.597687 0.617942 -0.410766 0.303625
DOCKED: USER    NEWDPF axisangle0 -0.627301 0.648560 -0.431118 144.649097
DOCKED: USER    NEWDPF quat0 -0.627301 0.648560 -0.431118 144.649097
DOCKED: USER    NEWDPF dihe0 41.12 -166.05 -68.65 -117.33 -109.21 0.07 151.01 
DOCKED: USER  keepresnum = 1 
DOCKED: USER  
DOCKED: REMARK  Name = 
DOCKED: REMARK  11 active torsions:
DOCKED: REMARK  status: ('A' for Active; 'I' for Inactive)
DOCKED: REMARK    1  A    between atoms: C_1  and  N_2
DOCKED: REMARK    2  A    between atoms: N_2  and  C_3
DOCKED: REMARK    3  A    between atoms: N_2  and  C_22
DOCKED: REMARK    4  A    between atoms: C_6  and  C_9
DOCKED: REMARK    5  A    between atoms: C_9  and  C_10
DOCKED: REMARK    6  A    between atoms: C_10  and  C_11
DOCKED: REMARK    7  A    between atoms: C_10  and  C_20
DOCKED: REMARK    8  A    between atoms: C_12  and  C_13
DOCKED: REMARK    9  A    between atoms: C_12  and  C_19
DOCKED: REMARK   10  A    between atoms: C_14  and  C_15
DOCKED: REMARK   11  A    between atoms: N_16  and  O_17
DOCKED: REMARK                            x       y       z     vdW  Elec       q    Type
DOCKED: REMARK                         _______ _______ _______ _____ _____    ______ ____
DOCKED: USER                              x       y       z     vdW  Elec       q    Type
DOCKED: USER                           _______ _______ _______ _____ _____    ______ ____
DOCKED: ROOT
DOCKED: ATOM      1  C   UNL     1      21.390  -9.957  -4.001 -0.47 -0.00    +0.000 C 
DOCKED: ATOM      2  C   UNL     1      21.761 -11.259  -4.717 -0.53 -0.00    +0.000 C 
DOCKED: ENDROOT
DOCKED: BRANCH   1   3
DOCKED: ATOM      3  C   UNL     1      20.944 -10.242  -2.582 -0.56 -0.00    +0.000 C 
DOCKED: ATOM      4  C   UNL     1      20.931  -9.331  -1.588 -0.59 -0.00    +0.000 C 
DOCKED: ATOM      5  C   UNL     1      21.391  -7.905  -1.808 -0.48 -0.00    +0.000 C 
DOCKED: BRANCH   4   6
DOCKED: ATOM      6  C   UNL     1      20.510  -9.782  -0.236 -0.60 -0.00    +0.000 C 
DOCKED: ATOM      7  C   UNL     1      20.860 -10.969   0.282 -0.67 -0.00    +0.000 C 
DOCKED: BRANCH   7   8
DOCKED: ATOM      8  C   UNL     1      20.444 -11.424   1.625 -0.76 -0.00    +0.000 C 
DOCKED: ATOM      9  N   UNL     1      20.613 -10.616   2.797 -0.63 -0.00    +0.000 N 
DOCKED: ATOM     10  O   UNL     1      19.899 -12.556   1.733 -1.67 -0.00    +0.000 OA
DOCKED: ATOM     11  H   UNL     1      20.942  -9.692   2.711 -0.58 -0.00    +0.000 HD
DOCKED: BRANCH   9  12
DOCKED: ATOM     12  O   UNL     1      20.321 -11.119   4.019 -0.80 -0.00    +0.000 OA
DOCKED: ATOM     13  H   UNL     1      20.636 -12.034   4.077 -0.52 -0.00    +0.000 HD
DOCKED: ENDBRANCH   9  12
DOCKED: ENDBRANCH   7   8
DOCKED: ENDBRANCH   4   6
DOCKED: ENDBRANCH   1   3
DOCKED: BRANCH   1  14
DOCKED: ATOM     14  C   UNL     1      20.293  -9.251  -4.770 -0.29 -0.00    +0.000 C 
DOCKED: ATOM     15  O   UNL     1      20.437  -8.027  -5.046 -0.19 -0.00    +0.000 OA
DOCKED: BRANCH  14  19
DOCKED: ATOM     16  C   UNL     1      16.649 -11.252  -5.960 -0.27 -0.00    +0.000 A 
DOCKED: ATOM     17  C   UNL     1      16.727 -10.531  -4.752 -0.20 -0.00    +0.000 A 
DOCKED: ATOM     18  C   UNL     1      17.909  -9.890  -4.375 -0.24 -0.00    +0.000 A 
DOCKED: ATOM     19  C   UNL     1      19.049  -9.944  -5.194 -0.24 -0.00    +0.000 A 
DOCKED: ATOM     20  C   UNL     1      18.981 -10.669  -6.396 -0.30 -0.00    +0.000 A 
DOCKED: ATOM     21  C   UNL     1      17.798 -11.313  -6.774 -0.34 -0.00    +0.000 A 
DOCKED: BRANCH  16  23
DOCKED: ATOM     22  C   UNL     1      14.276 -11.976  -5.436 -0.29 -0.00    +0.000 C 
DOCKED: ATOM     23  N   UNL     1      15.421 -11.919  -6.354 -0.31 -0.00    +0.000 N 
DOCKED: ATOM     24  C   UNL     1      15.303 -12.550  -7.674 -0.41 -0.00    +0.000 C 
DOCKED: ENDBRANCH  16  23
DOCKED: ENDBRANCH  14  19
DOCKED: ENDBRANCH   1  14
DOCKED: TORSDOF 7
DOCKED: TER
DOCKED: ENDMDL
________________________________________________________________________________


	BEGINNING GENETIC ALGORITHM DOCKING 79 of 100
Run: 79 Seed: 1816775977 1089218698 [ Run 79 of 100 GA/GALS ]
Beginning LAMARCKIAN GENETIC ALGORITHM (LGA), with a maximum of 2500000 energy evaluations.

Final-Value: -12.885


	FINAL GENETIC ALGORITHM DOCKED STATE
	_______________________________________________


Detailed state:  trans 18.988 -11.061 -3.522 quatxyzw 0.764837 0.057604 0.610247 0.198252 center 1.179 0.138 -0.353 ntor 7 -2.2891 -37.9378 -174.1293 -82.7240 -87.9153 -12.4455 -23.7396
State:	 18.988 -11.061  -3.522   0.780  0.059  0.623 157.130     -2.29  -37.94 -174.13  -82.72  -87.92  -12.45  -23.74

DOCKED: MODEL       79
DOCKED: USER    Run = 79
DOCKED: USER    DPF = ligand_dock.biased.dpf
DOCKED: USER  
DOCKED: USER    Estimated Free Energy of Binding    =   -9.10 kcal/mol  [=(1)+(2)+(3)-(4)]
DOCKED: USER    Estimated Inhibition Constant, Ki   =  213.42 nM (nanomolar)  [Temperature = 298.15 K]
DOCKED: USER    
DOCKED: USER    (1) Final Intermolecular Energy     =  -11.19 kcal/mol
DOCKED: USER        vdW + Hbond + desolv Energy     =  -11.19 kcal/mol
DOCKED: USER        Electrostatic Energy            =   +0.00 kcal/mol
DOCKED: USER    (2) Final Total Internal Energy     =   -1.70 kcal/mol
DOCKED: USER    (3) Torsional Free Energy           =   +2.09 kcal/mol
DOCKED: USER    (4) Unbound System's Energy  [=(2)] =   -1.70 kcal/mol
DOCKED: USER    
DOCKED: USER    
DOCKED: USER    NEWDPF move ligand.pdbqt
DOCKED: USER    NEWDPF about 1.179000 0.138000 -0.353000
DOCKED: USER    NEWDPF tran0 18.988137 -11.060939 -3.522001
DOCKED: USER    NEWDPF quaternion0 0.764837 0.057604 0.610247 0.198252
DOCKED: USER    NEWDPF axisangle0 0.780326 0.058770 0.622605 157.130427
DOCKED: USER    NEWDPF quat0 0.780326 0.058770 0.622605 157.130427
DOCKED: USER    NEWDPF dihe0 -2.29 -37.94 -174.13 -82.72 -87.92 -12.45 -23.74 
DOCKED: USER  keepresnum = 1 
DOCKED: USER  
DOCKED: REMARK  Name = 
DOCKED: REMARK  11 active torsions:
DOCKED: REMARK  status: ('A' for Active; 'I' for Inactive)
DOCKED: REMARK    1  A    between atoms: C_1  and  N_2
DOCKED: REMARK    2  A    between atoms: N_2  and  C_3
DOCKED: REMARK    3  A    between atoms: N_2  and  C_22
DOCKED: REMARK    4  A    between atoms: C_6  and  C_9
DOCKED: REMARK    5  A    between atoms: C_9  and  C_10
DOCKED: REMARK    6  A    between atoms: C_10  and  C_11
DOCKED: REMARK    7  A    between atoms: C_10  and  C_20
DOCKED: REMARK    8  A    between atoms: C_12  and  C_13
DOCKED: REMARK    9  A    between atoms: C_12  and  C_19
DOCKED: REMARK   10  A    between atoms: C_14  and  C_15
DOCKED: REMARK   11  A    between atoms: N_16  and  O_17
DOCKED: REMARK                            x       y       z     vdW  Elec       q    Type
DOCKED: REMARK                         _______ _______ _______ _____ _____    ______ ____
DOCKED: USER                              x       y       z     vdW  Elec       q    Type
DOCKED: USER                           _______ _______ _______ _____ _____    ______ ____
DOCKED: ROOT
DOCKED: ATOM      1  C   UNL     1      20.435  -9.894  -4.002 -0.41 -0.00    +0.000 C 
DOCKED: ATOM      2  C   UNL     1      21.748  -9.144  -4.245 -0.34 -0.00    +0.000 C 
DOCKED: ENDROOT
DOCKED: BRANCH   1   3
DOCKED: ATOM      3  C   UNL     1      20.430 -10.520  -2.623 -0.52 -0.00    +0.000 C 
DOCKED: ATOM      4  C   UNL     1      19.330 -10.675  -1.858 -0.45 -0.00    +0.000 C 
DOCKED: ATOM      5  C   UNL     1      17.966 -10.207  -2.320 -0.16 -0.00    +0.000 C 
DOCKED: BRANCH   4   6
DOCKED: ATOM      6  C   UNL     1      19.501 -11.266  -0.505 -0.53 -0.00    +0.000 C 
DOCKED: ATOM      7  C   UNL     1      20.036 -10.595   0.525 -0.64 -0.00    +0.000 C 
DOCKED: BRANCH   7   8
DOCKED: ATOM      8  C   UNL     1      20.209 -11.177   1.873 -0.75 -0.00    +0.000 C 
DOCKED: ATOM      9  N   UNL     1      20.296 -10.368   3.053 -0.60 -0.00    +0.000 N 
DOCKED: ATOM     10  O   UNL     1      20.257 -12.431   1.982 -1.64 -0.00    +0.000 OA
DOCKED: ATOM     11  H   UNL     1      20.157  -9.395   2.992 -0.57 -0.00    +0.000 HD
DOCKED: BRANCH   9  12
DOCKED: ATOM     12  O   UNL     1      20.567 -10.939   4.250 -0.74 -0.00    +0.000 OA
DOCKED: ATOM     13  H   UNL     1      20.639 -11.900   4.142 -0.49 -0.00    +0.000 HD
DOCKED: ENDBRANCH   9  12
DOCKED: ENDBRANCH   7   8
DOCKED: ENDBRANCH   4   6
DOCKED: ENDBRANCH   1   3
DOCKED: BRANCH   1  14
DOCKED: ATOM     14  C   UNL     1      20.252 -10.955  -5.067 -0.47 -0.00    +0.000 C 
DOCKED: ATOM     15  O   UNL     1      21.167 -11.807  -5.238 -0.66 -0.00    +0.000 OA
DOCKED: BRANCH  14  19
DOCKED: ATOM     16  C   UNL     1      16.762 -11.114  -7.616 -0.29 -0.00    +0.000 A 
DOCKED: ATOM     17  C   UNL     1      18.041 -10.845  -8.143 -0.20 -0.00    +0.000 A 
DOCKED: ATOM     18  C   UNL     1      19.162 -10.792  -7.311 -0.27 -0.00    +0.000 A 
DOCKED: ATOM     19  C   UNL     1      19.043 -11.013  -5.930 -0.35 -0.00    +0.000 A 
DOCKED: ATOM     20  C   UNL     1      17.769 -11.272  -5.396 -0.22 -0.00    +0.000 A 
DOCKED: ATOM     21  C   UNL     1      16.645 -11.323  -6.227 -0.29 -0.00    +0.000 A 
DOCKED: BRANCH  16  23
DOCKED: ATOM     22  C   UNL     1      14.774 -12.383  -8.547 -0.31 -0.00    +0.000 C 
DOCKED: ATOM     23  N   UNL     1      15.596 -11.168  -8.479 -0.19 -0.00    +0.000 N 
DOCKED: ATOM     24  C   UNL     1      15.219 -10.011  -9.300 -0.10 -0.00    +0.000 C 
DOCKED: ENDBRANCH  16  23
DOCKED: ENDBRANCH  14  19
DOCKED: ENDBRANCH   1  14
DOCKED: TORSDOF 7
DOCKED: TER
DOCKED: ENDMDL
________________________________________________________________________________


	BEGINNING GENETIC ALGORITHM DOCKING 80 of 100
Run: 80 Seed: 1681691486 1441644729 [ Run 80 of 100 GA/GALS ]
Beginning LAMARCKIAN GENETIC ALGORITHM (LGA), with a maximum of 2500000 energy evaluations.

Final-Value: -13.245


	FINAL GENETIC ALGORITHM DOCKED STATE
	_______________________________________________


Detailed state:  trans 22.730 -8.283 -3.015 quatxyzw 0.094210 -0.748872 -0.266569 -0.599379 center 1.179 0.138 -0.353 ntor 7 17.9029 45.8577 34.3489 -21.7822 -54.5857 -83.1181 175.8736
State:	 22.730  -8.283  -3.015   0.118 -0.936 -0.333 -106.349     17.90   45.86   34.35  -21.78  -54.59  -83.12  175.87

DOCKED: MODEL       80
DOCKED: USER    Run = 80
DOCKED: USER    DPF = ligand_dock.biased.dpf
DOCKED: USER  
DOCKED: USER    Estimated Free Energy of Binding    =   -9.60 kcal/mol  [=(1)+(2)+(3)-(4)]
DOCKED: USER    Estimated Inhibition Constant, Ki   =   91.50 nM (nanomolar)  [Temperature = 298.15 K]
DOCKED: USER    
DOCKED: USER    (1) Final Intermolecular Energy     =  -11.69 kcal/mol
DOCKED: USER        vdW + Hbond + desolv Energy     =  -11.69 kcal/mol
DOCKED: USER        Electrostatic Energy            =   +0.00 kcal/mol
DOCKED: USER    (2) Final Total Internal Energy     =   -1.55 kcal/mol
DOCKED: USER    (3) Torsional Free Energy           =   +2.09 kcal/mol
DOCKED: USER    (4) Unbound System's Energy  [=(2)] =   -1.55 kcal/mol
DOCKED: USER    
DOCKED: USER    
DOCKED: USER    NEWDPF move ligand.pdbqt
DOCKED: USER    NEWDPF about 1.179000 0.138000 -0.353000
DOCKED: USER    NEWDPF tran0 22.729875 -8.283076 -3.015263
DOCKED: USER    NEWDPF quaternion0 0.094210 -0.748872 -0.266569 -0.599379
DOCKED: USER    NEWDPF axisangle0 0.117694 -0.935546 -0.333018 -106.349074
DOCKED: USER    NEWDPF quat0 0.117694 -0.935546 -0.333018 -106.349074
DOCKED: USER    NEWDPF dihe0 17.90 45.86 34.35 -21.78 -54.59 -83.12 175.87 
DOCKED: USER  keepresnum = 1 
DOCKED: USER  
DOCKED: REMARK  Name = 
DOCKED: REMARK  11 active torsions:
DOCKED: REMARK  status: ('A' for Active; 'I' for Inactive)
DOCKED: REMARK    1  A    between atoms: C_1  and  N_2
DOCKED: REMARK    2  A    between atoms: N_2  and  C_3
DOCKED: REMARK    3  A    between atoms: N_2  and  C_22
DOCKED: REMARK    4  A    between atoms: C_6  and  C_9
DOCKED: REMARK    5  A    between atoms: C_9  and  C_10
DOCKED: REMARK    6  A    between atoms: C_10  and  C_11
DOCKED: REMARK    7  A    between atoms: C_10  and  C_20
DOCKED: REMARK    8  A    between atoms: C_12  and  C_13
DOCKED: REMARK    9  A    between atoms: C_12  and  C_19
DOCKED: REMARK   10  A    between atoms: C_14  and  C_15
DOCKED: REMARK   11  A    between atoms: N_16  and  O_17
DOCKED: REMARK                            x       y       z     vdW  Elec       q    Type
DOCKED: REMARK                         _______ _______ _______ _____ _____    ______ ____
DOCKED: USER                              x       y       z     vdW  Elec       q    Type
DOCKED: USER                           _______ _______ _______ _____ _____    ______ ____
DOCKED: ROOT
DOCKED: ATOM      1  C   UNL     1      20.976  -8.030  -3.753 -0.36 -0.00    +0.000 C 
DOCKED: ATOM      2  C   UNL     1      19.506  -7.750  -4.083 -0.18 -0.00    +0.000 C 
DOCKED: ENDROOT
DOCKED: BRANCH   1   3
DOCKED: ATOM      3  C   UNL     1      21.104  -8.609  -2.359 -0.49 -0.00    +0.000 C 
DOCKED: ATOM      4  C   UNL     1      20.809  -9.884  -2.032 -0.58 -0.00    +0.000 C 
DOCKED: ATOM      5  C   UNL     1      20.293 -10.871  -3.057 -0.47 -0.00    +0.000 C 
DOCKED: BRANCH   4   6
DOCKED: ATOM      6  C   UNL     1      20.944 -10.285  -0.607 -0.68 -0.00    +0.000 C 
DOCKED: ATOM      7  C   UNL     1      20.020 -11.011   0.041 -0.62 -0.00    +0.000 C 
DOCKED: BRANCH   7   8
DOCKED: ATOM      8  C   UNL     1      20.147 -11.412   1.457 -0.74 -0.00    +0.000 C 
DOCKED: ATOM      9  N   UNL     1      20.419 -10.468   2.501 -0.58 -0.00    +0.000 N 
DOCKED: ATOM     10  O   UNL     1      19.986 -12.626   1.753 -1.61 -0.00    +0.000 OA
DOCKED: ATOM     11  H   UNL     1      20.445  -9.505   2.297 -0.51 -0.00    +0.000 HD
DOCKED: BRANCH   9  12
DOCKED: ATOM     12  O   UNL     1      20.638 -10.896   3.766 -0.82 -0.00    +0.000 OA
DOCKED: ATOM     13  H   UNL     1      20.857 -11.841   3.755 -0.52 -0.00    +0.000 HD
DOCKED: ENDBRANCH   9  12
DOCKED: ENDBRANCH   7   8
DOCKED: ENDBRANCH   4   6
DOCKED: ENDBRANCH   1   3
DOCKED: BRANCH   1  14
DOCKED: ATOM     14  C   UNL     1      21.775  -6.749  -3.871 -0.28 -0.00    +0.000 C 
DOCKED: ATOM     15  O   UNL     1      22.528  -6.594  -4.872 -0.23 -0.00    +0.000 OA
DOCKED: BRANCH  14  19
DOCKED: ATOM     16  C   UNL     1      21.651  -3.625  -0.882 -0.29 +0.00    +0.000 A 
DOCKED: ATOM     17  C   UNL     1      22.818  -3.876  -1.631 -0.27 +0.00    +0.000 A 
DOCKED: ATOM     18  C   UNL     1      22.850  -4.890  -2.592 -0.24 -0.00    +0.000 A 
DOCKED: ATOM     19  C   UNL     1      21.716  -5.679  -2.841 -0.34 -0.00    +0.000 A 
DOCKED: ATOM     20  C   UNL     1      20.551  -5.441  -2.091 -0.28 -0.00    +0.000 A 
DOCKED: ATOM     21  C   UNL     1      20.518  -4.428  -1.128 -0.39 +0.00    +0.000 A 
DOCKED: BRANCH  16  23
DOCKED: ATOM     22  C   UNL     1      20.678  -2.644   1.244 -0.50 +0.00    +0.000 C 
DOCKED: ATOM     23  N   UNL     1      21.617  -2.573   0.117 -0.40 +0.00    +0.000 N 
DOCKED: ATOM     24  C   UNL     1      22.517  -1.418   0.017 -0.31 -0.00    +0.000 C 
DOCKED: ENDBRANCH  16  23
DOCKED: ENDBRANCH  14  19
DOCKED: ENDBRANCH   1  14
DOCKED: TORSDOF 7
DOCKED: TER
DOCKED: ENDMDL
________________________________________________________________________________


	BEGINNING GENETIC ALGORITHM DOCKING 81 of 100
Run: 81 Seed: 1650982828 1148490542 [ Run 81 of 100 GA/GALS ]
Beginning LAMARCKIAN GENETIC ALGORITHM (LGA), with a maximum of 2500000 energy evaluations.

Final-Value: -13.314


	FINAL GENETIC ALGORITHM DOCKED STATE
	_______________________________________________


Detailed state:  trans 17.840 -10.701 0.469 quatxyzw -0.133834 0.199216 -0.968171 -0.071043 center 1.179 0.138 -0.353 ntor 7 8.2802 119.6293 -39.6291 133.6185 -104.7708 -74.1947 -47.8860
State:	 17.840 -10.701   0.469  -0.134  0.200 -0.971 -171.852      8.28  119.63  -39.63  133.62 -104.77  -74.19  -47.89

DOCKED: MODEL       81
DOCKED: USER    Run = 81
DOCKED: USER    DPF = ligand_dock.biased.dpf
DOCKED: USER  
DOCKED: USER    Estimated Free Energy of Binding    =   -9.57 kcal/mol  [=(1)+(2)+(3)-(4)]
DOCKED: USER    Estimated Inhibition Constant, Ki   =   97.13 nM (nanomolar)  [Temperature = 298.15 K]
DOCKED: USER    
DOCKED: USER    (1) Final Intermolecular Energy     =  -11.66 kcal/mol
DOCKED: USER        vdW + Hbond + desolv Energy     =  -11.66 kcal/mol
DOCKED: USER        Electrostatic Energy            =   +0.00 kcal/mol
DOCKED: USER    (2) Final Total Internal Energy     =   -1.66 kcal/mol
DOCKED: USER    (3) Torsional Free Energy           =   +2.09 kcal/mol
DOCKED: USER    (4) Unbound System's Energy  [=(2)] =   -1.66 kcal/mol
DOCKED: USER    
DOCKED: USER    
DOCKED: USER    NEWDPF move ligand.pdbqt
DOCKED: USER    NEWDPF about 1.179000 0.138000 -0.353000
DOCKED: USER    NEWDPF tran0 17.840019 -10.700777 0.469053
DOCKED: USER    NEWDPF quaternion0 -0.133834 0.199216 -0.968171 -0.071043
DOCKED: USER    NEWDPF axisangle0 -0.134173 0.199721 -0.970623 -171.852265
DOCKED: USER    NEWDPF quat0 -0.134173 0.199721 -0.970623 -171.852265
DOCKED: USER    NEWDPF dihe0 8.28 119.63 -39.63 133.62 -104.77 -74.19 -47.89 
DOCKED: USER  keepresnum = 1 
DOCKED: USER  
DOCKED: REMARK  Name = 
DOCKED: REMARK  11 active torsions:
DOCKED: REMARK  status: ('A' for Active; 'I' for Inactive)
DOCKED: REMARK    1  A    between atoms: C_1  and  N_2
DOCKED: REMARK    2  A    between atoms: N_2  and  C_3
DOCKED: REMARK    3  A    between atoms: N_2  and  C_22
DOCKED: REMARK    4  A    between atoms: C_6  and  C_9
DOCKED: REMARK    5  A    between atoms: C_9  and  C_10
DOCKED: REMARK    6  A    between atoms: C_10  and  C_11
DOCKED: REMARK    7  A    between atoms: C_10  and  C_20
DOCKED: REMARK    8  A    between atoms: C_12  and  C_13
DOCKED: REMARK    9  A    between atoms: C_12  and  C_19
DOCKED: REMARK   10  A    between atoms: C_14  and  C_15
DOCKED: REMARK   11  A    between atoms: N_16  and  O_17
DOCKED: REMARK                            x       y       z     vdW  Elec       q    Type
DOCKED: REMARK                         _______ _______ _______ _____ _____    ______ ____
DOCKED: USER                              x       y       z     vdW  Elec       q    Type
DOCKED: USER                           _______ _______ _______ _____ _____    ______ ____
DOCKED: ROOT
DOCKED: ATOM      1  C   UNL     1      18.594 -10.886   2.224 -0.59 -0.00    +0.000 C 
DOCKED: ATOM      2  C   UNL     1      19.034 -11.261   3.643 -0.47 -0.00    +0.000 C 
DOCKED: ENDROOT
DOCKED: BRANCH   1   3
DOCKED: ATOM      3  C   UNL     1      17.128 -11.207   2.023 -0.47 +0.00    +0.000 C 
DOCKED: ATOM      4  C   UNL     1      16.113 -10.385   2.360 -0.43 +0.00    +0.000 C 
DOCKED: ATOM      5  C   UNL     1      16.360  -9.037   3.003 -0.36 +0.00    +0.000 C 
DOCKED: BRANCH   4   6
DOCKED: ATOM      6  C   UNL     1      14.724 -10.869   2.142 -0.42 +0.00    +0.000 C 
DOCKED: ATOM      7  C   UNL     1      14.189 -11.035   0.923 -0.36 +0.00    +0.000 C 
DOCKED: BRANCH   7   8
DOCKED: ATOM      8  C   UNL     1      12.810 -11.514   0.699 -0.42 +0.00    +0.000 C 
DOCKED: ATOM      9  N   UNL     1      12.085 -12.257   1.688 -0.34 +0.00    +0.000 N 
DOCKED: ATOM     10  O   UNL     1      12.248 -11.235  -0.394 -0.38 +0.00    +0.000 OA
DOCKED: ATOM     11  H   UNL     1      12.474 -12.392   2.582 -0.48 +0.00    +0.000 HD
DOCKED: BRANCH   9  12
DOCKED: ATOM     12  O   UNL     1      10.868 -12.772   1.395 -0.51 +0.00    +0.000 OA
DOCKED: ATOM     13  H   UNL     1      10.689 -12.664   0.448 -0.24 +0.00    +0.000 HD
DOCKED: ENDBRANCH   9  12
DOCKED: ENDBRANCH   7   8
DOCKED: ENDBRANCH   4   6
DOCKED: ENDBRANCH   1   3
DOCKED: BRANCH   1  14
DOCKED: ATOM     14  C   UNL     1      19.444 -11.632   1.217 -0.68 -0.00    +0.000 C 
DOCKED: ATOM     15  O   UNL     1      19.890 -12.772   1.524 -1.50 -0.00    +0.000 OA
DOCKED: BRANCH  14  19
DOCKED: ATOM     16  C   UNL     1      20.480  -9.948  -2.630 -0.45 -0.00    +0.000 A 
DOCKED: ATOM     17  C   UNL     1      21.372  -9.886  -1.540 -0.55 -0.00    +0.000 A 
DOCKED: ATOM     18  C   UNL     1      21.026 -10.430  -0.300 -0.63 -0.00    +0.000 A 
DOCKED: ATOM     19  C   UNL     1      19.785 -11.058  -0.112 -0.52 -0.00    +0.000 A 
DOCKED: ATOM     20  C   UNL     1      18.888 -11.115  -1.192 -0.40 -0.00    +0.000 A 
DOCKED: ATOM     21  C   UNL     1      19.231 -10.570  -2.433 -0.37 -0.00    +0.000 A 
DOCKED: BRANCH  16  23
DOCKED: ATOM     22  C   UNL     1      20.705  -7.942  -4.164 -0.31 -0.00    +0.000 C 
DOCKED: ATOM     23  N   UNL     1      20.837  -9.383  -3.919 -0.35 -0.00    +0.000 N 
DOCKED: ATOM     24  C   UNL     1      21.334 -10.243  -4.999 -0.44 -0.00    +0.000 C 
DOCKED: ENDBRANCH  16  23
DOCKED: ENDBRANCH  14  19
DOCKED: ENDBRANCH   1  14
DOCKED: TORSDOF 7
DOCKED: TER
DOCKED: ENDMDL
________________________________________________________________________________


	BEGINNING GENETIC ALGORITHM DOCKING 82 of 100
Run: 82 Seed: 960613054 1260677724 [ Run 82 of 100 GA/GALS ]
Beginning LAMARCKIAN GENETIC ALGORITHM (LGA), with a maximum of 2500000 energy evaluations.

Final-Value: -12.641


	FINAL GENETIC ALGORITHM DOCKED STATE
	_______________________________________________


Detailed state:  trans 19.334 -9.713 -3.732 quatxyzw 0.727852 -0.418048 0.527663 -0.130536 center 1.179 0.138 -0.353 ntor 7 42.7750 66.5571 -175.9764 -4.7242 24.4514 -38.7423 -97.5936
State:	 19.334  -9.713  -3.732   0.734 -0.422  0.532 -164.999     42.77   66.56 -175.98   -4.72   24.45  -38.74  -97.59

DOCKED: MODEL       82
DOCKED: USER    Run = 82
DOCKED: USER    DPF = ligand_dock.biased.dpf
DOCKED: USER  
DOCKED: USER    Estimated Free Energy of Binding    =   -9.00 kcal/mol  [=(1)+(2)+(3)-(4)]
DOCKED: USER    Estimated Inhibition Constant, Ki   =  253.91 nM (nanomolar)  [Temperature = 298.15 K]
DOCKED: USER    
DOCKED: USER    (1) Final Intermolecular Energy     =  -11.09 kcal/mol
DOCKED: USER        vdW + Hbond + desolv Energy     =  -11.09 kcal/mol
DOCKED: USER        Electrostatic Energy            =   +0.00 kcal/mol
DOCKED: USER    (2) Final Total Internal Energy     =   -1.56 kcal/mol
DOCKED: USER    (3) Torsional Free Energy           =   +2.09 kcal/mol
DOCKED: USER    (4) Unbound System's Energy  [=(2)] =   -1.56 kcal/mol
DOCKED: USER    
DOCKED: USER    
DOCKED: USER    NEWDPF move ligand.pdbqt
DOCKED: USER    NEWDPF about 1.179000 0.138000 -0.353000
DOCKED: USER    NEWDPF tran0 19.334278 -9.712668 -3.731663
DOCKED: USER    NEWDPF quaternion0 0.727852 -0.418048 0.527663 -0.130536
DOCKED: USER    NEWDPF axisangle0 0.734133 -0.421656 0.532217 -164.998878
DOCKED: USER    NEWDPF quat0 0.734133 -0.421656 0.532217 -164.998878
DOCKED: USER    NEWDPF dihe0 42.77 66.56 -175.98 -4.72 24.45 -38.74 -97.59 
DOCKED: USER  keepresnum = 1 
DOCKED: USER  
DOCKED: REMARK  Name = 
DOCKED: REMARK  11 active torsions:
DOCKED: REMARK  status: ('A' for Active; 'I' for Inactive)
DOCKED: REMARK    1  A    between atoms: C_1  and  N_2
DOCKED: REMARK    2  A    between atoms: N_2  and  C_3
DOCKED: REMARK    3  A    between atoms: N_2  and  C_22
DOCKED: REMARK    4  A    between atoms: C_6  and  C_9
DOCKED: REMARK    5  A    between atoms: C_9  and  C_10
DOCKED: REMARK    6  A    between atoms: C_10  and  C_11
DOCKED: REMARK    7  A    between atoms: C_10  and  C_20
DOCKED: REMARK    8  A    between atoms: C_12  and  C_13
DOCKED: REMARK    9  A    between atoms: C_12  and  C_19
DOCKED: REMARK   10  A    between atoms: C_14  and  C_15
DOCKED: REMARK   11  A    between atoms: N_16  and  O_17
DOCKED: REMARK                            x       y       z     vdW  Elec       q    Type
DOCKED: REMARK                         _______ _______ _______ _____ _____    ______ ____
DOCKED: USER                              x       y       z     vdW  Elec       q    Type
DOCKED: USER                           _______ _______ _______ _____ _____    ______ ____
DOCKED: ROOT
DOCKED: ATOM      1  C   UNL     1      20.876 -10.447  -4.608 -0.46 -0.00    +0.000 C 
DOCKED: ATOM      2  C   UNL     1      22.021 -11.275  -5.199 -0.50 -0.00    +0.000 C 
DOCKED: ENDROOT
DOCKED: BRANCH   1   3
DOCKED: ATOM      3  C   UNL     1      20.504 -10.962  -3.233 -0.42 -0.00    +0.000 C 
DOCKED: ATOM      4  C   UNL     1      20.551 -10.227  -2.104 -0.55 -0.00    +0.000 C 
DOCKED: ATOM      5  C   UNL     1      21.008  -8.784  -2.111 -0.52 -0.00    +0.000 C 
DOCKED: BRANCH   4   6
DOCKED: ATOM      6  C   UNL     1      20.199 -10.896  -0.824 -0.54 -0.00    +0.000 C 
DOCKED: ATOM      7  C   UNL     1      20.692 -10.512   0.363 -0.69 -0.00    +0.000 C 
DOCKED: BRANCH   7   8
DOCKED: ATOM      8  C   UNL     1      20.347 -11.174   1.639 -0.74 -0.00    +0.000 C 
DOCKED: ATOM      9  N   UNL     1      20.484 -10.517   2.906 -0.64 -0.00    +0.000 N 
DOCKED: ATOM     10  O   UNL     1      19.894 -12.349   1.601 -1.71 -0.00    +0.000 OA
DOCKED: ATOM     11  H   UNL     1      20.739  -9.567   2.940 -0.58 -0.00    +0.000 HD
DOCKED: BRANCH   9  12
DOCKED: ATOM     12  O   UNL     1      20.263 -11.200   4.054 -0.82 -0.00    +0.000 OA
DOCKED: ATOM     13  H   UNL     1      20.671 -12.078   3.993 -0.54 -0.00    +0.000 HD
DOCKED: ENDBRANCH   9  12
DOCKED: ENDBRANCH   7   8
DOCKED: ENDBRANCH   4   6
DOCKED: ENDBRANCH   1   3
DOCKED: BRANCH   1  14
DOCKED: ATOM     14  C   UNL     1      19.681 -10.500  -5.536 -0.36 -0.00    +0.000 C 
DOCKED: ATOM     15  O   UNL     1      19.860 -10.848  -6.737 -0.35 -0.00    +0.000 OA
DOCKED: BRANCH  14  19
DOCKED: ATOM     16  C   UNL     1      15.676  -9.494  -4.250 -0.18 -0.00    +0.000 A 
DOCKED: ATOM     17  C   UNL     1      15.936 -10.668  -4.986 -0.21 -0.00    +0.000 A 
DOCKED: ATOM     18  C   UNL     1      17.232 -10.983  -5.400 -0.23 -0.00    +0.000 A 
DOCKED: ATOM     19  C   UNL     1      18.311 -10.140  -5.087 -0.24 -0.00    +0.000 A 
DOCKED: ATOM     20  C   UNL     1      18.058  -8.963  -4.362 -0.19 -0.00    +0.000 A 
DOCKED: ATOM     21  C   UNL     1      16.761  -8.646  -3.949 -0.11 -0.00    +0.000 A 
DOCKED: BRANCH  16  23
DOCKED: ATOM     22  C   UNL     1      13.800  -7.807  -3.998 -0.11 -0.00    +0.000 C 
DOCKED: ATOM     23  N   UNL     1      14.329  -9.165  -3.820 -0.14 -0.00    +0.000 N 
DOCKED: ATOM     24  C   UNL     1      13.475 -10.183  -3.197 -0.24 -0.00    +0.000 C 
DOCKED: ENDBRANCH  16  23
DOCKED: ENDBRANCH  14  19
DOCKED: ENDBRANCH   1  14
DOCKED: TORSDOF 7
DOCKED: TER
DOCKED: ENDMDL
________________________________________________________________________________


	BEGINNING GENETIC ALGORITHM DOCKING 83 of 100
Run: 83 Seed: 194560055 1717284872 [ Run 83 of 100 GA/GALS ]
Beginning LAMARCKIAN GENETIC ALGORITHM (LGA), with a maximum of 2500000 energy evaluations.

Final-Value: -12.219


	FINAL GENETIC ALGORITHM DOCKED STATE
	_______________________________________________


Detailed state:  trans 14.808 -10.568 -0.163 quatxyzw -0.211546 0.388241 0.115247 0.889514 center 1.179 0.138 -0.353 ntor 7 -5.7212 -144.5306 -125.4985 48.1722 -75.9187 8.4560 -170.2581
State:	 14.808 -10.568  -0.163  -0.463  0.850  0.252 54.375     -5.72 -144.53 -125.50   48.17  -75.92    8.46 -170.26

DOCKED: MODEL       83
DOCKED: USER    Run = 83
DOCKED: USER    DPF = ligand_dock.biased.dpf
DOCKED: USER  
DOCKED: USER    Estimated Free Energy of Binding    =   -8.16 kcal/mol  [=(1)+(2)+(3)-(4)]
DOCKED: USER    Estimated Inhibition Constant, Ki   =    1.05 uM (micromolar)  [Temperature = 298.15 K]
DOCKED: USER    
DOCKED: USER    (1) Final Intermolecular Energy     =  -10.25 kcal/mol
DOCKED: USER        vdW + Hbond + desolv Energy     =  -10.25 kcal/mol
DOCKED: USER        Electrostatic Energy            =   +0.00 kcal/mol
DOCKED: USER    (2) Final Total Internal Energy     =   -1.97 kcal/mol
DOCKED: USER    (3) Torsional Free Energy           =   +2.09 kcal/mol
DOCKED: USER    (4) Unbound System's Energy  [=(2)] =   -1.97 kcal/mol
DOCKED: USER    
DOCKED: USER    
DOCKED: USER    NEWDPF move ligand.pdbqt
DOCKED: USER    NEWDPF about 1.179000 0.138000 -0.353000
DOCKED: USER    NEWDPF tran0 14.807920 -10.567703 -0.163097
DOCKED: USER    NEWDPF quaternion0 -0.211546 0.388241 0.115247 0.889514
DOCKED: USER    NEWDPF axisangle0 -0.462994 0.849715 0.252232 54.375470
DOCKED: USER    NEWDPF quat0 -0.462994 0.849715 0.252232 54.375470
DOCKED: USER    NEWDPF dihe0 -5.72 -144.53 -125.50 48.17 -75.92 8.46 -170.26 
DOCKED: USER  keepresnum = 1 
DOCKED: USER  
DOCKED: REMARK  Name = 
DOCKED: REMARK  11 active torsions:
DOCKED: REMARK  status: ('A' for Active; 'I' for Inactive)
DOCKED: REMARK    1  A    between atoms: C_1  and  N_2
DOCKED: REMARK    2  A    between atoms: N_2  and  C_3
DOCKED: REMARK    3  A    between atoms: N_2  and  C_22
DOCKED: REMARK    4  A    between atoms: C_6  and  C_9
DOCKED: REMARK    5  A    between atoms: C_9  and  C_10
DOCKED: REMARK    6  A    between atoms: C_10  and  C_11
DOCKED: REMARK    7  A    between atoms: C_10  and  C_20
DOCKED: REMARK    8  A    between atoms: C_12  and  C_13
DOCKED: REMARK    9  A    between atoms: C_12  and  C_19
DOCKED: REMARK   10  A    between atoms: C_14  and  C_15
DOCKED: REMARK   11  A    between atoms: N_16  and  O_17
DOCKED: REMARK                            x       y       z     vdW  Elec       q    Type
DOCKED: REMARK                         _______ _______ _______ _____ _____    ______ ____
DOCKED: USER                              x       y       z     vdW  Elec       q    Type
DOCKED: USER                           _______ _______ _______ _____ _____    ______ ____
DOCKED: ROOT
DOCKED: ATOM      1  C   UNL     1      13.242 -11.414   0.555 -0.41 +0.00    +0.000 C 
DOCKED: ATOM      2  C   UNL     1      12.097 -12.016   1.375 -0.41 +0.00    +0.000 C 
DOCKED: ENDROOT
DOCKED: BRANCH   1   3
DOCKED: ATOM      3  C   UNL     1      14.559 -11.577   1.285 -0.45 +0.00    +0.000 C 
DOCKED: ATOM      4  C   UNL     1      15.770 -11.366   0.732 -0.41 +0.00    +0.000 C 
DOCKED: ATOM      5  C   UNL     1      15.923 -10.951  -0.716 -0.34 +0.00    +0.000 C 
DOCKED: BRANCH   4   6
DOCKED: ATOM      6  C   UNL     1      16.971 -11.617   1.571 -0.46 +0.00    +0.000 C 
DOCKED: ATOM      7  C   UNL     1      18.153 -11.019   1.357 -0.51 -0.00    +0.000 C 
DOCKED: BRANCH   7   8
DOCKED: ATOM      8  C   UNL     1      19.350 -11.265   2.187 -0.69 -0.00    +0.000 C 
DOCKED: ATOM      9  N   UNL     1      19.853 -10.296   3.116 -0.62 -0.00    +0.000 N 
DOCKED: ATOM     10  O   UNL     1      19.932 -12.378   2.085 -1.70 -0.00    +0.000 OA
DOCKED: ATOM     11  H   UNL     1      19.349  -9.466   3.278 -0.42 -0.00    +0.000 HD
DOCKED: BRANCH   9  12
DOCKED: ATOM     12  O   UNL     1      21.015 -10.520   3.771 -0.70 -0.00    +0.000 OA
DOCKED: ATOM     13  H   UNL     1      21.335 -11.414   3.569 -0.53 -0.00    +0.000 HD
DOCKED: ENDBRANCH   9  12
DOCKED: ENDBRANCH   7   8
DOCKED: ENDBRANCH   4   6
DOCKED: ENDBRANCH   1   3
DOCKED: BRANCH   1  14
DOCKED: ATOM     14  C   UNL     1      12.960  -9.951   0.288 -0.21 +0.00    +0.000 C 
DOCKED: ATOM     15  O   UNL     1      12.345  -9.634  -0.768 -0.19 -0.00    +0.000 OA
DOCKED: BRANCH  14  19
DOCKED: ATOM     16  C   UNL     1      14.263  -6.802   2.951 -0.23 +0.00    +0.000 A 
DOCKED: ATOM     17  C   UNL     1      14.576  -6.775   1.577 -0.15 +0.00    +0.000 A 
DOCKED: ATOM     18  C   UNL     1      14.154  -7.798   0.725 -0.21 +0.00    +0.000 A 
DOCKED: ATOM     19  C   UNL     1      13.400  -8.876   1.216 -0.15 +0.00    +0.000 A 
DOCKED: ATOM     20  C   UNL     1      13.092  -8.914   2.587 -0.17 +0.00    +0.000 A 
DOCKED: ATOM     21  C   UNL     1      13.516  -7.892   3.441 -0.19 +0.00    +0.000 A 
DOCKED: BRANCH  16  23
DOCKED: ATOM     22  C   UNL     1      15.187  -4.465   3.292 -0.33 -0.00    +0.000 C 
DOCKED: ATOM     23  N   UNL     1      14.701  -5.739   3.837 -0.31 +0.00    +0.000 N 
DOCKED: ATOM     24  C   UNL     1      14.669  -5.920   5.294 -0.47 +0.00    +0.000 C 
DOCKED: ENDBRANCH  16  23
DOCKED: ENDBRANCH  14  19
DOCKED: ENDBRANCH   1  14
DOCKED: TORSDOF 7
DOCKED: TER
DOCKED: ENDMDL
________________________________________________________________________________


	BEGINNING GENETIC ALGORITHM DOCKING 84 of 100
Run: 84 Seed: 1581694885 2005003597 [ Run 84 of 100 GA/GALS ]
Beginning LAMARCKIAN GENETIC ALGORITHM (LGA), with a maximum of 2500000 energy evaluations.

Final-Value: -12.376


	FINAL GENETIC ALGORITHM DOCKED STATE
	_______________________________________________


Detailed state:  trans 18.902 -10.423 3.435 quatxyzw 0.285955 0.916841 -0.251316 0.120307 center 1.179 0.138 -0.353 ntor 7 3.2488 -80.2281 168.1978 155.9569 -3.5175 -106.2391 131.5769
State:	 18.902 -10.423   3.435   0.288  0.924 -0.253 166.180      3.25  -80.23  168.20  155.96   -3.52 -106.24  131.58

DOCKED: MODEL       84
DOCKED: USER    Run = 84
DOCKED: USER    DPF = ligand_dock.biased.dpf
DOCKED: USER  
DOCKED: USER    Estimated Free Energy of Binding    =   -9.15 kcal/mol  [=(1)+(2)+(3)-(4)]
DOCKED: USER    Estimated Inhibition Constant, Ki   =  196.10 nM (nanomolar)  [Temperature = 298.15 K]
DOCKED: USER    
DOCKED: USER    (1) Final Intermolecular Energy     =  -11.24 kcal/mol
DOCKED: USER        vdW + Hbond + desolv Energy     =  -11.24 kcal/mol
DOCKED: USER        Electrostatic Energy            =   +0.00 kcal/mol
DOCKED: USER    (2) Final Total Internal Energy     =   -1.14 kcal/mol
DOCKED: USER    (3) Torsional Free Energy           =   +2.09 kcal/mol
DOCKED: USER    (4) Unbound System's Energy  [=(2)] =   -1.14 kcal/mol
DOCKED: USER    
DOCKED: USER    
DOCKED: USER    NEWDPF move ligand.pdbqt
DOCKED: USER    NEWDPF about 1.179000 0.138000 -0.353000
DOCKED: USER    NEWDPF tran0 18.902350 -10.423230 3.434746
DOCKED: USER    NEWDPF quaternion0 0.285955 0.916841 -0.251316 0.120307
DOCKED: USER    NEWDPF axisangle0 0.288047 0.923549 -0.253155 166.180381
DOCKED: USER    NEWDPF quat0 0.288047 0.923549 -0.253155 166.180381
DOCKED: USER    NEWDPF dihe0 3.25 -80.23 168.20 155.96 -3.52 -106.24 131.58 
DOCKED: USER  keepresnum = 1 
DOCKED: USER  
DOCKED: REMARK  Name = 
DOCKED: REMARK  11 active torsions:
DOCKED: REMARK  status: ('A' for Active; 'I' for Inactive)
DOCKED: REMARK    1  A    between atoms: C_1  and  N_2
DOCKED: REMARK    2  A    between atoms: N_2  and  C_3
DOCKED: REMARK    3  A    between atoms: N_2  and  C_22
DOCKED: REMARK    4  A    between atoms: C_6  and  C_9
DOCKED: REMARK    5  A    between atoms: C_9  and  C_10
DOCKED: REMARK    6  A    between atoms: C_10  and  C_11
DOCKED: REMARK    7  A    between atoms: C_10  and  C_20
DOCKED: REMARK    8  A    between atoms: C_12  and  C_13
DOCKED: REMARK    9  A    between atoms: C_12  and  C_19
DOCKED: REMARK   10  A    between atoms: C_14  and  C_15
DOCKED: REMARK   11  A    between atoms: N_16  and  O_17
DOCKED: REMARK                            x       y       z     vdW  Elec       q    Type
DOCKED: REMARK                         _______ _______ _______ _____ _____    ______ ____
DOCKED: USER                              x       y       z     vdW  Elec       q    Type
DOCKED: USER                           _______ _______ _______ _____ _____    ______ ____
DOCKED: ROOT
DOCKED: ATOM      1  C   UNL     1      18.236 -11.646   2.114 -0.46 -0.00    +0.000 C 
DOCKED: ATOM      2  C   UNL     1      17.609 -12.393   0.933 -0.54 +0.00    +0.000 C 
DOCKED: ENDROOT
DOCKED: BRANCH   1   3
DOCKED: ATOM      3  C   UNL     1      17.386 -10.453   2.497 -0.50 +0.00    +0.000 C 
DOCKED: ATOM      4  C   UNL     1      16.067 -10.512   2.772 -0.47 +0.00    +0.000 C 
DOCKED: ATOM      5  C   UNL     1      15.296 -11.813   2.703 -0.50 +0.00    +0.000 C 
DOCKED: BRANCH   4   6
DOCKED: ATOM      6  C   UNL     1      15.364  -9.240   3.086 -0.39 +0.00    +0.000 C 
DOCKED: ATOM      7  C   UNL     1      15.843  -8.332   3.950 -0.28 +0.00    +0.000 C 
DOCKED: BRANCH   7   8
DOCKED: ATOM      8  C   UNL     1      15.149  -7.067   4.267 -0.42 +0.00    +0.000 C 
DOCKED: ATOM      9  N   UNL     1      15.738  -6.054   5.092 -0.48 +0.00    +0.000 N 
DOCKED: ATOM     10  O   UNL     1      14.008  -6.868   3.770 -0.27 +0.00    +0.000 OA
DOCKED: ATOM     11  H   UNL     1      16.668  -6.152   5.401 -0.61 -0.00    +0.000 HD
DOCKED: BRANCH   9  12
DOCKED: ATOM     12  O   UNL     1      15.021  -4.962   5.446 -0.55 +0.00    +0.000 OA
DOCKED: ATOM     13  H   UNL     1      14.117  -5.043   5.105 -0.00 +0.00    +0.000 HD
DOCKED: ENDBRANCH   9  12
DOCKED: ENDBRANCH   7   8
DOCKED: ENDBRANCH   4   6
DOCKED: ENDBRANCH   1   3
DOCKED: BRANCH   1  14
DOCKED: ATOM     14  C   UNL     1      19.637 -11.204   1.747 -0.70 -0.00    +0.000 C 
DOCKED: ATOM     15  O   UNL     1      20.504 -11.115   2.661 -0.98 -0.00    +0.000 OA
DOCKED: BRANCH  14  19
DOCKED: ATOM     16  C   UNL     1      20.798 -10.194  -2.295 -0.50 -0.00    +0.000 A 
DOCKED: ATOM     17  C   UNL     1      21.759 -10.524  -1.318 -0.43 -0.00    +0.000 A 
DOCKED: ATOM     18  C   UNL     1      21.375 -10.846  -0.014 -0.55 -0.00    +0.000 A 
DOCKED: ATOM     19  C   UNL     1      20.020 -10.855   0.354 -0.57 -0.00    +0.000 A 
DOCKED: ATOM     20  C   UNL     1      19.057 -10.518  -0.613 -0.37 -0.00    +0.000 A 
DOCKED: ATOM     21  C   UNL     1      19.440 -10.194  -1.918 -0.33 -0.00    +0.000 A 
DOCKED: BRANCH  16  23
DOCKED: ATOM     22  C   UNL     1      21.540 -10.916  -4.609 -0.53 -0.00    +0.000 C 
DOCKED: ATOM     23  N   UNL     1      21.196  -9.860  -3.650 -0.44 -0.00    +0.000 N 
DOCKED: ATOM     24  C   UNL     1      21.264  -8.459  -4.084 -0.36 -0.00    +0.000 C 
DOCKED: ENDBRANCH  16  23
DOCKED: ENDBRANCH  14  19
DOCKED: ENDBRANCH   1  14
DOCKED: TORSDOF 7
DOCKED: TER
DOCKED: ENDMDL
________________________________________________________________________________


	BEGINNING GENETIC ALGORITHM DOCKING 85 of 100
Run: 85 Seed: 1225178808 1678931039 [ Run 85 of 100 GA/GALS ]
Beginning LAMARCKIAN GENETIC ALGORITHM (LGA), with a maximum of 2500000 energy evaluations.

Final-Value: -13.521


	FINAL GENETIC ALGORITHM DOCKED STATE
	_______________________________________________


Detailed state:  trans 20.544 -8.950 -3.130 quatxyzw 0.603605 -0.637150 0.409947 -0.248284 center 1.179 0.138 -0.353 ntor 7 33.3235 -156.6746 -138.2716 -50.0101 67.3822 -0.6600 165.7290
State:	 20.544  -8.950  -3.130   0.623 -0.658  0.423 -151.248     33.32 -156.67 -138.27  -50.01   67.38   -0.66  165.73

DOCKED: MODEL       85
DOCKED: USER    Run = 85
DOCKED: USER    DPF = ligand_dock.biased.dpf
DOCKED: USER  
DOCKED: USER    Estimated Free Energy of Binding    =   -9.83 kcal/mol  [=(1)+(2)+(3)-(4)]
DOCKED: USER    Estimated Inhibition Constant, Ki   =   61.81 nM (nanomolar)  [Temperature = 298.15 K]
DOCKED: USER    
DOCKED: USER    (1) Final Intermolecular Energy     =  -11.92 kcal/mol
DOCKED: USER        vdW + Hbond + desolv Energy     =  -11.92 kcal/mol
DOCKED: USER        Electrostatic Energy            =   +0.00 kcal/mol
DOCKED: USER    (2) Final Total Internal Energy     =   -1.60 kcal/mol
DOCKED: USER    (3) Torsional Free Energy           =   +2.09 kcal/mol
DOCKED: USER    (4) Unbound System's Energy  [=(2)] =   -1.60 kcal/mol
DOCKED: USER    
DOCKED: USER    
DOCKED: USER    NEWDPF move ligand.pdbqt
DOCKED: USER    NEWDPF about 1.179000 0.138000 -0.353000
DOCKED: USER    NEWDPF tran0 20.543714 -8.950405 -3.130121
DOCKED: USER    NEWDPF quaternion0 0.603605 -0.637150 0.409947 -0.248284
DOCKED: USER    NEWDPF axisangle0 0.623116 -0.657746 0.423198 -151.247982
DOCKED: USER    NEWDPF quat0 0.623116 -0.657746 0.423198 -151.247982
DOCKED: USER    NEWDPF dihe0 33.32 -156.67 -138.27 -50.01 67.38 -0.66 165.73 
DOCKED: USER  keepresnum = 1 
DOCKED: USER  
DOCKED: REMARK  Name = 
DOCKED: REMARK  11 active torsions:
DOCKED: REMARK  status: ('A' for Active; 'I' for Inactive)
DOCKED: REMARK    1  A    between atoms: C_1  and  N_2
DOCKED: REMARK    2  A    between atoms: N_2  and  C_3
DOCKED: REMARK    3  A    between atoms: N_2  and  C_22
DOCKED: REMARK    4  A    between atoms: C_6  and  C_9
DOCKED: REMARK    5  A    between atoms: C_9  and  C_10
DOCKED: REMARK    6  A    between atoms: C_10  and  C_11
DOCKED: REMARK    7  A    between atoms: C_10  and  C_20
DOCKED: REMARK    8  A    between atoms: C_12  and  C_13
DOCKED: REMARK    9  A    between atoms: C_12  and  C_19
DOCKED: REMARK   10  A    between atoms: C_14  and  C_15
DOCKED: REMARK   11  A    between atoms: N_16  and  O_17
DOCKED: REMARK                            x       y       z     vdW  Elec       q    Type
DOCKED: REMARK                         _______ _______ _______ _____ _____    ______ ____
DOCKED: USER                              x       y       z     vdW  Elec       q    Type
DOCKED: USER                           _______ _______ _______ _____ _____    ______ ____
DOCKED: ROOT
DOCKED: ATOM      1  C   UNL     1      21.378 -10.273  -4.244 -0.49 -0.00    +0.000 C 
DOCKED: ATOM      2  C   UNL     1      21.843 -11.497  -5.038 -0.53 -0.00    +0.000 C 
DOCKED: ENDROOT
DOCKED: BRANCH   1   3
DOCKED: ATOM      3  C   UNL     1      20.840 -10.692  -2.892 -0.49 -0.00    +0.000 C 
DOCKED: ATOM      4  C   UNL     1      20.738  -9.876  -1.823 -0.58 -0.00    +0.000 C 
DOCKED: ATOM      5  C   UNL     1      21.182  -8.430  -1.880 -0.51 -0.00    +0.000 C 
DOCKED: BRANCH   4   6
DOCKED: ATOM      6  C   UNL     1      20.232 -10.455  -0.551 -0.61 -0.00    +0.000 C 
DOCKED: ATOM      7  C   UNL     1      21.020 -10.701   0.507 -0.69 -0.00    +0.000 C 
DOCKED: BRANCH   7   8
DOCKED: ATOM      8  C   UNL     1      20.524 -11.277   1.774 -0.75 -0.00    +0.000 C 
DOCKED: ATOM      9  N   UNL     1      20.641 -10.591   3.027 -0.64 -0.00    +0.000 N 
DOCKED: ATOM     10  O   UNL     1      19.957 -12.402   1.739 -1.74 -0.00    +0.000 OA
DOCKED: ATOM     11  H   UNL     1      20.988  -9.670   3.051 -0.60 -0.00    +0.000 HD
DOCKED: BRANCH   9  12
DOCKED: ATOM     12  O   UNL     1      20.274 -11.206   4.176 -0.79 -0.00    +0.000 OA
DOCKED: ATOM     13  H   UNL     1      20.461 -12.156   4.110 -0.39 -0.00    +0.000 HD
DOCKED: ENDBRANCH   9  12
DOCKED: ENDBRANCH   7   8
DOCKED: ENDBRANCH   4   6
DOCKED: ENDBRANCH   1   3
DOCKED: BRANCH   1  14
DOCKED: ATOM     14  C   UNL     1      20.318  -9.531  -5.030 -0.30 -0.00    +0.000 C 
DOCKED: ATOM     15  O   UNL     1      20.569  -8.360  -5.431 -0.18 -0.00    +0.000 OA
DOCKED: BRANCH  14  19
DOCKED: ATOM     16  C   UNL     1      16.471 -11.283  -5.941 -0.27 -0.00    +0.000 A 
DOCKED: ATOM     17  C   UNL     1      17.572 -11.446  -6.806 -0.33 -0.00    +0.000 A 
DOCKED: ATOM     18  C   UNL     1      18.810 -10.873  -6.504 -0.32 -0.00    +0.000 A 
DOCKED: ATOM     19  C   UNL     1      18.990 -10.126  -5.329 -0.26 -0.00    +0.000 A 
DOCKED: ATOM     20  C   UNL     1      17.893  -9.952  -4.468 -0.24 -0.00    +0.000 A 
DOCKED: ATOM     21  C   UNL     1      16.652 -10.523  -4.769 -0.21 -0.00    +0.000 A 
DOCKED: BRANCH  16  23
DOCKED: ATOM     22  C   UNL     1      15.018 -12.715  -7.447 -0.41 -0.00    +0.000 C 
DOCKED: ATOM     23  N   UNL     1      15.183 -11.877  -6.253 -0.30 -0.00    +0.000 N 
DOCKED: ATOM     24  C   UNL     1      14.024 -11.648  -5.382 -0.29 -0.00    +0.000 C 
DOCKED: ENDBRANCH  16  23
DOCKED: ENDBRANCH  14  19
DOCKED: ENDBRANCH   1  14
DOCKED: TORSDOF 7
DOCKED: TER
DOCKED: ENDMDL
________________________________________________________________________________


	BEGINNING GENETIC ALGORITHM DOCKING 86 of 100
Run: 86 Seed: 763429960 36351835 [ Run 86 of 100 GA/GALS ]
Beginning LAMARCKIAN GENETIC ALGORITHM (LGA), with a maximum of 2500000 energy evaluations.

Final-Value: -12.274


	FINAL GENETIC ALGORITHM DOCKED STATE
	_______________________________________________


Detailed state:  trans 19.403 -8.773 -3.996 quatxyzw 0.654244 0.182140 0.433066 -0.592659 center 1.179 0.138 -0.353 ntor 7 -7.6259 -49.6698 134.5089 156.8897 -33.8297 -48.1502 180.0000
State:	 19.403  -8.773  -3.996   0.812  0.226  0.538 -107.308     -7.63  -49.67  134.51  156.89  -33.83  -48.15  180.00

DOCKED: MODEL       86
DOCKED: USER    Run = 86
DOCKED: USER    DPF = ligand_dock.biased.dpf
DOCKED: USER  
DOCKED: USER    Estimated Free Energy of Binding    =   -8.54 kcal/mol  [=(1)+(2)+(3)-(4)]
DOCKED: USER    Estimated Inhibition Constant, Ki   =  551.23 nM (nanomolar)  [Temperature = 298.15 K]
DOCKED: USER    
DOCKED: USER    (1) Final Intermolecular Energy     =  -10.63 kcal/mol
DOCKED: USER        vdW + Hbond + desolv Energy     =  -10.63 kcal/mol
DOCKED: USER        Electrostatic Energy            =   +0.00 kcal/mol
DOCKED: USER    (2) Final Total Internal Energy     =   -1.65 kcal/mol
DOCKED: USER    (3) Torsional Free Energy           =   +2.09 kcal/mol
DOCKED: USER    (4) Unbound System's Energy  [=(2)] =   -1.65 kcal/mol
DOCKED: USER    
DOCKED: USER    
DOCKED: USER    NEWDPF move ligand.pdbqt
DOCKED: USER    NEWDPF about 1.179000 0.138000 -0.353000
DOCKED: USER    NEWDPF tran0 19.403427 -8.773178 -3.995772
DOCKED: USER    NEWDPF quaternion0 0.654244 0.182140 0.433066 -0.592659
DOCKED: USER    NEWDPF axisangle0 0.812268 0.226133 0.537667 -107.308181
DOCKED: USER    NEWDPF quat0 0.812268 0.226133 0.537667 -107.308181
DOCKED: USER    NEWDPF dihe0 -7.63 -49.67 134.51 156.89 -33.83 -48.15 180.00 
DOCKED: USER  keepresnum = 1 
DOCKED: USER  
DOCKED: REMARK  Name = 
DOCKED: REMARK  11 active torsions:
DOCKED: REMARK  status: ('A' for Active; 'I' for Inactive)
DOCKED: REMARK    1  A    between atoms: C_1  and  N_2
DOCKED: REMARK    2  A    between atoms: N_2  and  C_3
DOCKED: REMARK    3  A    between atoms: N_2  and  C_22
DOCKED: REMARK    4  A    between atoms: C_6  and  C_9
DOCKED: REMARK    5  A    between atoms: C_9  and  C_10
DOCKED: REMARK    6  A    between atoms: C_10  and  C_11
DOCKED: REMARK    7  A    between atoms: C_10  and  C_20
DOCKED: REMARK    8  A    between atoms: C_12  and  C_13
DOCKED: REMARK    9  A    between atoms: C_12  and  C_19
DOCKED: REMARK   10  A    between atoms: C_14  and  C_15
DOCKED: REMARK   11  A    between atoms: N_16  and  O_17
DOCKED: REMARK                            x       y       z     vdW  Elec       q    Type
DOCKED: REMARK                         _______ _______ _______ _____ _____    ______ ____
DOCKED: USER                              x       y       z     vdW  Elec       q    Type
DOCKED: USER                           _______ _______ _______ _____ _____    ______ ____
DOCKED: ROOT
DOCKED: ATOM      1  C   UNL     1      20.817 -10.008  -4.397 -0.43 -0.00    +0.000 C 
DOCKED: ATOM      2  C   UNL     1      22.048 -10.917  -4.470 -0.31 -0.00    +0.000 C 
DOCKED: ENDROOT
DOCKED: BRANCH   1   3
DOCKED: ATOM      3  C   UNL     1      21.161  -8.705  -3.705 -0.40 -0.00    +0.000 C 
DOCKED: ATOM      4  C   UNL     1      21.209  -7.504  -4.318 -0.30 -0.00    +0.000 C 
DOCKED: ATOM      5  C   UNL     1      20.931  -7.354  -5.798 -0.15 -0.00    +0.000 C 
DOCKED: BRANCH   4   6
DOCKED: ATOM      6  C   UNL     1      21.611  -6.325  -3.507 -0.32 -0.00    +0.000 C 
DOCKED: ATOM      7  C   UNL     1      21.111  -6.069  -2.288 -0.45 -0.00    +0.000 C 
DOCKED: BRANCH   7   8
DOCKED: ATOM      8  C   UNL     1      21.506  -4.899  -1.478 -0.39 +0.00    +0.000 C 
DOCKED: ATOM      9  N   UNL     1      20.632  -4.306  -0.508 -0.47 +0.00    +0.000 N 
DOCKED: ATOM     10  O   UNL     1      22.663  -4.424  -1.634 -0.83 +0.00    +0.000 OA
DOCKED: ATOM     11  H   UNL     1      19.767  -4.730  -0.304 -0.08 +0.00    +0.000 HD
DOCKED: BRANCH   9  12
DOCKED: ATOM     12  O   UNL     1      20.995  -3.169   0.130 -0.94 +0.00    +0.000 OA
DOCKED: ATOM     13  H   UNL     1      21.914  -2.951  -0.092 -0.03 +0.00    +0.000 HD
DOCKED: ENDBRANCH   9  12
DOCKED: ENDBRANCH   7   8
DOCKED: ENDBRANCH   4   6
DOCKED: ENDBRANCH   1   3
DOCKED: BRANCH   1  14
DOCKED: ATOM     14  C   UNL     1      19.703 -10.722  -3.661 -0.45 -0.00    +0.000 C 
DOCKED: ATOM     15  O   UNL     1      18.772 -11.246  -4.333 -0.39 -0.00    +0.000 OA
DOCKED: BRANCH  14  19
DOCKED: ATOM     16  C   UNL     1      19.531 -10.991   0.651 -0.55 -0.00    +0.000 A 
DOCKED: ATOM     17  C   UNL     1      18.433 -11.365  -0.150 -0.44 -0.00    +0.000 A 
DOCKED: ATOM     18  C   UNL     1      18.497 -11.271  -1.542 -0.31 -0.00    +0.000 A 
DOCKED: ATOM     19  C   UNL     1      19.660 -10.809  -2.178 -0.39 -0.00    +0.000 A 
DOCKED: ATOM     20  C   UNL     1      20.755 -10.425  -1.385 -0.54 -0.00    +0.000 A 
DOCKED: ATOM     21  C   UNL     1      20.692 -10.517   0.009 -0.61 -0.00    +0.000 A 
DOCKED: BRANCH  16  23
DOCKED: ATOM     22  C   UNL     1      20.254 -12.098   2.815 -0.72 -0.00    +0.000 C 
DOCKED: ATOM     23  N   UNL     1      19.466 -11.088   2.099 -0.59 -0.00    +0.000 N 
DOCKED: ATOM     24  C   UNL     1      18.611 -10.178   2.870 -0.56 -0.00    +0.000 C 
DOCKED: ENDBRANCH  16  23
DOCKED: ENDBRANCH  14  19
DOCKED: ENDBRANCH   1  14
DOCKED: TORSDOF 7
DOCKED: TER
DOCKED: ENDMDL
________________________________________________________________________________


	BEGINNING GENETIC ALGORITHM DOCKING 87 of 100
Run: 87 Seed: 223031619 1219691638 [ Run 87 of 100 GA/GALS ]
Beginning LAMARCKIAN GENETIC ALGORITHM (LGA), with a maximum of 2500000 energy evaluations.

Final-Value: -12.310


	FINAL GENETIC ALGORITHM DOCKED STATE
	_______________________________________________


Detailed state:  trans 16.008 -11.505 -1.748 quatxyzw 0.161662 0.424260 0.165947 0.875403 center 1.179 0.138 -0.353 ntor 7 -4.0378 -174.4434 -151.0566 179.8168 -137.7721 -41.5549 -45.0708
State:	 16.008 -11.505  -1.748   0.334  0.878  0.343 57.815     -4.04 -174.44 -151.06  179.82 -137.77  -41.55  -45.07

DOCKED: MODEL       87
DOCKED: USER    Run = 87
DOCKED: USER    DPF = ligand_dock.biased.dpf
DOCKED: USER  
DOCKED: USER    Estimated Free Energy of Binding    =   -8.47 kcal/mol  [=(1)+(2)+(3)-(4)]
DOCKED: USER    Estimated Inhibition Constant, Ki   =  618.70 nM (nanomolar)  [Temperature = 298.15 K]
DOCKED: USER    
DOCKED: USER    (1) Final Intermolecular Energy     =  -10.56 kcal/mol
DOCKED: USER        vdW + Hbond + desolv Energy     =  -10.56 kcal/mol
DOCKED: USER        Electrostatic Energy            =   +0.00 kcal/mol
DOCKED: USER    (2) Final Total Internal Energy     =   -1.75 kcal/mol
DOCKED: USER    (3) Torsional Free Energy           =   +2.09 kcal/mol
DOCKED: USER    (4) Unbound System's Energy  [=(2)] =   -1.75 kcal/mol
DOCKED: USER    
DOCKED: USER    
DOCKED: USER    NEWDPF move ligand.pdbqt
DOCKED: USER    NEWDPF about 1.179000 0.138000 -0.353000
DOCKED: USER    NEWDPF tran0 16.007602 -11.505299 -1.747757
DOCKED: USER    NEWDPF quaternion0 0.161662 0.424260 0.165947 0.875403
DOCKED: USER    NEWDPF axisangle0 0.334432 0.877669 0.343295 57.814556
DOCKED: USER    NEWDPF quat0 0.334432 0.877669 0.343295 57.814556
DOCKED: USER    NEWDPF dihe0 -4.04 -174.44 -151.06 179.82 -137.77 -41.55 -45.07 
DOCKED: USER  keepresnum = 1 
DOCKED: USER  
DOCKED: REMARK  Name = 
DOCKED: REMARK  11 active torsions:
DOCKED: REMARK  status: ('A' for Active; 'I' for Inactive)
DOCKED: REMARK    1  A    between atoms: C_1  and  N_2
DOCKED: REMARK    2  A    between atoms: N_2  and  C_3
DOCKED: REMARK    3  A    between atoms: N_2  and  C_22
DOCKED: REMARK    4  A    between atoms: C_6  and  C_9
DOCKED: REMARK    5  A    between atoms: C_9  and  C_10
DOCKED: REMARK    6  A    between atoms: C_10  and  C_11
DOCKED: REMARK    7  A    between atoms: C_10  and  C_20
DOCKED: REMARK    8  A    between atoms: C_12  and  C_13
DOCKED: REMARK    9  A    between atoms: C_12  and  C_19
DOCKED: REMARK   10  A    between atoms: C_14  and  C_15
DOCKED: REMARK   11  A    between atoms: N_16  and  O_17
DOCKED: REMARK                            x       y       z     vdW  Elec       q    Type
DOCKED: REMARK                         _______ _______ _______ _____ _____    ______ ____
DOCKED: USER                              x       y       z     vdW  Elec       q    Type
DOCKED: USER                           _______ _______ _______ _____ _____    ______ ____
DOCKED: ROOT
DOCKED: ATOM      1  C   UNL     1      14.373 -11.110  -0.822 -0.35 +0.00    +0.000 C 
DOCKED: ATOM      2  C   UNL     1      13.230 -10.638   0.082 -0.30 +0.00    +0.000 C 
DOCKED: ENDROOT
DOCKED: BRANCH   1   3
DOCKED: ATOM      3  C   UNL     1      15.640 -11.308  -0.014 -0.38 +0.00    +0.000 C 
DOCKED: ATOM      4  C   UNL     1      16.277 -12.488   0.130 -0.53 +0.00    +0.000 C 
DOCKED: ATOM      5  C   UNL     1      15.756 -13.758  -0.509 -0.56 +0.00    +0.000 C 
DOCKED: BRANCH   4   6
DOCKED: ATOM      6  C   UNL     1      17.484 -12.525   0.997 -0.49 +0.00    +0.000 C 
DOCKED: ATOM      7  C   UNL     1      18.227 -11.442   1.265 -0.54 -0.00    +0.000 C 
DOCKED: BRANCH   7   8
DOCKED: ATOM      8  C   UNL     1      19.428 -11.472   2.125 -0.70 -0.00    +0.000 C 
DOCKED: ATOM      9  N   UNL     1      19.655 -10.509   3.162 -0.65 -0.00    +0.000 N 
DOCKED: ATOM     10  O   UNL     1      20.267 -12.396   1.950 -1.67 -0.00    +0.000 OA
DOCKED: ATOM     11  H   UNL     1      18.959  -9.845   3.375 -0.09 -0.00    +0.000 HD
DOCKED: BRANCH   9  12
DOCKED: ATOM     12  O   UNL     1      20.822 -10.510   3.848 -0.76 -0.00    +0.000 OA
DOCKED: ATOM     13  H   UNL     1      21.366 -11.260   3.562 -0.50 -0.00    +0.000 HD
DOCKED: ENDBRANCH   9  12
DOCKED: ENDBRANCH   7   8
DOCKED: ENDBRANCH   4   6
DOCKED: ENDBRANCH   1   3
DOCKED: BRANCH   1  14
DOCKED: ATOM     14  C   UNL     1      14.599 -10.097  -1.924 -0.28 -0.00    +0.000 C 
DOCKED: ATOM     15  O   UNL     1      14.414  -8.874  -1.671 -0.22 -0.00    +0.000 OA
DOCKED: BRANCH  14  19
DOCKED: ATOM     16  C   UNL     1      15.760 -11.280  -5.919 -0.26 -0.00    +0.000 A 
DOCKED: ATOM     17  C   UNL     1      14.510 -11.647  -5.380 -0.27 -0.00    +0.000 A 
DOCKED: ATOM     18  C   UNL     1      14.145 -11.263  -4.088 -0.25 -0.00    +0.000 A 
DOCKED: ATOM     19  C   UNL     1      15.013 -10.495  -3.295 -0.25 -0.00    +0.000 A 
DOCKED: ATOM     20  C   UNL     1      16.265 -10.133  -3.822 -0.22 -0.00    +0.000 A 
DOCKED: ATOM     21  C   UNL     1      16.632 -10.519  -5.115 -0.22 -0.00    +0.000 A 
DOCKED: BRANCH  16  23
DOCKED: ATOM     22  C   UNL     1      15.395 -12.729  -7.967 -0.43 +0.00    +0.000 C 
DOCKED: ATOM     23  N   UNL     1      16.140 -11.679  -7.262 -0.33 -0.00    +0.000 N 
DOCKED: ATOM     24  C   UNL     1      17.277 -11.041  -7.937 -0.30 -0.00    +0.000 C 
DOCKED: ENDBRANCH  16  23
DOCKED: ENDBRANCH  14  19
DOCKED: ENDBRANCH   1  14
DOCKED: TORSDOF 7
DOCKED: TER
DOCKED: ENDMDL
________________________________________________________________________________


	BEGINNING GENETIC ALGORITHM DOCKING 88 of 100
Run: 88 Seed: 1131210573 1564989079 [ Run 88 of 100 GA/GALS ]
Beginning LAMARCKIAN GENETIC ALGORITHM (LGA), with a maximum of 2500000 energy evaluations.

Final-Value: -13.167


	FINAL GENETIC ALGORITHM DOCKED STATE
	_______________________________________________


Detailed state:  trans 19.328 -9.568 -2.923 quatxyzw 0.813221 -0.314719 0.453304 -0.184767 center 1.179 0.138 -0.353 ntor 7 7.9467 127.8282 57.6264 136.7028 101.5246 -42.4744 -89.1983
State:	 19.328  -9.568  -2.923   0.827 -0.320  0.461 -158.705      7.95  127.83   57.63  136.70  101.52  -42.47  -89.20

DOCKED: MODEL       88
DOCKED: USER    Run = 88
DOCKED: USER    DPF = ligand_dock.biased.dpf
DOCKED: USER  
DOCKED: USER    Estimated Free Energy of Binding    =   -9.31 kcal/mol  [=(1)+(2)+(3)-(4)]
DOCKED: USER    Estimated Inhibition Constant, Ki   =  150.60 nM (nanomolar)  [Temperature = 298.15 K]
DOCKED: USER    
DOCKED: USER    (1) Final Intermolecular Energy     =  -11.40 kcal/mol
DOCKED: USER        vdW + Hbond + desolv Energy     =  -11.40 kcal/mol
DOCKED: USER        Electrostatic Energy            =   +0.00 kcal/mol
DOCKED: USER    (2) Final Total Internal Energy     =   -1.77 kcal/mol
DOCKED: USER    (3) Torsional Free Energy           =   +2.09 kcal/mol
DOCKED: USER    (4) Unbound System's Energy  [=(2)] =   -1.77 kcal/mol
DOCKED: USER    
DOCKED: USER    
DOCKED: USER    NEWDPF move ligand.pdbqt
DOCKED: USER    NEWDPF about 1.179000 0.138000 -0.353000
DOCKED: USER    NEWDPF tran0 19.327672 -9.567769 -2.923450
DOCKED: USER    NEWDPF quaternion0 0.813221 -0.314719 0.453304 -0.184767
DOCKED: USER    NEWDPF axisangle0 0.827468 -0.320233 0.461246 -158.704877
DOCKED: USER    NEWDPF quat0 0.827468 -0.320233 0.461246 -158.704877
DOCKED: USER    NEWDPF dihe0 7.95 127.83 57.63 136.70 101.52 -42.47 -89.20 
DOCKED: USER  keepresnum = 1 
DOCKED: USER  
DOCKED: REMARK  Name = 
DOCKED: REMARK  11 active torsions:
DOCKED: REMARK  status: ('A' for Active; 'I' for Inactive)
DOCKED: REMARK    1  A    between atoms: C_1  and  N_2
DOCKED: REMARK    2  A    between atoms: N_2  and  C_3
DOCKED: REMARK    3  A    between atoms: N_2  and  C_22
DOCKED: REMARK    4  A    between atoms: C_6  and  C_9
DOCKED: REMARK    5  A    between atoms: C_9  and  C_10
DOCKED: REMARK    6  A    between atoms: C_10  and  C_11
DOCKED: REMARK    7  A    between atoms: C_10  and  C_20
DOCKED: REMARK    8  A    between atoms: C_12  and  C_13
DOCKED: REMARK    9  A    between atoms: C_12  and  C_19
DOCKED: REMARK   10  A    between atoms: C_14  and  C_15
DOCKED: REMARK   11  A    between atoms: N_16  and  O_17
DOCKED: REMARK                            x       y       z     vdW  Elec       q    Type
DOCKED: REMARK                         _______ _______ _______ _____ _____    ______ ____
DOCKED: USER                              x       y       z     vdW  Elec       q    Type
DOCKED: USER                           _______ _______ _______ _____ _____    ______ ____
DOCKED: ROOT
DOCKED: ATOM      1  C   UNL     1      20.685 -10.198  -4.126 -0.45 -0.00    +0.000 C 
DOCKED: ATOM      2  C   UNL     1      21.753 -10.937  -4.938 -0.52 -0.00    +0.000 C 
DOCKED: ENDROOT
DOCKED: BRANCH   1   3
DOCKED: ATOM      3  C   UNL     1      20.768 -10.586  -2.664 -0.52 -0.00    +0.000 C 
DOCKED: ATOM      4  C   UNL     1      21.061  -9.731  -1.663 -0.62 -0.00    +0.000 C 
DOCKED: ATOM      5  C   UNL     1      21.356  -8.269  -1.924 -0.50 -0.00    +0.000 C 
DOCKED: BRANCH   4   6
DOCKED: ATOM      6  C   UNL     1      21.152 -10.280  -0.284 -0.71 -0.00    +0.000 C 
DOCKED: ATOM      7  C   UNL     1      20.097 -10.778   0.377 -0.65 -0.00    +0.000 C 
DOCKED: BRANCH   7   8
DOCKED: ATOM      8  C   UNL     1      20.180 -11.324   1.748 -0.75 -0.00    +0.000 C 
DOCKED: ATOM      9  N   UNL     1      20.290 -10.484   2.904 -0.64 -0.00    +0.000 N 
DOCKED: ATOM     10  O   UNL     1      20.129 -12.574   1.899 -1.57 -0.00    +0.000 OA
DOCKED: ATOM     11  H   UNL     1      20.228  -9.506   2.807 -0.55 -0.00    +0.000 HD
DOCKED: BRANCH   9  12
DOCKED: ATOM     12  O   UNL     1      20.477 -11.031   4.128 -0.75 -0.00    +0.000 OA
DOCKED: ATOM     13  H   UNL     1      20.640 -11.983   4.036 -0.53 -0.00    +0.000 HD
DOCKED: ENDBRANCH   9  12
DOCKED: ENDBRANCH   7   8
DOCKED: ENDBRANCH   4   6
DOCKED: ENDBRANCH   1   3
DOCKED: BRANCH   1  14
DOCKED: ATOM     14  C   UNL     1      19.313 -10.518  -4.683 -0.38 -0.00    +0.000 C 
DOCKED: ATOM     15  O   UNL     1      19.233 -11.129  -5.784 -0.42 -0.00    +0.000 OA
DOCKED: BRANCH  14  19
DOCKED: ATOM     16  C   UNL     1      15.688  -9.386  -2.615 -0.20 -0.00    +0.000 A 
DOCKED: ATOM     17  C   UNL     1      16.681 -10.160  -1.981 -0.18 -0.00    +0.000 A 
DOCKED: ATOM     18  C   UNL     1      17.847 -10.523  -2.658 -0.21 -0.00    +0.000 A 
DOCKED: ATOM     19  C   UNL     1      18.062 -10.120  -3.986 -0.26 -0.00    +0.000 A 
DOCKED: ATOM     20  C   UNL     1      17.071  -9.357  -4.627 -0.18 -0.00    +0.000 A 
DOCKED: ATOM     21  C   UNL     1      15.903  -8.994  -3.951 -0.17 -0.00    +0.000 A 
DOCKED: BRANCH  16  23
DOCKED: ATOM     22  C   UNL     1      13.434 -10.005  -1.630 -0.25 -0.00    +0.000 C 
DOCKED: ATOM     23  N   UNL     1      14.475  -9.008  -1.912 -0.19 -0.00    +0.000 N 
DOCKED: ATOM     24  C   UNL     1      14.266  -7.623  -1.474 -0.20 -0.00    +0.000 C 
DOCKED: ENDBRANCH  16  23
DOCKED: ENDBRANCH  14  19
DOCKED: ENDBRANCH   1  14
DOCKED: TORSDOF 7
DOCKED: TER
DOCKED: ENDMDL
________________________________________________________________________________


	BEGINNING GENETIC ALGORITHM DOCKING 89 of 100
Run: 89 Seed: 1784730068 439128550 [ Run 89 of 100 GA/GALS ]
Beginning LAMARCKIAN GENETIC ALGORITHM (LGA), with a maximum of 2500000 energy evaluations.

Final-Value: -12.851


	FINAL GENETIC ALGORITHM DOCKED STATE
	_______________________________________________


Detailed state:  trans 15.432 -9.330 -0.149 quatxyzw 0.837743 -0.261752 0.002111 -0.479237 center 1.179 0.138 -0.353 ntor 7 -8.6518 31.5552 165.2136 -118.2872 31.6996 153.6143 -110.8148
State:	 15.432  -9.330  -0.149   0.954 -0.298  0.002 -122.729     -8.65   31.56  165.21 -118.29   31.70  153.61 -110.81

DOCKED: MODEL       89
DOCKED: USER    Run = 89
DOCKED: USER    DPF = ligand_dock.biased.dpf
DOCKED: USER  
DOCKED: USER    Estimated Free Energy of Binding    =   -8.88 kcal/mol  [=(1)+(2)+(3)-(4)]
DOCKED: USER    Estimated Inhibition Constant, Ki   =  311.98 nM (nanomolar)  [Temperature = 298.15 K]
DOCKED: USER    
DOCKED: USER    (1) Final Intermolecular Energy     =  -10.96 kcal/mol
DOCKED: USER        vdW + Hbond + desolv Energy     =  -10.96 kcal/mol
DOCKED: USER        Electrostatic Energy            =   +0.00 kcal/mol
DOCKED: USER    (2) Final Total Internal Energy     =   -1.89 kcal/mol
DOCKED: USER    (3) Torsional Free Energy           =   +2.09 kcal/mol
DOCKED: USER    (4) Unbound System's Energy  [=(2)] =   -1.89 kcal/mol
DOCKED: USER    
DOCKED: USER    
DOCKED: USER    NEWDPF move ligand.pdbqt
DOCKED: USER    NEWDPF about 1.179000 0.138000 -0.353000
DOCKED: USER    NEWDPF tran0 15.432106 -9.330314 -0.149202
DOCKED: USER    NEWDPF quaternion0 0.837743 -0.261752 0.002111 -0.479237
DOCKED: USER    NEWDPF axisangle0 0.954491 -0.298230 0.002405 -122.728860
DOCKED: USER    NEWDPF quat0 0.954491 -0.298230 0.002405 -122.728860
DOCKED: USER    NEWDPF dihe0 -8.65 31.56 165.21 -118.29 31.70 153.61 -110.81 
DOCKED: USER  keepresnum = 1 
DOCKED: USER  
DOCKED: REMARK  Name = 
DOCKED: REMARK  11 active torsions:
DOCKED: REMARK  status: ('A' for Active; 'I' for Inactive)
DOCKED: REMARK    1  A    between atoms: C_1  and  N_2
DOCKED: REMARK    2  A    between atoms: N_2  and  C_3
DOCKED: REMARK    3  A    between atoms: N_2  and  C_22
DOCKED: REMARK    4  A    between atoms: C_6  and  C_9
DOCKED: REMARK    5  A    between atoms: C_9  and  C_10
DOCKED: REMARK    6  A    between atoms: C_10  and  C_11
DOCKED: REMARK    7  A    between atoms: C_10  and  C_20
DOCKED: REMARK    8  A    between atoms: C_12  and  C_13
DOCKED: REMARK    9  A    between atoms: C_12  and  C_19
DOCKED: REMARK   10  A    between atoms: C_14  and  C_15
DOCKED: REMARK   11  A    between atoms: N_16  and  O_17
DOCKED: REMARK                            x       y       z     vdW  Elec       q    Type
DOCKED: REMARK                         _______ _______ _______ _____ _____    ______ ____
DOCKED: USER                              x       y       z     vdW  Elec       q    Type
DOCKED: USER                           _______ _______ _______ _____ _____    ______ ____
DOCKED: ROOT
DOCKED: ATOM      1  C   UNL     1      14.947 -10.493  -1.597 -0.30 -0.00    +0.000 C 
DOCKED: ATOM      2  C   UNL     1      14.640 -11.627  -2.581 -0.30 -0.00    +0.000 C 
DOCKED: ENDROOT
DOCKED: BRANCH   1   3
DOCKED: ATOM      3  C   UNL     1      16.177 -10.824  -0.776 -0.33 -0.00    +0.000 C 
DOCKED: ATOM      4  C   UNL     1      16.394 -12.009  -0.171 -0.47 +0.00    +0.000 C 
DOCKED: ATOM      5  C   UNL     1      15.391 -13.140  -0.248 -0.58 +0.00    +0.000 C 
DOCKED: BRANCH   4   6
DOCKED: ATOM      6  C   UNL     1      17.631 -12.159   0.640 -0.55 +0.00    +0.000 C 
DOCKED: ATOM      7  C   UNL     1      18.124 -11.180   1.413 -0.52 -0.00    +0.000 C 
DOCKED: BRANCH   7   8
DOCKED: ATOM      8  C   UNL     1      19.353 -11.322   2.220 -0.69 -0.00    +0.000 C 
DOCKED: ATOM      9  N   UNL     1      19.824 -10.286   3.092 -0.62 -0.00    +0.000 N 
DOCKED: ATOM     10  O   UNL     1      19.992 -12.406   2.153 -1.66 -0.00    +0.000 OA
DOCKED: ATOM     11  H   UNL     1      19.280  -9.477   3.231 -0.38 -0.00    +0.000 HD
DOCKED: BRANCH   9  12
DOCKED: ATOM     12  O   UNL     1      21.013 -10.417   3.725 -0.66 -0.00    +0.000 OA
DOCKED: ATOM     13  H   UNL     1      21.354 -11.316   3.592 -0.51 -0.00    +0.000 HD
DOCKED: ENDBRANCH   9  12
DOCKED: ENDBRANCH   7   8
DOCKED: ENDBRANCH   4   6
DOCKED: ENDBRANCH   1   3
DOCKED: BRANCH   1  14
DOCKED: ATOM     14  C   UNL     1      13.752 -10.267  -0.696 -0.26 +0.00    +0.000 C 
DOCKED: ATOM     15  O   UNL     1      12.596 -10.473  -1.158 -0.30 -0.00    +0.000 OA
DOCKED: BRANCH  14  19
DOCKED: ATOM     16  C   UNL     1      14.139  -8.927   3.398 -0.27 +0.00    +0.000 A 
DOCKED: ATOM     17  C   UNL     1      13.434 -10.105   3.077 -0.25 +0.00    +0.000 A 
DOCKED: ATOM     18  C   UNL     1      13.312 -10.528   1.751 -0.27 +0.00    +0.000 A 
DOCKED: ATOM     19  C   UNL     1      13.894  -9.793   0.706 -0.19 +0.00    +0.000 A 
DOCKED: ATOM     20  C   UNL     1      14.590  -8.613   1.018 -0.23 +0.00    +0.000 A 
DOCKED: ATOM     21  C   UNL     1      14.712  -8.187   2.345 -0.25 +0.00    +0.000 A 
DOCKED: BRANCH  16  23
DOCKED: ATOM     22  C   UNL     1      14.784  -7.148   5.085 -0.45 +0.00    +0.000 C 
DOCKED: ATOM     23  N   UNL     1      14.267  -8.486   4.776 -0.38 +0.00    +0.000 N 
DOCKED: ATOM     24  C   UNL     1      13.883  -9.371   5.882 -0.52 +0.00    +0.000 C 
DOCKED: ENDBRANCH  16  23
DOCKED: ENDBRANCH  14  19
DOCKED: ENDBRANCH   1  14
DOCKED: TORSDOF 7
DOCKED: TER
DOCKED: ENDMDL
________________________________________________________________________________


	BEGINNING GENETIC ALGORITHM DOCKING 90 of 100
Run: 90 Seed: 1826909089 637607508 [ Run 90 of 100 GA/GALS ]
Beginning LAMARCKIAN GENETIC ALGORITHM (LGA), with a maximum of 2500000 energy evaluations.

Final-Value: -11.644


	FINAL GENETIC ALGORITHM DOCKED STATE
	_______________________________________________


Detailed state:  trans 21.227 -7.203 -2.792 quatxyzw -0.544153 0.767427 -0.044068 0.336171 center 1.179 0.138 -0.353 ntor 7 92.4306 87.1764 47.2902 179.6467 168.9911 -103.3680 -74.0052
State:	 21.227  -7.203  -2.792  -0.578  0.815 -0.047 140.713     92.43   87.18   47.29  179.65  168.99 -103.37  -74.01

DOCKED: MODEL       90
DOCKED: USER    Run = 90
DOCKED: USER    DPF = ligand_dock.biased.dpf
DOCKED: USER  
DOCKED: USER    Estimated Free Energy of Binding    =   -8.46 kcal/mol  [=(1)+(2)+(3)-(4)]
DOCKED: USER    Estimated Inhibition Constant, Ki   =  623.84 nM (nanomolar)  [Temperature = 298.15 K]
DOCKED: USER    
DOCKED: USER    (1) Final Intermolecular Energy     =  -10.55 kcal/mol
DOCKED: USER        vdW + Hbond + desolv Energy     =  -10.55 kcal/mol
DOCKED: USER        Electrostatic Energy            =   +0.00 kcal/mol
DOCKED: USER    (2) Final Total Internal Energy     =   -1.09 kcal/mol
DOCKED: USER    (3) Torsional Free Energy           =   +2.09 kcal/mol
DOCKED: USER    (4) Unbound System's Energy  [=(2)] =   -1.09 kcal/mol
DOCKED: USER    
DOCKED: USER    
DOCKED: USER    NEWDPF move ligand.pdbqt
DOCKED: USER    NEWDPF about 1.179000 0.138000 -0.353000
DOCKED: USER    NEWDPF tran0 21.226530 -7.203483 -2.791570
DOCKED: USER    NEWDPF quaternion0 -0.544153 0.767427 -0.044068 0.336171
DOCKED: USER    NEWDPF axisangle0 -0.577779 0.814851 -0.046791 140.712506
DOCKED: USER    NEWDPF quat0 -0.577779 0.814851 -0.046791 140.712506
DOCKED: USER    NEWDPF dihe0 92.43 87.18 47.29 179.65 168.99 -103.37 -74.01 
DOCKED: USER  keepresnum = 1 
DOCKED: USER  
DOCKED: REMARK  Name = 
DOCKED: REMARK  11 active torsions:
DOCKED: REMARK  status: ('A' for Active; 'I' for Inactive)
DOCKED: REMARK    1  A    between atoms: C_1  and  N_2
DOCKED: REMARK    2  A    between atoms: N_2  and  C_3
DOCKED: REMARK    3  A    between atoms: N_2  and  C_22
DOCKED: REMARK    4  A    between atoms: C_6  and  C_9
DOCKED: REMARK    5  A    between atoms: C_9  and  C_10
DOCKED: REMARK    6  A    between atoms: C_10  and  C_11
DOCKED: REMARK    7  A    between atoms: C_10  and  C_20
DOCKED: REMARK    8  A    between atoms: C_12  and  C_13
DOCKED: REMARK    9  A    between atoms: C_12  and  C_19
DOCKED: REMARK   10  A    between atoms: C_14  and  C_15
DOCKED: REMARK   11  A    between atoms: N_16  and  O_17
DOCKED: REMARK                            x       y       z     vdW  Elec       q    Type
DOCKED: REMARK                         _______ _______ _______ _____ _____    ______ ____
DOCKED: USER                              x       y       z     vdW  Elec       q    Type
DOCKED: USER                           _______ _______ _______ _____ _____    ______ ____
DOCKED: ROOT
DOCKED: ATOM      1  C   UNL     1      20.830  -7.969  -4.507 -0.28 -0.00    +0.000 C 
DOCKED: ATOM      2  C   UNL     1      20.293  -8.689  -5.747 -0.18 -0.00    +0.000 C 
DOCKED: ENDROOT
DOCKED: BRANCH   1   3
DOCKED: ATOM      3  C   UNL     1      20.583  -8.798  -3.264 -0.41 -0.00    +0.000 C 
DOCKED: ATOM      4  C   UNL     1      21.004 -10.068  -3.097 -0.53 -0.00    +0.000 C 
DOCKED: ATOM      5  C   UNL     1      21.770 -10.802  -4.177 -0.49 -0.00    +0.000 C 
DOCKED: BRANCH   4   6
DOCKED: ATOM      6  C   UNL     1      20.637 -10.762  -1.834 -0.46 -0.00    +0.000 C 
DOCKED: ATOM      7  C   UNL     1      20.335 -10.111  -0.701 -0.60 -0.00    +0.000 C 
DOCKED: BRANCH   7   8
DOCKED: ATOM      8  C   UNL     1      19.970 -10.795   0.557 -0.65 -0.00    +0.000 C 
DOCKED: ATOM      9  N   UNL     1      20.894 -11.620   1.278 -0.70 -0.00    +0.000 N 
DOCKED: ATOM     10  O   UNL     1      18.810 -10.623   1.018 -0.57 -0.00    +0.000 OA
DOCKED: ATOM     11  H   UNL     1      21.832 -11.679   0.983 -0.52 -0.00    +0.000 HD
DOCKED: BRANCH   9  12
DOCKED: ATOM     12  O   UNL     1      20.481 -12.315   2.364 -1.41 -0.00    +0.000 OA
DOCKED: ATOM     13  H   UNL     1      20.205 -13.204   2.093 -0.59 -0.00    +0.000 HD
DOCKED: ENDBRANCH   9  12
DOCKED: ENDBRANCH   7   8
DOCKED: ENDBRANCH   4   6
DOCKED: ENDBRANCH   1   3
DOCKED: BRANCH   1  14
DOCKED: ATOM     14  C   UNL     1      20.168  -6.613  -4.382 -0.21 -0.00    +0.000 C 
DOCKED: ATOM     15  O   UNL     1      19.252  -6.308  -5.195 -0.13 -0.00    +0.000 OA
DOCKED: BRANCH  14  19
DOCKED: ATOM     16  C   UNL     1      21.383  -3.768  -1.360 -0.36 +0.00    +0.000 A 
DOCKED: ATOM     17  C   UNL     1      22.151  -4.917  -1.634 -0.30 +0.00    +0.000 A 
DOCKED: ATOM     18  C   UNL     1      21.749  -5.832  -2.610 -0.36 -0.00    +0.000 A 
DOCKED: ATOM     19  C   UNL     1      20.571  -5.625  -3.347 -0.25 -0.00    +0.000 A 
DOCKED: ATOM     20  C   UNL     1      19.795  -4.487  -3.071 -0.14 -0.00    +0.000 A 
DOCKED: ATOM     21  C   UNL     1      20.196  -3.571  -2.093 -0.24 -0.00    +0.000 A 
DOCKED: BRANCH  16  23
DOCKED: ATOM     22  C   UNL     1      21.012  -2.640   0.881 -0.49 +0.00    +0.000 C 
DOCKED: ATOM     23  N   UNL     1      21.799  -2.816  -0.345 -0.36 +0.00    +0.000 N 
DOCKED: ATOM     24  C   UNL     1      23.013  -2.012  -0.529 -0.30 -0.00    +0.000 C 
DOCKED: ENDBRANCH  16  23
DOCKED: ENDBRANCH  14  19
DOCKED: ENDBRANCH   1  14
DOCKED: TORSDOF 7
DOCKED: TER
DOCKED: ENDMDL
________________________________________________________________________________


	BEGINNING GENETIC ALGORITHM DOCKING 91 of 100
Run: 91 Seed: 576168305 371568916 [ Run 91 of 100 GA/GALS ]
Beginning LAMARCKIAN GENETIC ALGORITHM (LGA), with a maximum of 2500000 energy evaluations.

Final-Value: -13.962


	FINAL GENETIC ALGORITHM DOCKED STATE
	_______________________________________________


Detailed state:  trans 19.232 -10.594 -3.276 quatxyzw -0.781632 -0.106972 -0.585997 -0.184976 center 1.179 0.138 -0.353 ntor 7 6.3387 88.8790 35.4608 152.6997 -95.2464 -103.8096 108.2794
State:	 19.232 -10.594  -3.276  -0.795 -0.109 -0.596 -158.681      6.34   88.88   35.46  152.70  -95.25 -103.81  108.28

DOCKED: MODEL       91
DOCKED: USER    Run = 91
DOCKED: USER    DPF = ligand_dock.biased.dpf
DOCKED: USER  
DOCKED: USER    Estimated Free Energy of Binding    =  -10.46 kcal/mol  [=(1)+(2)+(3)-(4)]
DOCKED: USER    Estimated Inhibition Constant, Ki   =   21.62 nM (nanomolar)  [Temperature = 298.15 K]
DOCKED: USER    
DOCKED: USER    (1) Final Intermolecular Energy     =  -12.55 kcal/mol
DOCKED: USER        vdW + Hbond + desolv Energy     =  -12.55 kcal/mol
DOCKED: USER        Electrostatic Energy            =   +0.00 kcal/mol
DOCKED: USER    (2) Final Total Internal Energy     =   -1.42 kcal/mol
DOCKED: USER    (3) Torsional Free Energy           =   +2.09 kcal/mol
DOCKED: USER    (4) Unbound System's Energy  [=(2)] =   -1.42 kcal/mol
DOCKED: USER    
DOCKED: USER    
DOCKED: USER    NEWDPF move ligand.pdbqt
DOCKED: USER    NEWDPF about 1.179000 0.138000 -0.353000
DOCKED: USER    NEWDPF tran0 19.231902 -10.594294 -3.275561
DOCKED: USER    NEWDPF quaternion0 -0.781632 -0.106972 -0.585997 -0.184976
DOCKED: USER    NEWDPF axisangle0 -0.795358 -0.108850 -0.596287 -158.680534
DOCKED: USER    NEWDPF quat0 -0.795358 -0.108850 -0.596287 -158.680534
DOCKED: USER    NEWDPF dihe0 6.34 88.88 35.46 152.70 -95.25 -103.81 108.28 
DOCKED: USER  keepresnum = 1 
DOCKED: USER  
DOCKED: REMARK  Name = 
DOCKED: REMARK  11 active torsions:
DOCKED: REMARK  status: ('A' for Active; 'I' for Inactive)
DOCKED: REMARK    1  A    between atoms: C_1  and  N_2
DOCKED: REMARK    2  A    between atoms: N_2  and  C_3
DOCKED: REMARK    3  A    between atoms: N_2  and  C_22
DOCKED: REMARK    4  A    between atoms: C_6  and  C_9
DOCKED: REMARK    5  A    between atoms: C_9  and  C_10
DOCKED: REMARK    6  A    between atoms: C_10  and  C_11
DOCKED: REMARK    7  A    between atoms: C_10  and  C_20
DOCKED: REMARK    8  A    between atoms: C_12  and  C_13
DOCKED: REMARK    9  A    between atoms: C_12  and  C_19
DOCKED: REMARK   10  A    between atoms: C_14  and  C_15
DOCKED: REMARK   11  A    between atoms: N_16  and  O_17
DOCKED: REMARK                            x       y       z     vdW  Elec       q    Type
DOCKED: REMARK                         _______ _______ _______ _____ _____    ______ ____
DOCKED: USER                              x       y       z     vdW  Elec       q    Type
DOCKED: USER                           _______ _______ _______ _____ _____    ______ ____
DOCKED: ROOT
DOCKED: ATOM      1  C   UNL     1      20.578  -9.384  -3.914 -0.39 -0.00    +0.000 C 
DOCKED: ATOM      2  C   UNL     1      21.828  -8.575  -4.274 -0.24 -0.00    +0.000 C 
DOCKED: ENDROOT
DOCKED: BRANCH   1   3
DOCKED: ATOM      3  C   UNL     1      20.662  -9.881  -2.485 -0.53 -0.00    +0.000 C 
DOCKED: ATOM      4  C   UNL     1      20.852  -9.089  -1.411 -0.54 -0.00    +0.000 C 
DOCKED: ATOM      5  C   UNL     1      21.019  -7.590  -1.546 -0.34 -0.00    +0.000 C 
DOCKED: BRANCH   4   6
DOCKED: ATOM      6  C   UNL     1      20.960  -9.738  -0.078 -0.67 -0.00    +0.000 C 
DOCKED: ATOM      7  C   UNL     1      20.069 -10.631   0.376 -0.64 -0.00    +0.000 C 
DOCKED: BRANCH   7   8
DOCKED: ATOM      8  C   UNL     1      20.170 -11.280   1.700 -0.75 -0.00    +0.000 C 
DOCKED: ATOM      9  N   UNL     1      20.306 -10.530   2.914 -0.67 -0.00    +0.000 N 
DOCKED: ATOM     10  O   UNL     1      20.110 -12.537   1.758 -1.63 -0.00    +0.000 OA
DOCKED: ATOM     11  H   UNL     1      20.251  -9.547   2.892 -0.55 -0.00    +0.000 HD
DOCKED: BRANCH   9  12
DOCKED: ATOM     12  O   UNL     1      20.508 -11.169   4.090 -0.72 -0.00    +0.000 OA
DOCKED: ATOM     13  H   UNL     1      20.636 -12.116   3.926 -0.53 -0.00    +0.000 HD
DOCKED: ENDBRANCH   9  12
DOCKED: ENDBRANCH   7   8
DOCKED: ENDBRANCH   4   6
DOCKED: ENDBRANCH   1   3
DOCKED: BRANCH   1  14
DOCKED: ATOM     14  C   UNL     1      20.434 -10.547  -4.873 -0.44 -0.00    +0.000 C 
DOCKED: ATOM     15  O   UNL     1      19.387 -11.250  -4.820 -0.46 -0.00    +0.000 OA
DOCKED: BRANCH  14  19
DOCKED: ATOM     16  C   UNL     1      23.516 -11.606  -7.716 -0.43 -0.00    +0.000 A 
DOCKED: ATOM     17  C   UNL     1      23.269 -12.397  -6.575 -0.44 -0.00    +0.000 A 
DOCKED: ATOM     18  C   UNL     1      22.274 -12.045  -5.661 -0.46 -0.00    +0.000 A 
DOCKED: ATOM     19  C   UNL     1      21.489 -10.897  -5.859 -0.42 -0.00    +0.000 A 
DOCKED: ATOM     20  C   UNL     1      21.736 -10.100  -6.990 -0.26 -0.00    +0.000 A 
DOCKED: ATOM     21  C   UNL     1      22.734 -10.450  -7.905 -0.26 -0.00    +0.000 A 
DOCKED: BRANCH  16  23
DOCKED: ATOM     22  C   UNL     1      25.761 -11.151  -8.803 -0.40 -0.00    +0.000 C 
DOCKED: ATOM     23  N   UNL     1      24.551 -11.971  -8.667 -0.41 -0.00    +0.000 N 
DOCKED: ATOM     24  C   UNL     1      24.404 -13.164  -9.510 -0.38 -0.00    +0.000 C 
DOCKED: ENDBRANCH  16  23
DOCKED: ENDBRANCH  14  19
DOCKED: ENDBRANCH   1  14
DOCKED: TORSDOF 7
DOCKED: TER
DOCKED: ENDMDL
________________________________________________________________________________


	BEGINNING GENETIC ALGORITHM DOCKING 92 of 100
Run: 92 Seed: 1328754505 1553660990 [ Run 92 of 100 GA/GALS ]
Beginning LAMARCKIAN GENETIC ALGORITHM (LGA), with a maximum of 2500000 energy evaluations.

Final-Value: -13.377


	FINAL GENETIC ALGORITHM DOCKED STATE
	_______________________________________________


Detailed state:  trans 21.048 -8.609 -2.900 quatxyzw 0.579293 -0.635921 0.389497 -0.329114 center 1.179 0.138 -0.353 ntor 7 36.6956 10.6848 -56.4663 -140.2337 77.8168 15.3143 153.7112
State:	 21.048  -8.609  -2.900   0.613 -0.673  0.412 -141.570     36.70   10.68  -56.47 -140.23   77.82   15.31  153.71

DOCKED: MODEL       92
DOCKED: USER    Run = 92
DOCKED: USER    DPF = ligand_dock.biased.dpf
DOCKED: USER  
DOCKED: USER    Estimated Free Energy of Binding    =   -9.73 kcal/mol  [=(1)+(2)+(3)-(4)]
DOCKED: USER    Estimated Inhibition Constant, Ki   =   73.48 nM (nanomolar)  [Temperature = 298.15 K]
DOCKED: USER    
DOCKED: USER    (1) Final Intermolecular Energy     =  -11.82 kcal/mol
DOCKED: USER        vdW + Hbond + desolv Energy     =  -11.82 kcal/mol
DOCKED: USER        Electrostatic Energy            =   +0.00 kcal/mol
DOCKED: USER    (2) Final Total Internal Energy     =   -1.56 kcal/mol
DOCKED: USER    (3) Torsional Free Energy           =   +2.09 kcal/mol
DOCKED: USER    (4) Unbound System's Energy  [=(2)] =   -1.56 kcal/mol
DOCKED: USER    
DOCKED: USER    
DOCKED: USER    NEWDPF move ligand.pdbqt
DOCKED: USER    NEWDPF about 1.179000 0.138000 -0.353000
DOCKED: USER    NEWDPF tran0 21.048472 -8.608582 -2.900153
DOCKED: USER    NEWDPF quaternion0 0.579293 -0.635921 0.389497 -0.329114
DOCKED: USER    NEWDPF axisangle0 0.613469 -0.673439 0.412476 -141.569966
DOCKED: USER    NEWDPF quat0 0.613469 -0.673439 0.412476 -141.569966
DOCKED: USER    NEWDPF dihe0 36.70 10.68 -56.47 -140.23 77.82 15.31 153.71 
DOCKED: USER  keepresnum = 1 
DOCKED: USER  
DOCKED: REMARK  Name = 
DOCKED: REMARK  11 active torsions:
DOCKED: REMARK  status: ('A' for Active; 'I' for Inactive)
DOCKED: REMARK    1  A    between atoms: C_1  and  N_2
DOCKED: REMARK    2  A    between atoms: N_2  and  C_3
DOCKED: REMARK    3  A    between atoms: N_2  and  C_22
DOCKED: REMARK    4  A    between atoms: C_6  and  C_9
DOCKED: REMARK    5  A    between atoms: C_9  and  C_10
DOCKED: REMARK    6  A    between atoms: C_10  and  C_11
DOCKED: REMARK    7  A    between atoms: C_10  and  C_20
DOCKED: REMARK    8  A    between atoms: C_12  and  C_13
DOCKED: REMARK    9  A    between atoms: C_12  and  C_19
DOCKED: REMARK   10  A    between atoms: C_14  and  C_15
DOCKED: REMARK   11  A    between atoms: N_16  and  O_17
DOCKED: REMARK                            x       y       z     vdW  Elec       q    Type
DOCKED: REMARK                         _______ _______ _______ _____ _____    ______ ____
DOCKED: USER                              x       y       z     vdW  Elec       q    Type
DOCKED: USER                           _______ _______ _______ _____ _____    ______ ____
DOCKED: ROOT
DOCKED: ATOM      1  C   UNL     1      21.615 -10.098  -3.970 -0.45 -0.00    +0.000 C 
DOCKED: ATOM      2  C   UNL     1      21.861 -11.425  -4.695 -0.40 -0.00    +0.000 C 
DOCKED: ENDROOT
DOCKED: BRANCH   1   3
DOCKED: ATOM      3  C   UNL     1      21.192 -10.348  -2.538 -0.56 -0.00    +0.000 C 
DOCKED: ATOM      4  C   UNL     1      21.001  -9.381  -1.617 -0.60 -0.00    +0.000 C 
DOCKED: ATOM      5  C   UNL     1      21.216  -7.918  -1.943 -0.47 -0.00    +0.000 C 
DOCKED: BRANCH   4   6
DOCKED: ATOM      6  C   UNL     1      20.633  -9.796  -0.238 -0.64 -0.00    +0.000 C 
DOCKED: ATOM      7  C   UNL     1      20.793 -11.047   0.218 -0.64 -0.00    +0.000 C 
DOCKED: BRANCH   7   8
DOCKED: ATOM      8  C   UNL     1      20.428 -11.465   1.587 -0.76 -0.00    +0.000 C 
DOCKED: ATOM      9  N   UNL     1      20.641 -10.626   2.729 -0.63 -0.00    +0.000 N 
DOCKED: ATOM     10  O   UNL     1      19.889 -12.594   1.746 -1.66 -0.00    +0.000 OA
DOCKED: ATOM     11  H   UNL     1      20.965  -9.704   2.606 -0.58 -0.00    +0.000 HD
DOCKED: BRANCH   9  12
DOCKED: ATOM     12  O   UNL     1      20.395 -11.096   3.975 -0.79 -0.00    +0.000 OA
DOCKED: ATOM     13  H   UNL     1      20.649 -12.031   4.025 -0.54 -0.00    +0.000 HD
DOCKED: ENDBRANCH   9  12
DOCKED: ENDBRANCH   7   8
DOCKED: ENDBRANCH   4   6
DOCKED: ENDBRANCH   1   3
DOCKED: BRANCH   1  14
DOCKED: ATOM     14  C   UNL     1      20.553  -9.308  -4.707 -0.32 -0.00    +0.000 C 
DOCKED: ATOM     15  O   UNL     1      20.804  -8.115  -5.035 -0.22 -0.00    +0.000 OA
DOCKED: BRANCH  14  19
DOCKED: ATOM     16  C   UNL     1      16.705 -11.006  -5.711 -0.25 -0.00    +0.000 A 
DOCKED: ATOM     17  C   UNL     1      17.854 -11.295  -6.475 -0.34 -0.00    +0.000 A 
DOCKED: ATOM     18  C   UNL     1      19.092 -10.739  -6.144 -0.32 -0.00    +0.000 A 
DOCKED: ATOM     19  C   UNL     1      19.224  -9.883  -5.039 -0.25 -0.00    +0.000 A 
DOCKED: ATOM     20  C   UNL     1      18.080  -9.583  -4.279 -0.22 -0.00    +0.000 A 
DOCKED: ATOM     21  C   UNL     1      16.839 -10.137  -4.610 -0.21 -0.00    +0.000 A 
DOCKED: BRANCH  16  23
DOCKED: ATOM     22  C   UNL     1      14.275 -11.452  -5.141 -0.30 -0.00    +0.000 C 
DOCKED: ATOM     23  N   UNL     1      15.417 -11.582  -6.054 -0.28 -0.00    +0.000 N 
DOCKED: ATOM     24  C   UNL     1      15.235 -12.307  -7.317 -0.38 -0.00    +0.000 C 
DOCKED: ENDBRANCH  16  23
DOCKED: ENDBRANCH  14  19
DOCKED: ENDBRANCH   1  14
DOCKED: TORSDOF 7
DOCKED: TER
DOCKED: ENDMDL
________________________________________________________________________________


	BEGINNING GENETIC ALGORITHM DOCKING 93 of 100
Run: 93 Seed: 1704529695 1906463258 [ Run 93 of 100 GA/GALS ]
Beginning LAMARCKIAN GENETIC ALGORITHM (LGA), with a maximum of 2500000 energy evaluations.

Final-Value: -12.400


	FINAL GENETIC ALGORITHM DOCKED STATE
	_______________________________________________


Detailed state:  trans 19.802 -9.136 -2.996 quatxyzw -0.723490 -0.539554 -0.353065 0.246552 center 1.179 0.138 -0.353 ntor 7 0.3641 152.5465 56.3491 -135.7121 63.9063 -93.1243 -101.9218
State:	 19.802  -9.136  -2.996  -0.747 -0.557 -0.364 151.453      0.36  152.55   56.35 -135.71   63.91  -93.12 -101.92

DOCKED: MODEL       93
DOCKED: USER    Run = 93
DOCKED: USER    DPF = ligand_dock.biased.dpf
DOCKED: USER  
DOCKED: USER    Estimated Free Energy of Binding    =   -8.51 kcal/mol  [=(1)+(2)+(3)-(4)]
DOCKED: USER    Estimated Inhibition Constant, Ki   =  581.07 nM (nanomolar)  [Temperature = 298.15 K]
DOCKED: USER    
DOCKED: USER    (1) Final Intermolecular Energy     =  -10.60 kcal/mol
DOCKED: USER        vdW + Hbond + desolv Energy     =  -10.60 kcal/mol
DOCKED: USER        Electrostatic Energy            =   +0.00 kcal/mol
DOCKED: USER    (2) Final Total Internal Energy     =   -1.80 kcal/mol
DOCKED: USER    (3) Torsional Free Energy           =   +2.09 kcal/mol
DOCKED: USER    (4) Unbound System's Energy  [=(2)] =   -1.80 kcal/mol
DOCKED: USER    
DOCKED: USER    
DOCKED: USER    NEWDPF move ligand.pdbqt
DOCKED: USER    NEWDPF about 1.179000 0.138000 -0.353000
DOCKED: USER    NEWDPF tran0 19.802156 -9.136052 -2.996162
DOCKED: USER    NEWDPF quaternion0 -0.723490 -0.539554 -0.353065 0.246552
DOCKED: USER    NEWDPF axisangle0 -0.746536 -0.556741 -0.364312 151.452904
DOCKED: USER    NEWDPF quat0 -0.746536 -0.556741 -0.364312 151.452904
DOCKED: USER    NEWDPF dihe0 0.36 152.55 56.35 -135.71 63.91 -93.12 -101.92 
DOCKED: USER  keepresnum = 1 
DOCKED: USER  
DOCKED: REMARK  Name = 
DOCKED: REMARK  11 active torsions:
DOCKED: REMARK  status: ('A' for Active; 'I' for Inactive)
DOCKED: REMARK    1  A    between atoms: C_1  and  N_2
DOCKED: REMARK    2  A    between atoms: N_2  and  C_3
DOCKED: REMARK    3  A    between atoms: N_2  and  C_22
DOCKED: REMARK    4  A    between atoms: C_6  and  C_9
DOCKED: REMARK    5  A    between atoms: C_9  and  C_10
DOCKED: REMARK    6  A    between atoms: C_10  and  C_11
DOCKED: REMARK    7  A    between atoms: C_10  and  C_20
DOCKED: REMARK    8  A    between atoms: C_12  and  C_13
DOCKED: REMARK    9  A    between atoms: C_12  and  C_19
DOCKED: REMARK   10  A    between atoms: C_14  and  C_15
DOCKED: REMARK   11  A    between atoms: N_16  and  O_17
DOCKED: REMARK                            x       y       z     vdW  Elec       q    Type
DOCKED: REMARK                         _______ _______ _______ _____ _____    ______ ____
DOCKED: USER                              x       y       z     vdW  Elec       q    Type
DOCKED: USER                           _______ _______ _______ _____ _____    ______ ____
DOCKED: ROOT
DOCKED: ATOM      1  C   UNL     1      20.893  -9.216  -4.573 -0.35 -0.00    +0.000 C 
DOCKED: ATOM      2  C   UNL     1      21.951  -9.141  -5.679 -0.30 -0.00    +0.000 C 
DOCKED: ENDROOT
DOCKED: BRANCH   1   3
DOCKED: ATOM      3  C   UNL     1      20.909  -7.952  -3.740 -0.36 -0.00    +0.000 C 
DOCKED: ATOM      4  C   UNL     1      20.564  -6.731  -4.197 -0.25 -0.00    +0.000 C 
DOCKED: ATOM      5  C   UNL     1      20.134  -6.510  -5.632 -0.12 -0.00    +0.000 C 
DOCKED: BRANCH   4   6
DOCKED: ATOM      6  C   UNL     1      20.679  -5.580  -3.264 -0.29 -0.00    +0.000 C 
DOCKED: ATOM      7  C   UNL     1      21.463  -5.595  -2.175 -0.45 -0.00    +0.000 C 
DOCKED: BRANCH   7   8
DOCKED: ATOM      8  C   UNL     1      21.581  -4.455  -1.243 -0.35 +0.00    +0.000 C 
DOCKED: ATOM      9  N   UNL     1      20.548  -4.116  -0.309 -0.39 +0.00    +0.000 N 
DOCKED: ATOM     10  O   UNL     1      22.642  -3.775  -1.260 -0.88 +0.00    +0.000 OA
DOCKED: ATOM     11  H   UNL     1      19.761  -4.700  -0.216 -0.08 +0.00    +0.000 HD
DOCKED: BRANCH   9  12
DOCKED: ATOM     12  O   UNL     1      20.653  -2.997   0.446 -1.00 +0.00    +0.000 OA
DOCKED: ATOM     13  H   UNL     1      21.479  -2.536   0.229 -0.02 -0.00    +0.000 HD
DOCKED: ENDBRANCH   9  12
DOCKED: ENDBRANCH   7   8
DOCKED: ENDBRANCH   4   6
DOCKED: ENDBRANCH   1   3
DOCKED: BRANCH   1  14
DOCKED: ATOM     14  C   UNL     1      21.153 -10.429  -3.704 -0.52 -0.00    +0.000 C 
DOCKED: ATOM     15  O   UNL     1      21.812 -11.391  -4.187 -0.51 -0.00    +0.000 OA
DOCKED: BRANCH  14  19
DOCKED: ATOM     16  C   UNL     1      19.714 -10.706   0.364 -0.53 -0.00    +0.000 A 
DOCKED: ATOM     17  C   UNL     1      21.002 -10.212   0.076 -0.62 -0.00    +0.000 A 
DOCKED: ATOM     18  C   UNL     1      21.459 -10.129  -1.242 -0.55 -0.00    +0.000 A 
DOCKED: ATOM     19  C   UNL     1      20.644 -10.530  -2.312 -0.47 -0.00    +0.000 A 
DOCKED: ATOM     20  C   UNL     1      19.362 -11.034  -2.030 -0.34 -0.00    +0.000 A 
DOCKED: ATOM     21  C   UNL     1      18.904 -11.119  -0.712 -0.43 -0.00    +0.000 A 
DOCKED: BRANCH  16  23
DOCKED: ATOM     22  C   UNL     1      20.077 -11.390   2.779 -0.76 -0.00    +0.000 C 
DOCKED: ATOM     23  N   UNL     1      19.237 -10.793   1.733 -0.54 -0.00    +0.000 N 
DOCKED: ATOM     24  C   UNL     1      17.907 -10.289   2.094 -0.49 -0.00    +0.000 C 
DOCKED: ENDBRANCH  16  23
DOCKED: ENDBRANCH  14  19
DOCKED: ENDBRANCH   1  14
DOCKED: TORSDOF 7
DOCKED: TER
DOCKED: ENDMDL
________________________________________________________________________________


	BEGINNING GENETIC ALGORITHM DOCKING 94 of 100
Run: 94 Seed: 2037477430 2017177272 [ Run 94 of 100 GA/GALS ]
Beginning LAMARCKIAN GENETIC ALGORITHM (LGA), with a maximum of 2500000 energy evaluations.

Final-Value: -12.410


	FINAL GENETIC ALGORITHM DOCKED STATE
	_______________________________________________


Detailed state:  trans 14.203 -10.326 2.143 quatxyzw 0.176399 -0.078338 0.128188 0.972787 center 1.179 0.138 -0.353 ntor 7 -21.5834 179.0855 84.3410 -154.1433 -173.7431 -2.7822 139.1344
State:	 14.203 -10.326   2.143   0.761 -0.338  0.553 26.795    -21.58  179.09   84.34 -154.14 -173.74   -2.78  139.13

DOCKED: MODEL       94
DOCKED: USER    Run = 94
DOCKED: USER    DPF = ligand_dock.biased.dpf
DOCKED: USER  
DOCKED: USER    Estimated Free Energy of Binding    =   -8.72 kcal/mol  [=(1)+(2)+(3)-(4)]
DOCKED: USER    Estimated Inhibition Constant, Ki   =  404.76 nM (nanomolar)  [Temperature = 298.15 K]
DOCKED: USER    
DOCKED: USER    (1) Final Intermolecular Energy     =  -10.81 kcal/mol
DOCKED: USER        vdW + Hbond + desolv Energy     =  -10.81 kcal/mol
DOCKED: USER        Electrostatic Energy            =   +0.00 kcal/mol
DOCKED: USER    (2) Final Total Internal Energy     =   -1.60 kcal/mol
DOCKED: USER    (3) Torsional Free Energy           =   +2.09 kcal/mol
DOCKED: USER    (4) Unbound System's Energy  [=(2)] =   -1.60 kcal/mol
DOCKED: USER    
DOCKED: USER    
DOCKED: USER    NEWDPF move ligand.pdbqt
DOCKED: USER    NEWDPF about 1.179000 0.138000 -0.353000
DOCKED: USER    NEWDPF tran0 14.203089 -10.325748 2.142959
DOCKED: USER    NEWDPF quaternion0 0.176399 -0.078338 0.128188 0.972787
DOCKED: USER    NEWDPF axisangle0 0.761321 -0.338100 0.553244 26.794553
DOCKED: USER    NEWDPF quat0 0.761321 -0.338100 0.553244 26.794553
DOCKED: USER    NEWDPF dihe0 -21.58 179.09 84.34 -154.14 -173.74 -2.78 139.13 
DOCKED: USER  keepresnum = 1 
DOCKED: USER  
DOCKED: REMARK  Name = 
DOCKED: REMARK  11 active torsions:
DOCKED: REMARK  status: ('A' for Active; 'I' for Inactive)
DOCKED: REMARK    1  A    between atoms: C_1  and  N_2
DOCKED: REMARK    2  A    between atoms: N_2  and  C_3
DOCKED: REMARK    3  A    between atoms: N_2  and  C_22
DOCKED: REMARK    4  A    between atoms: C_6  and  C_9
DOCKED: REMARK    5  A    between atoms: C_9  and  C_10
DOCKED: REMARK    6  A    between atoms: C_10  and  C_11
DOCKED: REMARK    7  A    between atoms: C_10  and  C_20
DOCKED: REMARK    8  A    between atoms: C_12  and  C_13
DOCKED: REMARK    9  A    between atoms: C_12  and  C_19
DOCKED: REMARK   10  A    between atoms: C_14  and  C_15
DOCKED: REMARK   11  A    between atoms: N_16  and  O_17
DOCKED: REMARK                            x       y       z     vdW  Elec       q    Type
DOCKED: REMARK                         _______ _______ _______ _____ _____    ______ ____
DOCKED: USER                              x       y       z     vdW  Elec       q    Type
DOCKED: USER                           _______ _______ _______ _____ _____    ______ ____
DOCKED: ROOT
DOCKED: ATOM      1  C   UNL     1      14.194 -10.087   4.048 -0.41 +0.00    +0.000 C 
DOCKED: ATOM      2  C   UNL     1      14.431  -9.768   5.527 -0.30 +0.00    +0.000 C 
DOCKED: ENDROOT
DOCKED: BRANCH   1   3
DOCKED: ATOM      3  C   UNL     1      15.504 -10.408   3.359 -0.49 +0.00    +0.000 C 
DOCKED: ATOM      4  C   UNL     1      15.616 -11.143   2.233 -0.47 +0.00    +0.000 C 
DOCKED: ATOM      5  C   UNL     1      14.405 -11.740   1.549 -0.47 +0.00    +0.000 C 
DOCKED: BRANCH   4   6
DOCKED: ATOM      6  C   UNL     1      16.981 -11.409   1.709 -0.46 +0.00    +0.000 C 
DOCKED: ATOM      7  C   UNL     1      18.097 -10.999   2.329 -0.54 -0.00    +0.000 C 
DOCKED: BRANCH   7   8
DOCKED: ATOM      8  C   UNL     1      19.457 -11.259   1.812 -0.68 -0.00    +0.000 C 
DOCKED: ATOM      9  N   UNL     1      20.229 -10.255   1.141 -0.57 -0.00    +0.000 N 
DOCKED: ATOM     10  O   UNL     1      19.958 -12.402   1.993 -1.71 -0.00    +0.000 OA
DOCKED: ATOM     11  H   UNL     1      19.890  -9.333   1.085 -0.21 -0.00    +0.000 HD
DOCKED: BRANCH   9  12
DOCKED: ATOM     12  O   UNL     1      21.422 -10.572   0.586 -0.72 -0.00    +0.000 OA
DOCKED: ATOM     13  H   UNL     1      21.768 -11.378   1.000 -0.50 -0.00    +0.000 HD
DOCKED: ENDBRANCH   9  12
DOCKED: ENDBRANCH   7   8
DOCKED: ENDBRANCH   4   6
DOCKED: ENDBRANCH   1   3
DOCKED: BRANCH   1  14
DOCKED: ATOM     14  C   UNL     1      13.516  -8.910   3.377 -0.27 +0.00    +0.000 C 
DOCKED: ATOM     15  O   UNL     1      12.632  -9.136   2.506 -0.20 +0.00    +0.000 OA
DOCKED: BRANCH  14  19
DOCKED: ATOM     16  C   UNL     1      14.595  -4.830   4.322 -0.32 +0.00    +0.000 A 
DOCKED: ATOM     17  C   UNL     1      15.531  -5.879   4.431 -0.32 +0.00    +0.000 A 
DOCKED: ATOM     18  C   UNL     1      15.172  -7.194   4.127 -0.35 +0.00    +0.000 A 
DOCKED: ATOM     19  C   UNL     1      13.871  -7.503   3.698 -0.23 +0.00    +0.000 A 
DOCKED: ATOM     20  C   UNL     1      12.931  -6.464   3.596 -0.13 +0.00    +0.000 A 
DOCKED: ATOM     21  C   UNL     1      13.288  -5.147   3.902 -0.18 +0.00    +0.000 A 
DOCKED: BRANCH  16  23
DOCKED: ATOM     22  C   UNL     1      16.123  -3.183   5.498 -0.47 -0.00    +0.000 C 
DOCKED: ATOM     23  N   UNL     1      14.966  -3.463   4.638 -0.40 -0.00    +0.000 N 
DOCKED: ATOM     24  C   UNL     1      14.191  -2.336   4.106 -0.40 -0.00    +0.000 C 
DOCKED: ENDBRANCH  16  23
DOCKED: ENDBRANCH  14  19
DOCKED: ENDBRANCH   1  14
DOCKED: TORSDOF 7
DOCKED: TER
DOCKED: ENDMDL
________________________________________________________________________________


	BEGINNING GENETIC ALGORITHM DOCKING 95 of 100
Run: 95 Seed: 1113763798 1653992485 [ Run 95 of 100 GA/GALS ]
Beginning LAMARCKIAN GENETIC ALGORITHM (LGA), with a maximum of 2500000 energy evaluations.

Final-Value: -12.827


	FINAL GENETIC ALGORITHM DOCKED STATE
	_______________________________________________


Detailed state:  trans 15.265 -9.399 0.044 quatxyzw -0.868691 0.247533 -0.007332 0.429011 center 1.179 0.138 -0.353 ntor 7 -3.9905 175.5693 176.2087 -123.8335 46.0175 144.1184 -101.5054
State:	 15.265  -9.399   0.044  -0.962  0.274 -0.008 129.190     -3.99  175.57  176.21 -123.83   46.02  144.12 -101.51

DOCKED: MODEL       95
DOCKED: USER    Run = 95
DOCKED: USER    DPF = ligand_dock.biased.dpf
DOCKED: USER  
DOCKED: USER    Estimated Free Energy of Binding    =   -8.78 kcal/mol  [=(1)+(2)+(3)-(4)]
DOCKED: USER    Estimated Inhibition Constant, Ki   =  368.18 nM (nanomolar)  [Temperature = 298.15 K]
DOCKED: USER    
DOCKED: USER    (1) Final Intermolecular Energy     =  -10.87 kcal/mol
DOCKED: USER        vdW + Hbond + desolv Energy     =  -10.87 kcal/mol
DOCKED: USER        Electrostatic Energy            =   +0.00 kcal/mol
DOCKED: USER    (2) Final Total Internal Energy     =   -1.96 kcal/mol
DOCKED: USER    (3) Torsional Free Energy           =   +2.09 kcal/mol
DOCKED: USER    (4) Unbound System's Energy  [=(2)] =   -1.96 kcal/mol
DOCKED: USER    
DOCKED: USER    
DOCKED: USER    NEWDPF move ligand.pdbqt
DOCKED: USER    NEWDPF about 1.179000 0.138000 -0.353000
DOCKED: USER    NEWDPF tran0 15.265354 -9.398965 0.043854
DOCKED: USER    NEWDPF quaternion0 -0.868691 0.247533 -0.007332 0.429011
DOCKED: USER    NEWDPF axisangle0 -0.961686 0.274032 -0.008117 129.190380
DOCKED: USER    NEWDPF quat0 -0.961686 0.274032 -0.008117 129.190380
DOCKED: USER    NEWDPF dihe0 -3.99 175.57 176.21 -123.83 46.02 144.12 -101.51 
DOCKED: USER  keepresnum = 1 
DOCKED: USER  
DOCKED: REMARK  Name = 
DOCKED: REMARK  11 active torsions:
DOCKED: REMARK  status: ('A' for Active; 'I' for Inactive)
DOCKED: REMARK    1  A    between atoms: C_1  and  N_2
DOCKED: REMARK    2  A    between atoms: N_2  and  C_3
DOCKED: REMARK    3  A    between atoms: N_2  and  C_22
DOCKED: REMARK    4  A    between atoms: C_6  and  C_9
DOCKED: REMARK    5  A    between atoms: C_9  and  C_10
DOCKED: REMARK    6  A    between atoms: C_10  and  C_11
DOCKED: REMARK    7  A    between atoms: C_10  and  C_20
DOCKED: REMARK    8  A    between atoms: C_12  and  C_13
DOCKED: REMARK    9  A    between atoms: C_12  and  C_19
DOCKED: REMARK   10  A    between atoms: C_14  and  C_15
DOCKED: REMARK   11  A    between atoms: N_16  and  O_17
DOCKED: REMARK                            x       y       z     vdW  Elec       q    Type
DOCKED: REMARK                         _______ _______ _______ _____ _____    ______ ____
DOCKED: USER                              x       y       z     vdW  Elec       q    Type
DOCKED: USER                           _______ _______ _______ _____ _____    ______ ____
DOCKED: ROOT
DOCKED: ATOM      1  C   UNL     1      14.862 -10.414  -1.535 -0.30 -0.00    +0.000 C 
DOCKED: ATOM      2  C   UNL     1      14.626 -11.443  -2.645 -0.31 -0.00    +0.000 C 
DOCKED: ENDROOT
DOCKED: BRANCH   1   3
DOCKED: ATOM      3  C   UNL     1      16.090 -10.779  -0.726 -0.33 -0.00    +0.000 C 
DOCKED: ATOM      4  C   UNL     1      16.266 -11.959  -0.096 -0.47 +0.00    +0.000 C 
DOCKED: ATOM      5  C   UNL     1      15.213 -13.046  -0.131 -0.56 +0.00    +0.000 C 
DOCKED: BRANCH   4   6
DOCKED: ATOM      6  C   UNL     1      17.509 -12.144   0.697 -0.54 +0.00    +0.000 C 
DOCKED: ATOM      7  C   UNL     1      18.117 -11.144   1.352 -0.51 -0.00    +0.000 C 
DOCKED: BRANCH   7   8
DOCKED: ATOM      8  C   UNL     1      19.353 -11.321   2.142 -0.69 -0.00    +0.000 C 
DOCKED: ATOM      9  N   UNL     1      19.823 -10.332   3.066 -0.63 -0.00    +0.000 N 
DOCKED: ATOM     10  O   UNL     1      20.000 -12.395   2.009 -1.70 -0.00    +0.000 OA
DOCKED: ATOM     11  H   UNL     1      19.273  -9.537   3.254 -0.34 -0.00    +0.000 HD
DOCKED: BRANCH   9  12
DOCKED: ATOM     12  O   UNL     1      21.017 -10.489   3.683 -0.68 -0.00    +0.000 OA
DOCKED: ATOM     13  H   UNL     1      21.398 -11.347   3.439 -0.52 -0.00    +0.000 HD
DOCKED: ENDBRANCH   9  12
DOCKED: ENDBRANCH   7   8
DOCKED: ENDBRANCH   4   6
DOCKED: ENDBRANCH   1   3
DOCKED: BRANCH   1  14
DOCKED: ATOM     14  C   UNL     1      13.641 -10.342  -0.642 -0.27 +0.00    +0.000 C 
DOCKED: ATOM     15  O   UNL     1      12.529 -10.718  -1.105 -0.32 +0.00    +0.000 OA
DOCKED: BRANCH  14  19
DOCKED: ATOM     16  C   UNL     1      13.820  -8.890   3.427 -0.25 +0.00    +0.000 A 
DOCKED: ATOM     17  C   UNL     1      13.575 -10.249   3.145 -0.27 +0.00    +0.000 A 
DOCKED: ATOM     18  C   UNL     1      13.516 -10.708   1.827 -0.30 +0.00    +0.000 A 
DOCKED: ATOM     19  C   UNL     1      13.706  -9.827   0.751 -0.19 +0.00    +0.000 A 
DOCKED: ATOM     20  C   UNL     1      13.941  -8.469   1.025 -0.19 +0.00    +0.000 A 
DOCKED: ATOM     21  C   UNL     1      13.999  -8.007   2.343 -0.20 +0.00    +0.000 A 
DOCKED: BRANCH  16  23
DOCKED: ATOM     22  C   UNL     1      13.187  -9.132   5.871 -0.48 +0.00    +0.000 C 
DOCKED: ATOM     23  N   UNL     1      13.882  -8.411   4.797 -0.35 +0.00    +0.000 N 
DOCKED: ATOM     24  C   UNL     1      14.637  -7.198   5.131 -0.46 +0.00    +0.000 C 
DOCKED: ENDBRANCH  16  23
DOCKED: ENDBRANCH  14  19
DOCKED: ENDBRANCH   1  14
DOCKED: TORSDOF 7
DOCKED: TER
DOCKED: ENDMDL
________________________________________________________________________________


	BEGINNING GENETIC ALGORITHM DOCKING 96 of 100
Run: 96 Seed: 1914012832 1553234359 [ Run 96 of 100 GA/GALS ]
Beginning LAMARCKIAN GENETIC ALGORITHM (LGA), with a maximum of 2500000 energy evaluations.

Final-Value: -12.885


	FINAL GENETIC ALGORITHM DOCKED STATE
	_______________________________________________


Detailed state:  trans 15.337 -8.271 2.211 quatxyzw 0.689146 -0.105025 -0.259516 -0.668356 center 1.179 0.138 -0.353 ntor 7 -9.8216 175.7693 -130.8987 151.4015 -148.9197 134.3910 -75.8510
State:	 15.337  -8.271   2.211   0.926 -0.141 -0.349 -96.119     -9.82  175.77 -130.90  151.40 -148.92  134.39  -75.85

DOCKED: MODEL       96
DOCKED: USER    Run = 96
DOCKED: USER    DPF = ligand_dock.biased.dpf
DOCKED: USER  
DOCKED: USER    Estimated Free Energy of Binding    =   -9.13 kcal/mol  [=(1)+(2)+(3)-(4)]
DOCKED: USER    Estimated Inhibition Constant, Ki   =  203.05 nM (nanomolar)  [Temperature = 298.15 K]
DOCKED: USER    
DOCKED: USER    (1) Final Intermolecular Energy     =  -11.22 kcal/mol
DOCKED: USER        vdW + Hbond + desolv Energy     =  -11.22 kcal/mol
DOCKED: USER        Electrostatic Energy            =   +0.00 kcal/mol
DOCKED: USER    (2) Final Total Internal Energy     =   -1.67 kcal/mol
DOCKED: USER    (3) Torsional Free Energy           =   +2.09 kcal/mol
DOCKED: USER    (4) Unbound System's Energy  [=(2)] =   -1.67 kcal/mol
DOCKED: USER    
DOCKED: USER    
DOCKED: USER    NEWDPF move ligand.pdbqt
DOCKED: USER    NEWDPF about 1.179000 0.138000 -0.353000
DOCKED: USER    NEWDPF tran0 15.336551 -8.271096 2.211239
DOCKED: USER    NEWDPF quaternion0 0.689146 -0.105025 -0.259516 -0.668356
DOCKED: USER    NEWDPF axisangle0 0.926468 -0.141192 -0.348886 -96.119458
DOCKED: USER    NEWDPF quat0 0.926468 -0.141192 -0.348886 -96.119458
DOCKED: USER    NEWDPF dihe0 -9.82 175.77 -130.90 151.40 -148.92 134.39 -75.85 
DOCKED: USER  keepresnum = 1 
DOCKED: USER  
DOCKED: REMARK  Name = 
DOCKED: REMARK  11 active torsions:
DOCKED: REMARK  status: ('A' for Active; 'I' for Inactive)
DOCKED: REMARK    1  A    between atoms: C_1  and  N_2
DOCKED: REMARK    2  A    between atoms: N_2  and  C_3
DOCKED: REMARK    3  A    between atoms: N_2  and  C_22
DOCKED: REMARK    4  A    between atoms: C_6  and  C_9
DOCKED: REMARK    5  A    between atoms: C_9  and  C_10
DOCKED: REMARK    6  A    between atoms: C_10  and  C_11
DOCKED: REMARK    7  A    between atoms: C_10  and  C_20
DOCKED: REMARK    8  A    between atoms: C_12  and  C_13
DOCKED: REMARK    9  A    between atoms: C_12  and  C_19
DOCKED: REMARK   10  A    between atoms: C_14  and  C_15
DOCKED: REMARK   11  A    between atoms: N_16  and  O_17
DOCKED: REMARK                            x       y       z     vdW  Elec       q    Type
DOCKED: REMARK                         _______ _______ _______ _____ _____    ______ ____
DOCKED: USER                              x       y       z     vdW  Elec       q    Type
DOCKED: USER                           _______ _______ _______ _____ _____    ______ ____
DOCKED: ROOT
DOCKED: ATOM      1  C   UNL     1      14.089  -9.686   1.857 -0.26 +0.00    +0.000 C 
DOCKED: ATOM      2  C   UNL     1      13.275 -10.976   1.713 -0.37 +0.00    +0.000 C 
DOCKED: ENDROOT
DOCKED: BRANCH   1   3
DOCKED: ATOM      3  C   UNL     1      15.572  -9.985   1.780 -0.35 +0.00    +0.000 C 
DOCKED: ATOM      4  C   UNL     1      16.255 -10.701   2.696 -0.48 +0.00    +0.000 C 
DOCKED: ATOM      5  C   UNL     1      15.581 -11.272   3.926 -0.53 +0.00    +0.000 C 
DOCKED: BRANCH   4   6
DOCKED: ATOM      6  C   UNL     1      17.720 -10.865   2.500 -0.53 +0.00    +0.000 C 
DOCKED: ATOM      7  C   UNL     1      18.262 -11.303   1.354 -0.54 -0.00    +0.000 C 
DOCKED: BRANCH   7   8
DOCKED: ATOM      8  C   UNL     1      19.716 -11.468   1.153 -0.69 -0.00    +0.000 C 
DOCKED: ATOM      9  N   UNL     1      20.463 -10.653   0.240 -0.60 -0.00    +0.000 N 
DOCKED: ATOM     10  O   UNL     1      20.319 -12.344   1.831 -1.67 -0.00    +0.000 OA
DOCKED: ATOM     11  H   UNL     1      20.023  -9.900  -0.217 -0.02 -0.00    +0.000 HD
DOCKED: BRANCH   9  12
DOCKED: ATOM     12  O   UNL     1      21.770 -10.915   0.007 -0.73 -0.00    +0.000 OA
DOCKED: ATOM     13  H   UNL     1      22.086 -11.578   0.641 -0.55 -0.00    +0.000 HD
DOCKED: ENDBRANCH   9  12
DOCKED: ENDBRANCH   7   8
DOCKED: ENDBRANCH   4   6
DOCKED: ENDBRANCH   1   3
DOCKED: BRANCH   1  14
DOCKED: ATOM     14  C   UNL     1      13.750  -9.017   3.172 -0.28 +0.00    +0.000 C 
DOCKED: ATOM     15  O   UNL     1      12.944  -9.593   3.956 -0.31 +0.00    +0.000 OA
DOCKED: BRANCH  14  19
DOCKED: ATOM     16  C   UNL     1      15.387  -5.165   4.262 -0.36 +0.00    +0.000 A 
DOCKED: ATOM     17  C   UNL     1      14.711  -5.354   3.039 -0.24 +0.00    +0.000 A 
DOCKED: ATOM     18  C   UNL     1      14.188  -6.603   2.695 -0.21 +0.00    +0.000 A 
DOCKED: ATOM     19  C   UNL     1      14.318  -7.700   3.562 -0.26 +0.00    +0.000 A 
DOCKED: ATOM     20  C   UNL     1      14.999  -7.521   4.778 -0.36 +0.00    +0.000 A 
DOCKED: ATOM     21  C   UNL     1      15.524  -6.272   5.123 -0.40 +0.00    +0.000 A 
DOCKED: BRANCH  16  23
DOCKED: ATOM     22  C   UNL     1      16.281  -2.892   3.582 -0.48 -0.00    +0.000 C 
DOCKED: ATOM     23  N   UNL     1      15.930  -3.868   4.621 -0.48 -0.00    +0.000 N 
DOCKED: ATOM     24  C   UNL     1      16.141  -3.510   6.029 -0.51 -0.00    +0.000 C 
DOCKED: ENDBRANCH  16  23
DOCKED: ENDBRANCH  14  19
DOCKED: ENDBRANCH   1  14
DOCKED: TORSDOF 7
DOCKED: TER
DOCKED: ENDMDL
________________________________________________________________________________


	BEGINNING GENETIC ALGORITHM DOCKING 97 of 100
Run: 97 Seed: 506349145 960441042 [ Run 97 of 100 GA/GALS ]
Beginning LAMARCKIAN GENETIC ALGORITHM (LGA), with a maximum of 2500000 energy evaluations.

Final-Value: -13.359


	FINAL GENETIC ALGORITHM DOCKED STATE
	_______________________________________________


Detailed state:  trans 19.869 -8.932 -2.827 quatxyzw 0.727600 -0.563571 0.300652 -0.250187 center 1.179 0.138 -0.353 ntor 7 18.5211 54.2001 140.2835 64.5222 -88.8582 -16.1323 136.4305
State:	 19.869  -8.932  -2.827   0.751 -0.582  0.311 -151.023     18.52   54.20  140.28   64.52  -88.86  -16.13  136.43

DOCKED: MODEL       97
DOCKED: USER    Run = 97
DOCKED: USER    DPF = ligand_dock.biased.dpf
DOCKED: USER  
DOCKED: USER    Estimated Free Energy of Binding    =   -9.82 kcal/mol  [=(1)+(2)+(3)-(4)]
DOCKED: USER    Estimated Inhibition Constant, Ki   =   63.22 nM (nanomolar)  [Temperature = 298.15 K]
DOCKED: USER    
DOCKED: USER    (1) Final Intermolecular Energy     =  -11.91 kcal/mol
DOCKED: USER        vdW + Hbond + desolv Energy     =  -11.91 kcal/mol
DOCKED: USER        Electrostatic Energy            =   +0.00 kcal/mol
DOCKED: USER    (2) Final Total Internal Energy     =   -1.45 kcal/mol
DOCKED: USER    (3) Torsional Free Energy           =   +2.09 kcal/mol
DOCKED: USER    (4) Unbound System's Energy  [=(2)] =   -1.45 kcal/mol
DOCKED: USER    
DOCKED: USER    
DOCKED: USER    NEWDPF move ligand.pdbqt
DOCKED: USER    NEWDPF about 1.179000 0.138000 -0.353000
DOCKED: USER    NEWDPF tran0 19.868577 -8.932254 -2.827065
DOCKED: USER    NEWDPF quaternion0 0.727600 -0.563571 0.300652 -0.250187
DOCKED: USER    NEWDPF axisangle0 0.751500 -0.582083 0.310528 -151.022885
DOCKED: USER    NEWDPF quat0 0.751500 -0.582083 0.310528 -151.022885
DOCKED: USER    NEWDPF dihe0 18.52 54.20 140.28 64.52 -88.86 -16.13 136.43 
DOCKED: USER  keepresnum = 1 
DOCKED: USER  
DOCKED: REMARK  Name = 
DOCKED: REMARK  11 active torsions:
DOCKED: REMARK  status: ('A' for Active; 'I' for Inactive)
DOCKED: REMARK    1  A    between atoms: C_1  and  N_2
DOCKED: REMARK    2  A    between atoms: N_2  and  C_3
DOCKED: REMARK    3  A    between atoms: N_2  and  C_22
DOCKED: REMARK    4  A    between atoms: C_6  and  C_9
DOCKED: REMARK    5  A    between atoms: C_9  and  C_10
DOCKED: REMARK    6  A    between atoms: C_10  and  C_11
DOCKED: REMARK    7  A    between atoms: C_10  and  C_20
DOCKED: REMARK    8  A    between atoms: C_12  and  C_13
DOCKED: REMARK    9  A    between atoms: C_12  and  C_19
DOCKED: REMARK   10  A    between atoms: C_14  and  C_15
DOCKED: REMARK   11  A    between atoms: N_16  and  O_17
DOCKED: REMARK                            x       y       z     vdW  Elec       q    Type
DOCKED: REMARK                         _______ _______ _______ _____ _____    ______ ____
DOCKED: USER                              x       y       z     vdW  Elec       q    Type
DOCKED: USER                           _______ _______ _______ _____ _____    ______ ____
DOCKED: ROOT
DOCKED: ATOM      1  C   UNL     1      20.567  -9.923  -4.315 -0.41 -0.00    +0.000 C 
DOCKED: ATOM      2  C   UNL     1      20.990 -10.930  -5.390 -0.49 -0.00    +0.000 C 
DOCKED: ENDROOT
DOCKED: BRANCH   1   3
DOCKED: ATOM      3  C   UNL     1      20.510 -10.591  -2.957 -0.51 -0.00    +0.000 C 
DOCKED: ATOM      4  C   UNL     1      20.868  -9.999  -1.799 -0.60 -0.00    +0.000 C 
DOCKED: ATOM      5  C   UNL     1      21.390  -8.579  -1.759 -0.52 -0.00    +0.000 C 
DOCKED: BRANCH   4   6
DOCKED: ATOM      6  C   UNL     1      20.799 -10.808  -0.554 -0.61 -0.00    +0.000 C 
DOCKED: ATOM      7  C   UNL     1      20.339 -10.325   0.609 -0.65 -0.00    +0.000 C 
DOCKED: BRANCH   7   8
DOCKED: ATOM      8  C   UNL     1      20.268 -11.124   1.850 -0.75 -0.00    +0.000 C 
DOCKED: ATOM      9  N   UNL     1      20.217 -10.521   3.150 -0.69 -0.00    +0.000 N 
DOCKED: ATOM     10  O   UNL     1      20.227 -12.380   1.753 -1.71 -0.00    +0.000 OA
DOCKED: ATOM     11  H   UNL     1      20.145  -9.543   3.234 -0.57 -0.00    +0.000 HD
DOCKED: BRANCH   9  12
DOCKED: ATOM     12  O   UNL     1      20.267 -11.293   4.260 -0.79 -0.00    +0.000 OA
DOCKED: ATOM     13  H   UNL     1      20.623 -12.167   4.033 -0.52 -0.00    +0.000 HD
DOCKED: ENDBRANCH   9  12
DOCKED: ENDBRANCH   7   8
DOCKED: ENDBRANCH   4   6
DOCKED: ENDBRANCH   1   3
DOCKED: BRANCH   1  14
DOCKED: ATOM     14  C   UNL     1      19.219  -9.334  -4.675 -0.25 -0.00    +0.000 C 
DOCKED: ATOM     15  O   UNL     1      18.991  -8.125  -4.394 -0.21 -0.00    +0.000 OA
DOCKED: BRANCH  14  19
DOCKED: ATOM     16  C   UNL     1      16.087 -11.664  -6.537 -0.29 -0.00    +0.000 A 
DOCKED: ATOM     17  C   UNL     1      15.944 -11.158  -5.229 -0.18 -0.00    +0.000 A 
DOCKED: ATOM     18  C   UNL     1      16.963 -10.410  -4.635 -0.21 -0.00    +0.000 A 
DOCKED: ATOM     19  C   UNL     1      18.152 -10.136  -5.329 -0.23 -0.00    +0.000 A 
DOCKED: ATOM     20  C   UNL     1      18.305 -10.645  -6.630 -0.29 -0.00    +0.000 A 
DOCKED: ATOM     21  C   UNL     1      17.288 -11.396  -7.226 -0.34 -0.00    +0.000 A 
DOCKED: BRANCH  16  23
DOCKED: ATOM     22  C   UNL     1      15.352 -13.533  -8.084 -0.47 +0.00    +0.000 C 
DOCKED: ATOM     23  N   UNL     1      15.030 -12.442  -7.156 -0.35 -0.00    +0.000 N 
DOCKED: ATOM     24  C   UNL     1      13.620 -12.151  -6.867 -0.29 -0.00    +0.000 C 
DOCKED: ENDBRANCH  16  23
DOCKED: ENDBRANCH  14  19
DOCKED: ENDBRANCH   1  14
DOCKED: TORSDOF 7
DOCKED: TER
DOCKED: ENDMDL
________________________________________________________________________________


	BEGINNING GENETIC ALGORITHM DOCKING 98 of 100
Run: 98 Seed: 1040144069 697827851 [ Run 98 of 100 GA/GALS ]
Beginning LAMARCKIAN GENETIC ALGORITHM (LGA), with a maximum of 2500000 energy evaluations.

Final-Value: -12.944


	FINAL GENETIC ALGORITHM DOCKED STATE
	_______________________________________________


Detailed state:  trans 21.826 -7.983 -2.105 quatxyzw -0.504448 0.776537 -0.192272 0.324891 center 1.179 0.138 -0.353 ntor 7 32.9447 179.9130 -128.0625 180.0000 74.0465 149.6350 -69.8226
State:	 21.826  -7.983  -2.105  -0.533  0.821 -0.203 142.082     32.94  179.91 -128.06  180.00   74.05  149.64  -69.82

DOCKED: MODEL       98
DOCKED: USER    Run = 98
DOCKED: USER    DPF = ligand_dock.biased.dpf
DOCKED: USER  
DOCKED: USER    Estimated Free Energy of Binding    =   -9.45 kcal/mol  [=(1)+(2)+(3)-(4)]
DOCKED: USER    Estimated Inhibition Constant, Ki   =  117.85 nM (nanomolar)  [Temperature = 298.15 K]
DOCKED: USER    
DOCKED: USER    (1) Final Intermolecular Energy     =  -11.54 kcal/mol
DOCKED: USER        vdW + Hbond + desolv Energy     =  -11.54 kcal/mol
DOCKED: USER        Electrostatic Energy            =   +0.00 kcal/mol
DOCKED: USER    (2) Final Total Internal Energy     =   -1.40 kcal/mol
DOCKED: USER    (3) Torsional Free Energy           =   +2.09 kcal/mol
DOCKED: USER    (4) Unbound System's Energy  [=(2)] =   -1.40 kcal/mol
DOCKED: USER    
DOCKED: USER    
DOCKED: USER    NEWDPF move ligand.pdbqt
DOCKED: USER    NEWDPF about 1.179000 0.138000 -0.353000
DOCKED: USER    NEWDPF tran0 21.826490 -7.983405 -2.104569
DOCKED: USER    NEWDPF quaternion0 -0.504448 0.776537 -0.192272 0.324891
DOCKED: USER    NEWDPF axisangle0 -0.533384 0.821079 -0.203301 142.082099
DOCKED: USER    NEWDPF quat0 -0.533384 0.821079 -0.203301 142.082099
DOCKED: USER    NEWDPF dihe0 32.94 179.91 -128.06 180.00 74.05 149.64 -69.82 
DOCKED: USER  keepresnum = 1 
DOCKED: USER  
DOCKED: REMARK  Name = 
DOCKED: REMARK  11 active torsions:
DOCKED: REMARK  status: ('A' for Active; 'I' for Inactive)
DOCKED: REMARK    1  A    between atoms: C_1  and  N_2
DOCKED: REMARK    2  A    between atoms: N_2  and  C_3
DOCKED: REMARK    3  A    between atoms: N_2  and  C_22
DOCKED: REMARK    4  A    between atoms: C_6  and  C_9
DOCKED: REMARK    5  A    between atoms: C_9  and  C_10
DOCKED: REMARK    6  A    between atoms: C_10  and  C_11
DOCKED: REMARK    7  A    between atoms: C_10  and  C_20
DOCKED: REMARK    8  A    between atoms: C_12  and  C_13
DOCKED: REMARK    9  A    between atoms: C_12  and  C_19
DOCKED: REMARK   10  A    between atoms: C_14  and  C_15
DOCKED: REMARK   11  A    between atoms: N_16  and  O_17
DOCKED: REMARK                            x       y       z     vdW  Elec       q    Type
DOCKED: REMARK                         _______ _______ _______ _____ _____    ______ ____
DOCKED: USER                              x       y       z     vdW  Elec       q    Type
DOCKED: USER                           _______ _______ _______ _____ _____    ______ ____
DOCKED: ROOT
DOCKED: ATOM      1  C   UNL     1      21.768  -9.150  -3.627 -0.33 -0.00    +0.000 C 
DOCKED: ATOM      2  C   UNL     1      21.480 -10.170  -4.734 -0.45 -0.00    +0.000 C 
DOCKED: ENDROOT
DOCKED: BRANCH   1   3
DOCKED: ATOM      3  C   UNL     1      21.295  -9.675  -2.288 -0.56 -0.00    +0.000 C 
DOCKED: ATOM      4  C   UNL     1      20.061 -10.167  -2.053 -0.50 -0.00    +0.000 C 
DOCKED: ATOM      5  C   UNL     1      19.006 -10.223  -3.137 -0.37 -0.00    +0.000 C 
DOCKED: BRANCH   4   6
DOCKED: ATOM      6  C   UNL     1      19.737 -10.599  -0.668 -0.54 -0.00    +0.000 C 
DOCKED: ATOM      7  C   UNL     1      20.671 -10.952   0.227 -0.68 -0.00    +0.000 C 
DOCKED: BRANCH   7   8
DOCKED: ATOM      8  C   UNL     1      20.355 -11.383   1.605 -0.76 -0.00    +0.000 C 
DOCKED: ATOM      9  N   UNL     1      20.664 -10.579   2.751 -0.60 -0.00    +0.000 N 
DOCKED: ATOM     10  O   UNL     1      19.771 -12.488   1.768 -1.67 -0.00    +0.000 OA
DOCKED: ATOM     11  H   UNL     1      21.026  -9.671   2.630 -0.58 -0.00    +0.000 HD
DOCKED: BRANCH   9  12
DOCKED: ATOM     12  O   UNL     1      20.458 -11.064   3.998 -0.78 -0.00    +0.000 OA
DOCKED: ATOM     13  H   UNL     1      20.612 -12.022   4.003 -0.52 -0.00    +0.000 HD
DOCKED: ENDBRANCH   9  12
DOCKED: ENDBRANCH   7   8
DOCKED: ENDBRANCH   4   6
DOCKED: ENDBRANCH   1   3
DOCKED: BRANCH   1  14
DOCKED: ATOM     14  C   UNL     1      21.084  -7.840  -3.956 -0.34 -0.00    +0.000 C 
DOCKED: ATOM     15  O   UNL     1      20.276  -7.803  -4.924 -0.19 -0.00    +0.000 OA
DOCKED: BRANCH  14  19
DOCKED: ATOM     16  C   UNL     1      21.817  -4.230  -1.689 -0.35 +0.00    +0.000 A 
DOCKED: ATOM     17  C   UNL     1      20.895  -5.199  -1.244 -0.36 +0.00    +0.000 A 
DOCKED: ATOM     18  C   UNL     1      20.663  -6.360  -1.985 -0.20 -0.00    +0.000 A 
DOCKED: ATOM     19  C   UNL     1      21.348  -6.594  -3.189 -0.34 -0.00    +0.000 A 
DOCKED: ATOM     20  C   UNL     1      22.261  -5.627  -3.643 -0.17 -0.00    +0.000 A 
DOCKED: ATOM     21  C   UNL     1      22.493  -4.463  -2.903 -0.25 -0.00    +0.000 A 
DOCKED: BRANCH  16  23
DOCKED: ATOM     22  C   UNL     1      21.075  -2.555   0.064 -0.42 -0.00    +0.000 C 
DOCKED: ATOM     23  N   UNL     1      22.059  -3.022  -0.921 -0.32 +0.00    +0.000 N 
DOCKED: ATOM     24  C   UNL     1      23.289  -2.246  -1.116 -0.28 -0.00    +0.000 C 
DOCKED: ENDBRANCH  16  23
DOCKED: ENDBRANCH  14  19
DOCKED: ENDBRANCH   1  14
DOCKED: TORSDOF 7
DOCKED: TER
DOCKED: ENDMDL
________________________________________________________________________________


	BEGINNING GENETIC ALGORITHM DOCKING 99 of 100
Run: 99 Seed: 1371267095 1035427357 [ Run 99 of 100 GA/GALS ]
Beginning LAMARCKIAN GENETIC ALGORITHM (LGA), with a maximum of 2500000 energy evaluations.

Final-Value: -13.118


	FINAL GENETIC ALGORITHM DOCKED STATE
	_______________________________________________


Detailed state:  trans 21.412 -8.664 -2.459 quatxyzw -0.541852 0.736847 -0.224756 0.336062 center 1.179 0.138 -0.353 ntor 7 29.4969 99.1271 -159.1649 -137.3716 140.5040 131.8382 -71.1863
State:	 21.412  -8.664  -2.459  -0.575  0.782 -0.239 140.726     29.50   99.13 -159.16 -137.37  140.50  131.84  -71.19

DOCKED: MODEL       99
DOCKED: USER    Run = 99
DOCKED: USER    DPF = ligand_dock.biased.dpf
DOCKED: USER  
DOCKED: USER    Estimated Free Energy of Binding    =   -9.58 kcal/mol  [=(1)+(2)+(3)-(4)]
DOCKED: USER    Estimated Inhibition Constant, Ki   =   94.84 nM (nanomolar)  [Temperature = 298.15 K]
DOCKED: USER    
DOCKED: USER    (1) Final Intermolecular Energy     =  -11.67 kcal/mol
DOCKED: USER        vdW + Hbond + desolv Energy     =  -11.67 kcal/mol
DOCKED: USER        Electrostatic Energy            =   +0.00 kcal/mol
DOCKED: USER    (2) Final Total Internal Energy     =   -1.45 kcal/mol
DOCKED: USER    (3) Torsional Free Energy           =   +2.09 kcal/mol
DOCKED: USER    (4) Unbound System's Energy  [=(2)] =   -1.45 kcal/mol
DOCKED: USER    
DOCKED: USER    
DOCKED: USER    NEWDPF move ligand.pdbqt
DOCKED: USER    NEWDPF about 1.179000 0.138000 -0.353000
DOCKED: USER    NEWDPF tran0 21.412144 -8.663690 -2.458577
DOCKED: USER    NEWDPF quaternion0 -0.541852 0.736847 -0.224756 0.336062
DOCKED: USER    NEWDPF axisangle0 -0.575312 0.782349 -0.238635 140.725697
DOCKED: USER    NEWDPF quat0 -0.575312 0.782349 -0.238635 140.725697
DOCKED: USER    NEWDPF dihe0 29.50 99.13 -159.16 -137.37 140.50 131.84 -71.19 
DOCKED: USER  keepresnum = 1 
DOCKED: USER  
DOCKED: REMARK  Name = 
DOCKED: REMARK  11 active torsions:
DOCKED: REMARK  status: ('A' for Active; 'I' for Inactive)
DOCKED: REMARK    1  A    between atoms: C_1  and  N_2
DOCKED: REMARK    2  A    between atoms: N_2  and  C_3
DOCKED: REMARK    3  A    between atoms: N_2  and  C_22
DOCKED: REMARK    4  A    between atoms: C_6  and  C_9
DOCKED: REMARK    5  A    between atoms: C_9  and  C_10
DOCKED: REMARK    6  A    between atoms: C_10  and  C_11
DOCKED: REMARK    7  A    between atoms: C_10  and  C_20
DOCKED: REMARK    8  A    between atoms: C_12  and  C_13
DOCKED: REMARK    9  A    between atoms: C_12  and  C_19
DOCKED: REMARK   10  A    between atoms: C_14  and  C_15
DOCKED: REMARK   11  A    between atoms: N_16  and  O_17
DOCKED: REMARK                            x       y       z     vdW  Elec       q    Type
DOCKED: REMARK                         _______ _______ _______ _____ _____    ______ ____
DOCKED: USER                              x       y       z     vdW  Elec       q    Type
DOCKED: USER                           _______ _______ _______ _____ _____    ______ ____
DOCKED: ROOT
DOCKED: ATOM      1  C   UNL     1      21.456  -9.910  -3.918 -0.46 -0.00    +0.000 C 
DOCKED: ATOM      2  C   UNL     1      21.263 -11.014  -4.962 -0.53 -0.00    +0.000 C 
DOCKED: ENDROOT
DOCKED: BRANCH   1   3
DOCKED: ATOM      3  C   UNL     1      21.075 -10.413  -2.540 -0.56 -0.00    +0.000 C 
DOCKED: ATOM      4  C   UNL     1      19.817 -10.710  -2.157 -0.46 -0.00    +0.000 C 
DOCKED: ATOM      5  C   UNL     1      18.639 -10.548  -3.093 -0.35 -0.00    +0.000 C 
DOCKED: BRANCH   4   6
DOCKED: ATOM      6  C   UNL     1      19.603 -11.147  -0.752 -0.48 -0.00    +0.000 C 
DOCKED: ATOM      7  C   UNL     1      20.483 -10.907   0.232 -0.68 -0.00    +0.000 C 
DOCKED: BRANCH   7   8
DOCKED: ATOM      8  C   UNL     1      20.276 -11.338   1.630 -0.76 -0.00    +0.000 C 
DOCKED: ATOM      9  N   UNL     1      20.646 -10.522   2.749 -0.61 -0.00    +0.000 N 
DOCKED: ATOM     10  O   UNL     1      19.733 -12.457   1.838 -1.66 -0.00    +0.000 OA
DOCKED: ATOM     11  H   UNL     1      20.976  -9.606   2.599 -0.56 -0.00    +0.000 HD
DOCKED: BRANCH   9  12
DOCKED: ATOM     12  O   UNL     1      20.542 -11.006   4.009 -0.77 -0.00    +0.000 OA
DOCKED: ATOM     13  H   UNL     1      20.665 -11.968   3.998 -0.53 -0.00    +0.000 HD
DOCKED: ENDBRANCH   9  12
DOCKED: ENDBRANCH   7   8
DOCKED: ENDBRANCH   4   6
DOCKED: ENDBRANCH   1   3
DOCKED: BRANCH   1  14
DOCKED: ATOM     14  C   UNL     1      20.619  -8.706  -4.293 -0.32 -0.00    +0.000 C 
DOCKED: ATOM     15  O   UNL     1      19.809  -8.806  -5.257 -0.18 -0.00    +0.000 OA
DOCKED: BRANCH  14  19
DOCKED: ATOM     16  C   UNL     1      20.971  -4.951  -2.177 -0.37 -0.00    +0.000 A 
DOCKED: ATOM     17  C   UNL     1      21.476  -6.149  -1.631 -0.27 +0.00    +0.000 A 
DOCKED: ATOM     18  C   UNL     1      21.354  -7.357  -2.321 -0.42 -0.00    +0.000 A 
DOCKED: ATOM     19  C   UNL     1      20.732  -7.407  -3.579 -0.30 -0.00    +0.000 A 
DOCKED: ATOM     20  C   UNL     1      20.218  -6.218  -4.124 -0.19 -0.00    +0.000 A 
DOCKED: ATOM     21  C   UNL     1      20.337  -5.008  -3.434 -0.21 -0.00    +0.000 A 
DOCKED: BRANCH  16  23
DOCKED: ATOM     22  C   UNL     1      19.955  -3.138  -0.724 -0.36 -0.00    +0.000 C 
DOCKED: ATOM     23  N   UNL     1      21.096  -3.694  -1.461 -0.34 -0.00    +0.000 N 
DOCKED: ATOM     24  C   UNL     1      22.365  -2.956  -1.463 -0.30 -0.00    +0.000 C 
DOCKED: ENDBRANCH  16  23
DOCKED: ENDBRANCH  14  19
DOCKED: ENDBRANCH   1  14
DOCKED: TORSDOF 7
DOCKED: TER
DOCKED: ENDMDL
________________________________________________________________________________


	BEGINNING GENETIC ALGORITHM DOCKING 100 of 100
Run: 100 Seed: 366726675 1651457273 [ Run 100 of 100 GA/GALS ]
Beginning LAMARCKIAN GENETIC ALGORITHM (LGA), with a maximum of 2500000 energy evaluations.

Final-Value: -12.199


	FINAL GENETIC ALGORITHM DOCKED STATE
	_______________________________________________


Detailed state:  trans 19.796 -9.506 -3.810 quatxyzw 0.775631 -0.314401 0.469703 -0.280941 center 1.179 0.138 -0.353 ntor 7 -36.9654 -151.2019 -177.4889 151.9725 61.4655 -13.5355 -81.8593
State:	 19.796  -9.506  -3.810   0.808 -0.328  0.489 -147.367    -36.97 -151.20 -177.49  151.97   61.47  -13.54  -81.86

DOCKED: MODEL      100
DOCKED: USER    Run = 100
DOCKED: USER    DPF = ligand_dock.biased.dpf
DOCKED: USER  
DOCKED: USER    Estimated Free Energy of Binding    =   -8.22 kcal/mol  [=(1)+(2)+(3)-(4)]
DOCKED: USER    Estimated Inhibition Constant, Ki   =  944.60 nM (nanomolar)  [Temperature = 298.15 K]
DOCKED: USER    
DOCKED: USER    (1) Final Intermolecular Energy     =  -10.31 kcal/mol
DOCKED: USER        vdW + Hbond + desolv Energy     =  -10.31 kcal/mol
DOCKED: USER        Electrostatic Energy            =   +0.00 kcal/mol
DOCKED: USER    (2) Final Total Internal Energy     =   -1.89 kcal/mol
DOCKED: USER    (3) Torsional Free Energy           =   +2.09 kcal/mol
DOCKED: USER    (4) Unbound System's Energy  [=(2)] =   -1.89 kcal/mol
DOCKED: USER    
DOCKED: USER    
DOCKED: USER    NEWDPF move ligand.pdbqt
DOCKED: USER    NEWDPF about 1.179000 0.138000 -0.353000
DOCKED: USER    NEWDPF tran0 19.796319 -9.505917 -3.809757
DOCKED: USER    NEWDPF quaternion0 0.775631 -0.314401 0.469703 -0.280941
DOCKED: USER    NEWDPF axisangle0 0.808181 -0.327595 0.489414 -147.367213
DOCKED: USER    NEWDPF quat0 0.808181 -0.327595 0.489414 -147.367213
DOCKED: USER    NEWDPF dihe0 -36.97 -151.20 -177.49 151.97 61.47 -13.54 -81.86 
DOCKED: USER  keepresnum = 1 
DOCKED: USER  
DOCKED: REMARK  Name = 
DOCKED: REMARK  11 active torsions:
DOCKED: REMARK  status: ('A' for Active; 'I' for Inactive)
DOCKED: REMARK    1  A    between atoms: C_1  and  N_2
DOCKED: REMARK    2  A    between atoms: N_2  and  C_3
DOCKED: REMARK    3  A    between atoms: N_2  and  C_22
DOCKED: REMARK    4  A    between atoms: C_6  and  C_9
DOCKED: REMARK    5  A    between atoms: C_9  and  C_10
DOCKED: REMARK    6  A    between atoms: C_10  and  C_11
DOCKED: REMARK    7  A    between atoms: C_10  and  C_20
DOCKED: REMARK    8  A    between atoms: C_12  and  C_13
DOCKED: REMARK    9  A    between atoms: C_12  and  C_19
DOCKED: REMARK   10  A    between atoms: C_14  and  C_15
DOCKED: REMARK   11  A    between atoms: N_16  and  O_17
DOCKED: REMARK                            x       y       z     vdW  Elec       q    Type
DOCKED: REMARK                         _______ _______ _______ _____ _____    ______ ____
DOCKED: USER                              x       y       z     vdW  Elec       q    Type
DOCKED: USER                           _______ _______ _______ _____ _____    ______ ____
DOCKED: ROOT
DOCKED: ATOM      1  C   UNL     1      21.069 -10.479  -4.866 -0.46 -0.00    +0.000 C 
DOCKED: ATOM      2  C   UNL     1      22.048 -11.459  -5.522 -0.54 -0.00    +0.000 C 
DOCKED: ENDROOT
DOCKED: BRANCH   1   3
DOCKED: ATOM      3  C   UNL     1      21.126 -10.604  -3.358 -0.52 -0.00    +0.000 C 
DOCKED: ATOM      4  C   UNL     1      20.962  -9.577  -2.500 -0.54 -0.00    +0.000 C 
DOCKED: ATOM      5  C   UNL     1      20.715  -8.165  -2.986 -0.40 -0.00    +0.000 C 
DOCKED: BRANCH   4   6
DOCKED: ATOM      6  C   UNL     1      21.095  -9.857  -1.046 -0.66 -0.00    +0.000 C 
DOCKED: ATOM      7  C   UNL     1      20.433 -10.847  -0.427 -0.61 -0.00    +0.000 C 
DOCKED: BRANCH   7   8
DOCKED: ATOM      8  C   UNL     1      20.561 -11.130   1.018 -0.73 -0.00    +0.000 C 
DOCKED: ATOM      9  N   UNL     1      20.216 -12.400   1.585 -0.70 -0.00    +0.000 N 
DOCKED: ATOM     10  O   UNL     1      21.012 -10.224   1.769 -0.56 -0.00    +0.000 OA
DOCKED: ATOM     11  H   UNL     1      19.960 -13.147   0.996 -0.58 -0.00    +0.000 HD
DOCKED: BRANCH   9  12
DOCKED: ATOM     12  O   UNL     1      20.242 -12.576   2.927 -1.10 -0.00    +0.000 OA
DOCKED: ATOM     13  H   UNL     1      20.986 -12.081   3.304 -0.59 -0.00    +0.000 HD
DOCKED: ENDBRANCH   9  12
DOCKED: ENDBRANCH   7   8
DOCKED: ENDBRANCH   4   6
DOCKED: ENDBRANCH   1   3
DOCKED: BRANCH   1  14
DOCKED: ATOM     14  C   UNL     1      19.667 -10.750  -5.369 -0.40 -0.00    +0.000 C 
DOCKED: ATOM     15  O   UNL     1      19.499 -11.642  -6.247 -0.41 -0.00    +0.000 OA
DOCKED: BRANCH  14  19
DOCKED: ATOM     16  C   UNL     1      16.226  -8.577  -3.907 -0.14 -0.00    +0.000 A 
DOCKED: ATOM     17  C   UNL     1      16.591  -9.824  -3.359 -0.22 -0.00    +0.000 A 
DOCKED: ATOM     18  C   UNL     1      17.703 -10.519  -3.841 -0.16 -0.00    +0.000 A 
DOCKED: ATOM     19  C   UNL     1      18.488  -9.991  -4.878 -0.24 -0.00    +0.000 A 
DOCKED: ATOM     20  C   UNL     1      18.123  -8.754  -5.436 -0.14 -0.00    +0.000 A 
DOCKED: ATOM     21  C   UNL     1      17.009  -8.057  -4.956 -0.13 -0.00    +0.000 A 
DOCKED: BRANCH  16  23
DOCKED: ATOM     22  C   UNL     1      14.366  -8.310  -2.205 -0.20 -0.00    +0.000 C 
DOCKED: ATOM     23  N   UNL     1      15.070  -7.853  -3.409 -0.15 -0.00    +0.000 N 
DOCKED: ATOM     24  C   UNL     1      14.586  -6.653  -4.100 -0.12 -0.00    +0.000 C 
DOCKED: ENDBRANCH  16  23
DOCKED: ENDBRANCH  14  19
DOCKED: ENDBRANCH   1  14
DOCKED: TORSDOF 7
DOCKED: TER
DOCKED: ENDMDL
________________________________________________________________________________

DPF>                           # do this many hybrid GA-LS runs

DPF> analysis                             # perform a ranked cluster analysis


		CLUSTER ANALYSIS OF CONFORMATIONS
		_________________________________

Number of conformations = 100

RMSD cluster analysis will be performed using the ligand atoms only (24 / 24 total atoms).

Outputting structurally similar clusters, ranked in order of increasing energy.


________________________________________________________________________________

Number of distinct conformational clusters found = 20,  out of 100 runs,
Using an rmsd-tolerance of 2.0 A


	CLUSTERING HISTOGRAM
	____________________

________________________________________________________________________________
     |           |     |           |     |                                    
Clus | Lowest    | Run | Mean      | Num | Histogram                          
-ter | Binding   |     | Binding   | in  |                                    
Rank | Energy    |     | Energy    | Clus|    5    10   15   20   25   30   35
_____|___________|_____|___________|_____|____:____|____:____|____:____|____:___
   1 |    -10.59 |  75 |     -9.80 |  10 |##########
   2 |    -10.03 |  39 |     -9.68 |   5 |#####
   3 |     -9.95 |  31 |     -9.43 |  29 |#############################
   4 |     -9.75 |  63 |     -9.45 |   2 |##
   5 |     -9.60 |  80 |     -9.31 |  12 |############
   6 |     -9.54 |  47 |     -9.09 |   8 |########
   7 |     -9.38 |  55 |     -8.94 |   6 |######
   8 |     -9.11 |   9 |     -8.80 |   4 |####
   9 |     -9.01 |  49 |     -8.82 |   4 |####
  10 |     -8.93 |  43 |     -8.85 |   2 |##
  11 |     -8.88 |  89 |     -8.57 |   4 |####
  12 |     -8.74 |  11 |     -8.74 |   1 |#
  13 |     -8.59 |  73 |     -8.55 |   2 |##
  14 |     -8.54 |  86 |     -8.41 |   3 |###
  15 |     -8.47 |  87 |     -8.47 |   1 |#
  16 |     -8.26 |  56 |     -8.26 |   1 |#
  17 |     -8.22 |  10 |     -8.14 |   2 |##
  18 |     -8.20 |  32 |     -8.20 |   1 |#
  19 |     -8.16 |  12 |     -8.12 |   2 |##
  20 |     -7.92 |  45 |     -7.92 |   1 |#
_____|___________|_____|___________|_____|______________________________________


Number of multi-member conformational clusters found = 15, out of 100 runs.

	RMSD TABLE
	__________

_____________________________________________________________________
     |      |      |           |         |                 |
Rank | Sub- | Run  | Binding   | Cluster | Reference       | Grep
     | Rank |      | Energy    | RMSD    | RMSD            | Pattern
_____|______|______|___________|_________|_________________|___________
   1      1     75      -10.59      0.00     21.28           RANKING
   1      2     91      -10.46      0.75     21.15           RANKING
   1      3     48      -10.21      0.97     20.99           RANKING
   1      4     67      -10.09      0.87     21.13           RANKING
   1      5     27      -10.01      1.02     21.14           RANKING
   1      6     20       -9.92      0.88     21.18           RANKING
   1      7     61       -9.46      1.30     20.62           RANKING
   1      8     46       -9.28      0.93     20.90           RANKING
   1      9     64       -9.12      1.56     20.83           RANKING
   1     10      7       -8.87      1.34     20.70           RANKING
   2      1     39      -10.03      0.00     18.08           RANKING
   2      2     36       -9.80      0.94     18.14           RANKING
   2      3     81       -9.57      0.65     18.04           RANKING
   2      4     74       -9.50      1.19     18.20           RANKING
   2      5      4       -9.47      1.02     18.13           RANKING
   3      1     31       -9.95      0.00     18.99           RANKING
   3      2     30       -9.93      0.35     18.99           RANKING
   3      3     78       -9.88      0.33     18.88           RANKING
   3      4     72       -9.84      0.76     18.65           RANKING
   3      5     65       -9.84      0.32     19.03           RANKING
   3      6     85       -9.83      0.23     18.91           RANKING
   3      7     97       -9.82      0.90     18.70           RANKING
   3      8      6       -9.78      1.20     18.64           RANKING
   3      9     34       -9.74      1.11     18.54           RANKING
   3     10     92       -9.73      0.43     18.88           RANKING
   3     11     17       -9.67      0.76     18.82           RANKING
   3     12     77       -9.66      0.61     18.77           RANKING
   3     13     38       -9.62      0.65     18.77           RANKING
   3     14     69       -9.54      0.78     18.77           RANKING
   3     15     16       -9.33      1.04     18.38           RANKING
   3     16     58       -9.33      0.97     18.63           RANKING
   3     17     50       -9.30      1.31     18.41           RANKING
   3     18     42       -9.28      1.58     18.22           RANKING
   3     19     41       -9.26      1.04     18.61           RANKING
   3     20     40       -9.26      1.43     18.36           RANKING
   3     21     60       -9.19      1.72     19.14           RANKING
   3     22     79       -9.10      1.49     19.01           RANKING
   3     23     57       -9.10      1.03     18.50           RANKING
   3     24     25       -9.02      1.69     19.13           RANKING
   3     25     82       -9.00      1.65     18.21           RANKING
   3     26     68       -8.99      1.72     18.10           RANKING
   3     27     70       -8.94      0.65     18.83           RANKING
   3     28     54       -8.92      1.99     19.31           RANKING
   3     29      2       -8.49      1.65     18.81           RANKING
   4      1     63       -9.75      0.00     17.53           RANKING
   4      2     84       -9.15      1.27     17.86           RANKING
   5      1     80       -9.60      0.00     18.88           RANKING
   5      2     99       -9.58      1.53     18.88           RANKING
   5      3     21       -9.53      1.47     19.26           RANKING
   5      4      8       -9.46      1.48     19.24           RANKING
   5      5     33       -9.46      1.46     19.25           RANKING
   5      6     98       -9.45      1.10     19.07           RANKING
   5      7     15       -9.38      1.63     19.02           RANKING
   5      8     28       -9.38      1.18     19.08           RANKING
   5      9     24       -9.16      1.54     18.51           RANKING
   5     10     51       -9.14      0.58     18.81           RANKING
   5     11     37       -9.12      1.49     18.64           RANKING
   5     12     90       -8.46      1.54     18.69           RANKING
   6      1     47       -9.54      0.00     15.51           RANKING
   6      2     52       -9.46      1.05     15.60           RANKING
   6      3     29       -9.20      1.61     15.78           RANKING
   6      4     96       -9.13      1.96     15.88           RANKING
   6      5     71       -8.93      1.92     15.85           RANKING
   6      6      5       -8.87      1.00     15.58           RANKING
   6      7     76       -8.85      1.52     15.83           RANKING
   6      8     94       -8.72      1.96     15.55           RANKING
   7      1     55       -9.38      0.00     18.14           RANKING
   7      2     88       -9.31      0.44     18.00           RANKING
   7      3     44       -9.20      0.93     18.18           RANKING
   7      4     23       -9.17      0.52     18.16           RANKING
   7      5     53       -8.36      1.73     18.65           RANKING
   7      6    100       -8.22      1.49     18.28           RANKING
   8      1      9       -9.11      0.00     15.97           RANKING
   8      2     14       -8.93      0.96     15.83           RANKING
   8      3     19       -8.59      0.48     15.89           RANKING
   8      4     22       -8.55      0.87     15.80           RANKING
   9      1     49       -9.01      0.00     16.14           RANKING
   9      2     26       -8.97      0.58     16.13           RANKING
   9      3      1       -8.84      0.66     16.03           RANKING
   9      4     35       -8.46      0.71     16.14           RANKING
  10      1     43       -8.93      0.00     21.59           RANKING
  10      2     59       -8.77      0.27     21.46           RANKING
  11      1     89       -8.88      0.00     16.17           RANKING
  11      2     95       -8.78      0.31     16.05           RANKING
  11      3     13       -8.45      1.27     15.83           RANKING
  11      4     83       -8.16      1.53     15.55           RANKING
  12      1     11       -8.74      0.00     17.76           RANKING
  13      1     73       -8.59      0.00     22.48           RANKING
  13      2     66       -8.51      1.10     22.85           RANKING
  14      1     86       -8.54      0.00     18.48           RANKING
  14      2     93       -8.51      1.03     18.46           RANKING
  14      3     18       -8.19      0.57     18.23           RANKING
  15      1     87       -8.47      0.00     17.31           RANKING
  16      1     56       -8.26      0.00     18.06           RANKING
  17      1     10       -8.22      0.00     15.53           RANKING
  17      2      3       -8.07      1.17     15.40           RANKING
  18      1     32       -8.20      0.00     18.26           RANKING
  19      1     12       -8.16      0.00     16.93           RANKING
  19      2     62       -8.07      1.72     16.51           RANKING
  20      1     45       -7.92      0.00     19.04           RANKING
_______________________________________________________________________



	INFORMATION ENTROPY ANALYSIS FOR THIS CLUSTERING
	________________________________________________


Information entropy for this clustering = 0.54  (rmstol = 2.00 Angstrom)

_______________________________________________________________________


	STATISTICAL MECHANICAL ANALYSIS
	_______________________________


Partition function, Q =   101.56            at Temperature, T = 298.15 K
Free energy,        A ~ -2737.63 kcal/mol   at Temperature, T = 298.15 K
Internal energy,    U =    -9.16 kcal/mol   at Temperature, T = 298.15 K
Entropy,            S =     9.15 kcal/mol/K at Temperature, T = 298.15 K

_______________________________________________________________________


	LOWEST ENERGY DOCKED CONFORMATION from EACH CLUSTER
	___________________________________________________



Keeping original residue number (specified in the input PDBQ file) for outputting.

MODEL       75
USER    Run = 75
USER    Cluster Rank = 1
USER    Number of conformations in this cluster = 10
USER  
USER    RMSD from reference structure       = 21.275 A
USER  
USER    Estimated Free Energy of Binding    =  -10.59 kcal/mol  [=(1)+(2)+(3)-(4)]
USER    Estimated Inhibition Constant, Ki   =   17.18 nM (nanomolar)  [Temperature = 298.15 K]
USER    
USER    (1) Final Intermolecular Energy     =  -12.68 kcal/mol
USER        vdW + Hbond + desolv Energy     =  -12.68 kcal/mol
USER        Electrostatic Energy            =   +0.00 kcal/mol
USER    (2) Final Total Internal Energy     =   -1.27 kcal/mol
USER    (3) Torsional Free Energy           =   +2.09 kcal/mol
USER    (4) Unbound System's Energy  [=(2)] =   -1.27 kcal/mol
USER    
USER    
USER  
USER    DPF = ligand_dock.biased.dpf
USER    NEWDPF move	ligand.pdbqt
USER    NEWDPF about	1.179000 0.138000 -0.353000
USER    NEWDPF tran0	19.411021 -11.442313 -3.396139
USER    NEWDPF axisangle0	-0.779592 -0.165506 -0.604023 -154.761535
USER    NEWDPF quaternion0	-0.760760 -0.161508 -0.589432 -0.218471
USER    NEWDPF dihe0	13.08 -20.19 71.66 111.09 -99.41 -111.10 91.92 
USER  
USER                              x       y       z    vdW   Elec        q     RMS 
ATOM      1  C   UNL     1      20.619 -10.071  -3.984 -0.45 -0.00    +0.000    21.275
ATOM      2  C   UNL     1      21.770  -9.109  -4.295 -0.33 -0.00    +0.000    21.275
ATOM      3  C   UNL     1      20.704 -10.552  -2.550 -0.53 -0.00    +0.000    21.275
ATOM      4  C   UNL     1      20.886  -9.747  -1.483 -0.62 -0.00    +0.000    21.275
ATOM      5  C   UNL     1      21.042  -8.249  -1.633 -0.48 -0.00    +0.000    21.275
ATOM      6  C   UNL     1      20.996 -10.382  -0.144 -0.71 -0.00    +0.000    21.275
ATOM      7  C   UNL     1      19.943 -10.578   0.664 -0.64 -0.00    +0.000    21.275
ATOM      8  C   UNL     1      20.046 -11.208   1.996 -0.74 -0.00    +0.000    21.275
ATOM      9  N   UNL     1      20.287 -10.448   3.188 -0.66 -0.00    +0.000    21.275
ATOM     10  O   UNL     1      19.892 -12.456   2.083 -1.68 -0.00    +0.000    21.275
ATOM     11  H   UNL     1      20.307  -9.465   3.147 -0.58 -0.00    +0.000    21.275
ATOM     12  O   UNL     1      20.486 -11.080   4.369 -0.68 -0.00    +0.000    21.275
ATOM     13  H   UNL     1      20.640 -12.024   4.210 -0.50 -0.00    +0.000    21.275
ATOM     14  C   UNL     1      20.664 -11.243  -4.941 -0.53 -0.00    +0.000    21.275
ATOM     15  O   UNL     1      19.905 -12.228  -4.731 -0.71 -0.00    +0.000    21.275
ATOM     16  C   UNL     1      23.374 -11.378  -8.309 -0.34 -0.00    +0.000    21.275
ATOM     17  C   UNL     1      23.628 -12.116  -7.135 -0.45 -0.00    +0.000    21.275
ATOM     18  C   UNL     1      22.748 -12.064  -6.052 -0.40 -0.00    +0.000    21.275
ATOM     19  C   UNL     1      21.585 -11.278  -6.107 -0.38 -0.00    +0.000    21.275
ATOM     20  C   UNL     1      21.332 -10.532  -7.271 -0.27 -0.00    +0.000    21.275
ATOM     21  C   UNL     1      22.212 -10.582  -8.356 -0.24 -0.00    +0.000    21.275
ATOM     22  C   UNL     1      23.775 -11.488 -10.810 -0.16 -0.00    +0.000    21.275
ATOM     23  N   UNL     1      24.288 -11.431  -9.436 -0.24 -0.00    +0.000    21.275
ATOM     24  C   UNL     1      25.740 -11.432  -9.221 -0.37 -0.00    +0.000    21.275
TER
ENDMDL
MODEL       39
USER    Run = 39
USER    Cluster Rank = 2
USER    Number of conformations in this cluster = 5
USER  
USER    RMSD from reference structure       = 18.078 A
USER  
USER    Estimated Free Energy of Binding    =  -10.03 kcal/mol  [=(1)+(2)+(3)-(4)]
USER    Estimated Inhibition Constant, Ki   =   44.42 nM (nanomolar)  [Temperature = 298.15 K]
USER    
USER    (1) Final Intermolecular Energy     =  -12.12 kcal/mol
USER        vdW + Hbond + desolv Energy     =  -12.12 kcal/mol
USER        Electrostatic Energy            =   +0.00 kcal/mol
USER    (2) Final Total Internal Energy     =   -0.93 kcal/mol
USER    (3) Torsional Free Energy           =   +2.09 kcal/mol
USER    (4) Unbound System's Energy  [=(2)] =   -0.93 kcal/mol
USER    
USER    
USER  
USER    DPF = ligand_dock.biased.dpf
USER    NEWDPF move	ligand.pdbqt
USER    NEWDPF about	1.179000 0.138000 -0.353000
USER    NEWDPF tran0	18.248389 -10.491914 0.289795
USER    NEWDPF axisangle0	0.026842 -0.224889 0.974015 167.865499
USER    NEWDPF quaternion0	0.026692 -0.223629 0.968559 0.105696
USER    NEWDPF dihe0	-180.00 126.30 65.21 31.28 90.43 -101.68 -70.02 
USER  
USER                              x       y       z    vdW   Elec        q     RMS 
ATOM      1  C   UNL     1      18.611 -10.798   2.150 -0.58 -0.00    +0.000    18.078
ATOM      2  C   UNL     1      18.744 -11.271   3.601 -0.39 -0.00    +0.000    18.078
ATOM      3  C   UNL     1      17.231 -11.118   1.613 -0.46 +0.00    +0.000    18.078
ATOM      4  C   UNL     1      16.078 -10.686   2.165 -0.43 +0.00    +0.000    18.078
ATOM      5  C   UNL     1      16.063  -9.832   3.415 -0.46 +0.00    +0.000    18.078
ATOM      6  C   UNL     1      14.802 -11.128   1.544 -0.41 +0.00    +0.000    18.078
ATOM      7  C   UNL     1      13.604 -10.642   1.904 -0.34 +0.00    +0.000    18.078
ATOM      8  C   UNL     1      12.332 -11.078   1.292 -0.38 +0.00    +0.000    18.078
ATOM      9  N   UNL     1      11.640 -12.259   1.717 -0.42 +0.00    +0.000    18.078
ATOM     10  O   UNL     1      11.832 -10.368   0.379 -0.25 +0.00    +0.000    18.078
ATOM     11  H   UNL     1      11.967 -12.765   2.497 -0.60 +0.00    +0.000    18.078
ATOM     12  O   UNL     1      10.539 -12.680   1.052 -0.41 +0.00    +0.000    18.078
ATOM     13  H   UNL     1      10.197 -13.486   1.469 -0.60 -0.00    +0.000    18.078
ATOM     14  C   UNL     1      19.676 -11.459   1.302 -0.70 -0.00    +0.000    18.078
ATOM     15  O   UNL     1      20.372 -12.380   1.811 -1.64 -0.00    +0.000    18.078
ATOM     16  C   UNL     1      20.404 -10.278  -2.795 -0.45 -0.00    +0.000    18.078
ATOM     17  C   UNL     1      19.193 -10.891  -2.414 -0.38 -0.00    +0.000    18.078
ATOM     18  C   UNL     1      18.969 -11.272  -1.089 -0.41 -0.00    +0.000    18.078
ATOM     19  C   UNL     1      19.942 -11.047  -0.102 -0.53 -0.00    +0.000    18.078
ATOM     20  C   UNL     1      21.155 -10.445  -0.477 -0.63 -0.00    +0.000    18.078
ATOM     21  C   UNL     1      21.382 -10.064  -1.803 -0.53 -0.00    +0.000    18.078
ATOM     22  C   UNL     1      20.927 -10.890  -5.199 -0.49 -0.00    +0.000    18.078
ATOM     23  N   UNL     1      20.639  -9.882  -4.172 -0.35 -0.00    +0.000    18.078
ATOM     24  C   UNL     1      20.594  -8.467  -4.560 -0.29 -0.00    +0.000    18.078
TER
ENDMDL
MODEL       31
USER    Run = 31
USER    Cluster Rank = 3
USER    Number of conformations in this cluster = 29
USER  
USER    RMSD from reference structure       = 18.987 A
USER  
USER    Estimated Free Energy of Binding    =   -9.95 kcal/mol  [=(1)+(2)+(3)-(4)]
USER    Estimated Inhibition Constant, Ki   =   50.93 nM (nanomolar)  [Temperature = 298.15 K]
USER    
USER    (1) Final Intermolecular Energy     =  -12.04 kcal/mol
USER        vdW + Hbond + desolv Energy     =  -12.04 kcal/mol
USER        Electrostatic Energy            =   +0.00 kcal/mol
USER    (2) Final Total Internal Energy     =   -1.46 kcal/mol
USER    (3) Torsional Free Energy           =   +2.09 kcal/mol
USER    (4) Unbound System's Energy  [=(2)] =   -1.46 kcal/mol
USER    
USER    
USER  
USER    DPF = ligand_dock.biased.dpf
USER    NEWDPF move	ligand.pdbqt
USER    NEWDPF about	1.179000 0.138000 -0.353000
USER    NEWDPF tran0	20.663244 -8.846164 -3.261531
USER    NEWDPF axisangle0	0.607182 -0.658666 0.444397 -149.064126
USER    NEWDPF quaternion0	0.585190 -0.634809 0.428301 -0.266699
USER    NEWDPF dihe0	51.86 -166.89 -113.84 -75.48 66.27 -0.79 163.16 
USER  
USER                              x       y       z    vdW   Elec        q     RMS 
ATOM      1  C   UNL     1      21.475 -10.251  -4.287 -0.48 -0.00    +0.000    18.987
ATOM      2  C   UNL     1      21.916 -11.530  -5.005 -0.51 -0.00    +0.000    18.987
ATOM      3  C   UNL     1      20.909 -10.579  -2.921 -0.53 -0.00    +0.000    18.987
ATOM      4  C   UNL     1      20.819  -9.701  -1.901 -0.58 -0.00    +0.000    18.987
ATOM      5  C   UNL     1      21.306  -8.274  -2.033 -0.50 -0.00    +0.000    18.987
ATOM      6  C   UNL     1      20.283 -10.194  -0.605 -0.60 -0.00    +0.000    18.987
ATOM      7  C   UNL     1      21.027 -10.861   0.290 -0.70 -0.00    +0.000    18.987
ATOM      8  C   UNL     1      20.499 -11.354   1.579 -0.75 -0.00    +0.000    18.987
ATOM      9  N   UNL     1      20.640 -10.615   2.799 -0.63 -0.00    +0.000    18.987
ATOM     10  O   UNL     1      19.883 -12.453   1.594 -1.68 -0.00    +0.000    18.987
ATOM     11  H   UNL     1      21.027  -9.709   2.782 -0.59 -0.00    +0.000    18.987
ATOM     12  O   UNL     1      20.240 -11.157   3.974 -0.83 -0.00    +0.000    18.987
ATOM     13  H   UNL     1      20.640 -12.035   4.078 -0.53 -0.00    +0.000    18.987
ATOM     14  C   UNL     1      20.445  -9.527  -5.129 -0.30 -0.00    +0.000    18.987
ATOM     15  O   UNL     1      20.712  -8.368  -5.551 -0.19 -0.00    +0.000    18.987
ATOM     16  C   UNL     1      16.625 -11.294  -6.127 -0.29 -0.00    +0.000    18.987
ATOM     17  C   UNL     1      17.750 -11.462  -6.960 -0.33 -0.00    +0.000    18.987
ATOM     18  C   UNL     1      18.978 -10.885  -6.631 -0.32 -0.00    +0.000    18.987
ATOM     19  C   UNL     1      19.125 -10.128  -5.457 -0.26 -0.00    +0.000    18.987
ATOM     20  C   UNL     1      18.006  -9.948  -4.627 -0.24 -0.00    +0.000    18.987
ATOM     21  C   UNL     1      16.775 -10.523  -4.956 -0.22 -0.00    +0.000    18.987
ATOM     22  C   UNL     1      15.155 -12.552  -7.765 -0.40 -0.00    +0.000    18.987
ATOM     23  N   UNL     1      15.347 -11.893  -6.468 -0.31 -0.00    +0.000    18.987
ATOM     24  C   UNL     1      14.225 -11.847  -5.523 -0.30 -0.00    +0.000    18.987
TER
ENDMDL
MODEL       63
USER    Run = 63
USER    Cluster Rank = 4
USER    Number of conformations in this cluster = 2
USER  
USER    RMSD from reference structure       = 17.533 A
USER  
USER    Estimated Free Energy of Binding    =   -9.75 kcal/mol  [=(1)+(2)+(3)-(4)]
USER    Estimated Inhibition Constant, Ki   =   71.54 nM (nanomolar)  [Temperature = 298.15 K]
USER    
USER    (1) Final Intermolecular Energy     =  -11.84 kcal/mol
USER        vdW + Hbond + desolv Energy     =  -11.84 kcal/mol
USER        Electrostatic Energy            =   +0.00 kcal/mol
USER    (2) Final Total Internal Energy     =   -1.56 kcal/mol
USER    (3) Torsional Free Energy           =   +2.09 kcal/mol
USER    (4) Unbound System's Energy  [=(2)] =   -1.56 kcal/mol
USER    
USER    
USER  
USER    DPF = ligand_dock.biased.dpf
USER    NEWDPF move	ligand.pdbqt
USER    NEWDPF about	1.179000 0.138000 -0.353000
USER    NEWDPF tran0	18.750659 -10.947735 3.065951
USER    NEWDPF axisangle0	-0.440364 -0.876093 0.196319 -157.196654
USER    NEWDPF quaternion0	-0.431673 -0.858803 0.192445 -0.197686
USER    NEWDPF dihe0	-11.48 160.82 -144.84 -5.09 91.41 -64.30 161.47 
USER  
USER                              x       y       z    vdW   Elec        q     RMS 
ATOM      1  C   UNL     1      17.656 -11.734   1.699 -0.44 +0.00    +0.000    17.533
ATOM      2  C   UNL     1      16.769 -12.103   0.506 -0.50 +0.00    +0.000    17.533
ATOM      3  C   UNL     1      17.290 -10.363   2.227 -0.48 +0.00    +0.000    17.533
ATOM      4  C   UNL     1      16.441 -10.141   3.252 -0.48 +0.00    +0.000    17.533
ATOM      5  C   UNL     1      15.749 -11.277   3.973 -0.54 +0.00    +0.000    17.533
ATOM      6  C   UNL     1      16.148  -8.730   3.619 -0.33 +0.00    +0.000    17.533
ATOM      7  C   UNL     1      14.993  -8.344   4.181 -0.39 +0.00    +0.000    17.533
ATOM      8  C   UNL     1      14.696  -6.944   4.548 -0.42 +0.00    +0.000    17.533
ATOM      9  N   UNL     1      14.268  -6.569   5.864 -0.46 +0.00    +0.000    17.533
ATOM     10  O   UNL     1      14.850  -6.050   3.673 -0.36 +0.00    +0.000    17.533
ATOM     11  H   UNL     1      14.243  -7.243   6.582 -0.05 +0.00    +0.000    17.533
ATOM     12  O   UNL     1      13.899  -5.292   6.121 -1.05 +0.00    +0.000    17.533
ATOM     13  H   UNL     1      14.150  -4.726   5.375 -0.02 +0.00    +0.000    17.533
ATOM     14  C   UNL     1      19.111 -11.770   1.279 -0.65 -0.00    +0.000    17.533
ATOM     15  O   UNL     1      19.893 -12.567   1.868 -1.65 -0.00    +0.000    17.533
ATOM     16  C   UNL     1      20.653  -9.226  -1.859 -0.45 -0.00    +0.000    17.533
ATOM     17  C   UNL     1      19.703 -10.230  -2.132 -0.39 -0.00    +0.000    17.533
ATOM     18  C   UNL     1      19.213 -11.049  -1.112 -0.41 -0.00    +0.000    17.533
ATOM     19  C   UNL     1      19.651 -10.887   0.212 -0.53 -0.00    +0.000    17.533
ATOM     20  C   UNL     1      20.605  -9.894   0.490 -0.51 -0.00    +0.000    17.533
ATOM     21  C   UNL     1      21.098  -9.075  -0.530 -0.50 -0.00    +0.000    17.533
ATOM     22  C   UNL     1      21.460  -8.929  -4.244 -0.36 -0.00    +0.000    17.533
ATOM     23  N   UNL     1      21.164  -8.374  -2.918 -0.42 -0.00    +0.000    17.533
ATOM     24  C   UNL     1      21.394  -6.944  -2.681 -0.44 -0.00    +0.000    17.533
TER
ENDMDL
MODEL       80
USER    Run = 80
USER    Cluster Rank = 5
USER    Number of conformations in this cluster = 12
USER  
USER    RMSD from reference structure       = 18.881 A
USER  
USER    Estimated Free Energy of Binding    =   -9.60 kcal/mol  [=(1)+(2)+(3)-(4)]
USER    Estimated Inhibition Constant, Ki   =   91.50 nM (nanomolar)  [Temperature = 298.15 K]
USER    
USER    (1) Final Intermolecular Energy     =  -11.69 kcal/mol
USER        vdW + Hbond + desolv Energy     =  -11.69 kcal/mol
USER        Electrostatic Energy            =   +0.00 kcal/mol
USER    (2) Final Total Internal Energy     =   -1.55 kcal/mol
USER    (3) Torsional Free Energy           =   +2.09 kcal/mol
USER    (4) Unbound System's Energy  [=(2)] =   -1.55 kcal/mol
USER    
USER    
USER  
USER    DPF = ligand_dock.biased.dpf
USER    NEWDPF move	ligand.pdbqt
USER    NEWDPF about	1.179000 0.138000 -0.353000
USER    NEWDPF tran0	22.729875 -8.283076 -3.015263
USER    NEWDPF axisangle0	0.117694 -0.935546 -0.333018 -106.349074
USER    NEWDPF quaternion0	0.094210 -0.748872 -0.266569 -0.599379
USER    NEWDPF dihe0	17.90 45.86 34.35 -21.78 -54.59 -83.12 175.87 
USER  
USER                              x       y       z    vdW   Elec        q     RMS 
ATOM      1  C   UNL     1      20.976  -8.030  -3.753 -0.36 -0.00    +0.000    18.881
ATOM      2  C   UNL     1      19.506  -7.750  -4.083 -0.18 -0.00    +0.000    18.881
ATOM      3  C   UNL     1      21.104  -8.609  -2.359 -0.49 -0.00    +0.000    18.881
ATOM      4  C   UNL     1      20.809  -9.884  -2.032 -0.58 -0.00    +0.000    18.881
ATOM      5  C   UNL     1      20.293 -10.871  -3.057 -0.47 -0.00    +0.000    18.881
ATOM      6  C   UNL     1      20.944 -10.285  -0.607 -0.68 -0.00    +0.000    18.881
ATOM      7  C   UNL     1      20.020 -11.011   0.041 -0.62 -0.00    +0.000    18.881
ATOM      8  C   UNL     1      20.147 -11.412   1.457 -0.74 -0.00    +0.000    18.881
ATOM      9  N   UNL     1      20.419 -10.468   2.501 -0.58 -0.00    +0.000    18.881
ATOM     10  O   UNL     1      19.986 -12.626   1.753 -1.61 -0.00    +0.000    18.881
ATOM     11  H   UNL     1      20.445  -9.505   2.297 -0.51 -0.00    +0.000    18.881
ATOM     12  O   UNL     1      20.638 -10.896   3.766 -0.82 -0.00    +0.000    18.881
ATOM     13  H   UNL     1      20.857 -11.841   3.755 -0.52 -0.00    +0.000    18.881
ATOM     14  C   UNL     1      21.775  -6.749  -3.871 -0.28 -0.00    +0.000    18.881
ATOM     15  O   UNL     1      22.528  -6.594  -4.872 -0.23 -0.00    +0.000    18.881
ATOM     16  C   UNL     1      21.651  -3.625  -0.882 -0.29 +0.00    +0.000    18.881
ATOM     17  C   UNL     1      22.818  -3.876  -1.631 -0.27 +0.00    +0.000    18.881
ATOM     18  C   UNL     1      22.850  -4.890  -2.592 -0.24 -0.00    +0.000    18.881
ATOM     19  C   UNL     1      21.716  -5.679  -2.841 -0.34 -0.00    +0.000    18.881
ATOM     20  C   UNL     1      20.551  -5.441  -2.091 -0.28 -0.00    +0.000    18.881
ATOM     21  C   UNL     1      20.518  -4.428  -1.128 -0.39 +0.00    +0.000    18.881
ATOM     22  C   UNL     1      20.678  -2.644   1.244 -0.50 +0.00    +0.000    18.881
ATOM     23  N   UNL     1      21.617  -2.573   0.117 -0.40 +0.00    +0.000    18.881
ATOM     24  C   UNL     1      22.517  -1.418   0.017 -0.31 -0.00    +0.000    18.881
TER
ENDMDL
MODEL       47
USER    Run = 47
USER    Cluster Rank = 6
USER    Number of conformations in this cluster = 8
USER  
USER    RMSD from reference structure       = 15.509 A
USER  
USER    Estimated Free Energy of Binding    =   -9.54 kcal/mol  [=(1)+(2)+(3)-(4)]
USER    Estimated Inhibition Constant, Ki   =  101.16 nM (nanomolar)  [Temperature = 298.15 K]
USER    
USER    (1) Final Intermolecular Energy     =  -11.63 kcal/mol
USER        vdW + Hbond + desolv Energy     =  -11.63 kcal/mol
USER        Electrostatic Energy            =   +0.00 kcal/mol
USER    (2) Final Total Internal Energy     =   -1.53 kcal/mol
USER    (3) Torsional Free Energy           =   +2.09 kcal/mol
USER    (4) Unbound System's Energy  [=(2)] =   -1.53 kcal/mol
USER    
USER    
USER  
USER    DPF = ligand_dock.biased.dpf
USER    NEWDPF move	ligand.pdbqt
USER    NEWDPF about	1.179000 0.138000 -0.353000
USER    NEWDPF tran0	14.911666 -6.748112 3.407998
USER    NEWDPF axisangle0	0.706101 0.066461 -0.704986 -56.616539
USER    NEWDPF quaternion0	0.334844 0.031517 -0.334315 -0.880409
USER    NEWDPF dihe0	-15.12 -118.41 -16.26 -3.04 -155.05 -102.03 -97.94 
USER  
USER                              x       y       z    vdW   Elec        q     RMS 
ATOM      1  C   UNL     1      14.095  -7.976   4.636 -0.39 +0.00    +0.000    15.509
ATOM      2  C   UNL     1      13.703  -9.000   5.706 -0.52 +0.00    +0.000    15.509
ATOM      3  C   UNL     1      15.423  -8.346   4.011 -0.39 +0.00    +0.000    15.509
ATOM      4  C   UNL     1      15.679  -9.522   3.400 -0.44 +0.00    +0.000    15.509
ATOM      5  C   UNL     1      14.633 -10.611   3.300 -0.45 +0.00    +0.000    15.509
ATOM      6  C   UNL     1      17.052  -9.750   2.878 -0.46 +0.00    +0.000    15.509
ATOM      7  C   UNL     1      17.586 -10.971   2.729 -0.49 +0.00    +0.000    15.509
ATOM      8  C   UNL     1      18.950 -11.205   2.211 -0.63 -0.00    +0.000    15.509
ATOM      9  N   UNL     1      19.832 -10.131   1.860 -0.51 -0.00    +0.000    15.509
ATOM     10  O   UNL     1      19.353 -12.394   2.100 -1.44 -0.00    +0.000    15.509
ATOM     11  H   UNL     1      19.566  -9.200   2.039 -0.40 -0.00    +0.000    15.509
ATOM     12  O   UNL     1      21.029 -10.394   1.285 -0.72 -0.00    +0.000    15.509
ATOM     13  H   UNL     1      21.242 -11.334   1.394 -0.20 -0.00    +0.000    15.509
ATOM     14  C   UNL     1      14.166  -6.597   5.257 -0.44 +0.00    +0.000    15.509
ATOM     15  O   UNL     1      13.578  -6.395   6.356 -0.94 +0.00    +0.000    15.509
ATOM     16  C   UNL     1      16.244  -3.333   3.325 -0.38 -0.00    +0.000    15.509
ATOM     17  C   UNL     1      15.341  -4.150   2.613 -0.15 -0.00    +0.000    15.509
ATOM     18  C   UNL     1      14.677  -5.203   3.246 -0.25 +0.00    +0.000    15.509
ATOM     19  C   UNL     1      14.888  -5.471   4.608 -0.38 +0.00    +0.000    15.509
ATOM     20  C   UNL     1      15.794  -4.667   5.320 -0.41 +0.00    +0.000    15.509
ATOM     21  C   UNL     1      16.461  -3.613   4.689 -0.44 -0.00    +0.000    15.509
ATOM     22  C   UNL     1      16.228  -1.373   1.716 -0.29 -0.00    +0.000    15.509
ATOM     23  N   UNL     1      16.935  -2.238   2.669 -0.40 -0.00    +0.000    15.509
ATOM     24  C   UNL     1      18.353  -1.977   2.945 -0.51 -0.00    +0.000    15.509
TER
ENDMDL
MODEL       55
USER    Run = 55
USER    Cluster Rank = 7
USER    Number of conformations in this cluster = 6
USER  
USER    RMSD from reference structure       = 18.141 A
USER  
USER    Estimated Free Energy of Binding    =   -9.38 kcal/mol  [=(1)+(2)+(3)-(4)]
USER    Estimated Inhibition Constant, Ki   =  132.51 nM (nanomolar)  [Temperature = 298.15 K]
USER    
USER    (1) Final Intermolecular Energy     =  -11.47 kcal/mol
USER        vdW + Hbond + desolv Energy     =  -11.47 kcal/mol
USER        Electrostatic Energy            =   +0.00 kcal/mol
USER    (2) Final Total Internal Energy     =   -1.72 kcal/mol
USER    (3) Torsional Free Energy           =   +2.09 kcal/mol
USER    (4) Unbound System's Energy  [=(2)] =   -1.72 kcal/mol
USER    
USER    
USER  
USER    DPF = ligand_dock.biased.dpf
USER    NEWDPF move	ligand.pdbqt
USER    NEWDPF about	1.179000 0.138000 -0.353000
USER    NEWDPF tran0	19.312380 -9.964916 -3.008242
USER    NEWDPF axisangle0	-0.835935 0.284893 -0.469093 161.630209
USER    NEWDPF quaternion0	-0.825217 0.281240 -0.463079 0.159621
USER    NEWDPF dihe0	2.16 -63.20 74.46 107.36 -64.17 -38.41 -83.60 
USER  
USER                              x       y       z    vdW   Elec        q     RMS 
ATOM      1  C   UNL     1      20.729 -10.462  -4.204 -0.48 -0.00    +0.000    18.141
ATOM      2  C   UNL     1      21.865 -11.096  -5.013 -0.50 -0.00    +0.000    18.141
ATOM      3  C   UNL     1      20.835 -10.854  -2.745 -0.43 -0.00    +0.000    18.141
ATOM      4  C   UNL     1      20.965  -9.980  -1.726 -0.61 -0.00    +0.000    18.141
ATOM      5  C   UNL     1      21.034  -8.486  -1.963 -0.51 -0.00    +0.000    18.141
ATOM      6  C   UNL     1      21.105 -10.529  -0.352 -0.70 -0.00    +0.000    18.141
ATOM      7  C   UNL     1      20.070 -10.671   0.490 -0.65 -0.00    +0.000    18.141
ATOM      8  C   UNL     1      20.203 -11.215   1.857 -0.75 -0.00    +0.000    18.141
ATOM      9  N   UNL     1      20.413 -10.377   3.000 -0.56 -0.00    +0.000    18.141
ATOM     10  O   UNL     1      20.104 -12.461   2.018 -1.64 -0.00    +0.000    18.141
ATOM     11  H   UNL     1      20.389  -9.397   2.901 -0.56 -0.00    +0.000    18.141
ATOM     12  O   UNL     1      20.641 -10.927   4.216 -0.75 -0.00    +0.000    18.141
ATOM     13  H   UNL     1      20.665 -11.893   4.134 -0.49 -0.00    +0.000    18.141
ATOM     14  C   UNL     1      19.396 -10.896  -4.776 -0.43 -0.00    +0.000    18.141
ATOM     15  O   UNL     1      19.386 -11.595  -5.827 -0.49 -0.00    +0.000    18.141
ATOM     16  C   UNL     1      15.614  -9.773  -3.005 -0.22 -0.00    +0.000    18.141
ATOM     17  C   UNL     1      15.799  -9.764  -4.402 -0.18 -0.00    +0.000    18.141
ATOM     18  C   UNL     1      17.026 -10.126  -4.965 -0.21 -0.00    +0.000    18.141
ATOM     19  C   UNL     1      18.103 -10.513  -4.151 -0.25 -0.00    +0.000    18.141
ATOM     20  C   UNL     1      17.928 -10.515  -2.757 -0.21 -0.00    +0.000    18.141
ATOM     21  C   UNL     1      16.701 -10.152  -2.192 -0.19 -0.00    +0.000    18.141
ATOM     22  C   UNL     1      13.358 -10.423  -2.047 -0.28 -0.00    +0.000    18.141
ATOM     23  N   UNL     1      14.340  -9.397  -2.419 -0.18 -0.00    +0.000    18.141
ATOM     24  C   UNL     1      14.011  -7.985  -2.190 -0.18 -0.00    +0.000    18.141
TER
ENDMDL
MODEL        9
USER    Run = 9
USER    Cluster Rank = 8
USER    Number of conformations in this cluster = 4
USER  
USER    RMSD from reference structure       = 15.969 A
USER  
USER    Estimated Free Energy of Binding    =   -9.11 kcal/mol  [=(1)+(2)+(3)-(4)]
USER    Estimated Inhibition Constant, Ki   =  208.69 nM (nanomolar)  [Temperature = 298.15 K]
USER    
USER    (1) Final Intermolecular Energy     =  -11.20 kcal/mol
USER        vdW + Hbond + desolv Energy     =  -11.20 kcal/mol
USER        Electrostatic Energy            =   +0.00 kcal/mol
USER    (2) Final Total Internal Energy     =   -1.46 kcal/mol
USER    (3) Torsional Free Energy           =   +2.09 kcal/mol
USER    (4) Unbound System's Energy  [=(2)] =   -1.46 kcal/mol
USER    
USER    
USER  
USER    DPF = ligand_dock.biased.dpf
USER    NEWDPF move	ligand.pdbqt
USER    NEWDPF about	1.179000 0.138000 -0.353000
USER    NEWDPF tran0	15.802862 -8.823320 2.432499
USER    NEWDPF axisangle0	-0.878788 0.071171 0.471875 94.675205
USER    NEWDPF quaternion0	-0.646225 0.052337 0.346998 0.677677
USER    NEWDPF dihe0	-11.12 93.39 80.78 -178.63 -11.00 -105.98 -50.88 
USER  
USER                              x       y       z    vdW   Elec        q     RMS 
ATOM      1  C   UNL     1      14.445 -10.180   2.395 -0.35 +0.00    +0.000    15.969
ATOM      2  C   UNL     1      13.562 -11.429   2.466 -0.36 +0.00    +0.000    15.969
ATOM      3  C   UNL     1      15.862 -10.555   2.012 -0.41 +0.00    +0.000    15.969
ATOM      4  C   UNL     1      16.193 -11.284   0.926 -0.41 +0.00    +0.000    15.969
ATOM      5  C   UNL     1      15.142 -11.820  -0.023 -0.44 +0.00    +0.000    15.969
ATOM      6  C   UNL     1      17.628 -11.608   0.717 -0.50 -0.00    +0.000    15.969
ATOM      7  C   UNL     1      18.627 -10.899   1.264 -0.54 -0.00    +0.000    15.969
ATOM      8  C   UNL     1      20.056 -11.215   1.059 -0.71 -0.00    +0.000    15.969
ATOM      9  N   UNL     1      20.865 -10.523   0.100 -0.64 -0.00    +0.000    15.969
ATOM     10  O   UNL     1      20.580 -12.112   1.774 -1.54 -0.00    +0.000    15.969
ATOM     11  H   UNL     1      20.495  -9.754  -0.391 -0.03 -0.00    +0.000    15.969
ATOM     12  O   UNL     1      22.138 -10.923  -0.132 -0.69 -0.00    +0.000    15.969
ATOM     13  H   UNL     1      22.403 -11.566   0.544 -0.55 -0.00    +0.000    15.969
ATOM     14  C   UNL     1      14.427  -9.469   3.732 -0.39 +0.00    +0.000    15.969
ATOM     15  O   UNL     1      14.225 -10.148   4.776 -0.47 +0.00    +0.000    15.969
ATOM     16  C   UNL     1      14.993  -5.200   4.131 -0.34 +0.00    +0.000    15.969
ATOM     17  C   UNL     1      15.026  -6.051   5.254 -0.40 +0.00    +0.000    15.969
ATOM     18  C   UNL     1      14.839  -7.429   5.115 -0.35 +0.00    +0.000    15.969
ATOM     19  C   UNL     1      14.620  -8.000   3.852 -0.31 +0.00    +0.000    15.969
ATOM     20  C   UNL     1      14.577  -7.157   2.729 -0.25 +0.00    +0.000    15.969
ATOM     21  C   UNL     1      14.762  -5.778   2.866 -0.21 +0.00    +0.000    15.969
ATOM     22  C   UNL     1      14.056  -2.844   4.126 -0.39 -0.00    +0.000    15.969
ATOM     23  N   UNL     1      15.187  -3.769   4.273 -0.39 -0.00    +0.000    15.969
ATOM     24  C   UNL     1      16.517  -3.220   4.564 -0.52 -0.00    +0.000    15.969
TER
ENDMDL
MODEL       49
USER    Run = 49
USER    Cluster Rank = 9
USER    Number of conformations in this cluster = 4
USER  
USER    RMSD from reference structure       = 16.136 A
USER  
USER    Estimated Free Energy of Binding    =   -9.01 kcal/mol  [=(1)+(2)+(3)-(4)]
USER    Estimated Inhibition Constant, Ki   =  249.02 nM (nanomolar)  [Temperature = 298.15 K]
USER    
USER    (1) Final Intermolecular Energy     =  -11.10 kcal/mol
USER        vdW + Hbond + desolv Energy     =  -11.10 kcal/mol
USER        Electrostatic Energy            =   +0.00 kcal/mol
USER    (2) Final Total Internal Energy     =   -1.72 kcal/mol
USER    (3) Torsional Free Energy           =   +2.09 kcal/mol
USER    (4) Unbound System's Energy  [=(2)] =   -1.72 kcal/mol
USER    
USER    
USER  
USER    DPF = ligand_dock.biased.dpf
USER    NEWDPF move	ligand.pdbqt
USER    NEWDPF about	1.179000 0.138000 -0.353000
USER    NEWDPF tran0	15.027895 -10.216981 2.637333
USER    NEWDPF axisangle0	0.426392 0.820485 -0.380782 130.196529
USER    NEWDPF quaternion0	0.386751 0.744205 -0.345381 0.421063
USER    NEWDPF dihe0	-0.10 81.87 -156.79 47.02 -68.01 -25.78 -67.69 
USER  
USER                              x       y       z    vdW   Elec        q     RMS 
ATOM      1  C   UNL     1      13.345 -11.026   2.191 -0.37 +0.00    +0.000    16.136
ATOM      2  C   UNL     1      11.939 -11.421   1.730 -0.35 +0.00    +0.000    16.136
ATOM      3  C   UNL     1      13.358  -9.594   2.685 -0.27 +0.00    +0.000    16.136
ATOM      4  C   UNL     1      13.942  -9.187   3.831 -0.35 +0.00    +0.000    16.136
ATOM      5  C   UNL     1      14.642 -10.158   4.757 -0.40 +0.00    +0.000    16.136
ATOM      6  C   UNL     1      13.824  -7.752   4.200 -0.31 +0.00    +0.000    16.136
ATOM      7  C   UNL     1      14.694  -7.129   5.007 -0.45 +0.00    +0.000    16.136
ATOM      8  C   UNL     1      14.582  -5.703   5.378 -0.47 +0.00    +0.000    16.136
ATOM      9  N   UNL     1      15.720  -4.834   5.444 -0.50 +0.00    +0.000    16.136
ATOM     10  O   UNL     1      13.437  -5.235   5.621 -0.87 +0.00    +0.000    16.136
ATOM     11  H   UNL     1      16.604  -5.162   5.157 -0.62 -0.00    +0.000    16.136
ATOM     12  O   UNL     1      15.583  -3.566   5.897 -0.61 +0.00    +0.000    16.136
ATOM     13  H   UNL     1      14.657  -3.405   6.134 -0.30 +0.00    +0.000    16.136
ATOM     14  C   UNL     1      14.322 -11.201   1.046 -0.39 +0.00    +0.000    16.136
ATOM     15  O   UNL     1      13.867 -11.411  -0.112 -0.37 +0.00    +0.000    16.136
ATOM     16  C   UNL     1      18.610 -11.098   1.596 -0.50 -0.00    +0.000    16.136
ATOM     17  C   UNL     1      17.997 -12.093   0.808 -0.49 -0.00    +0.000    16.136
ATOM     18  C   UNL     1      16.610 -12.120   0.639 -0.44 +0.00    +0.000    16.136
ATOM     19  C   UNL     1      15.794 -11.151   1.245 -0.35 +0.00    +0.000    16.136
ATOM     20  C   UNL     1      16.398 -10.163   2.040 -0.36 +0.00    +0.000    16.136
ATOM     21  C   UNL     1      17.785 -10.136   2.212 -0.42 -0.00    +0.000    16.136
ATOM     22  C   UNL     1      20.641 -11.214   3.110 -0.59 -0.00    +0.000    16.136
ATOM     23  N   UNL     1      20.051 -11.069   1.773 -0.63 -0.00    +0.000    16.136
ATOM     24  C   UNL     1      20.942 -10.892   0.620 -0.69 -0.00    +0.000    16.136
TER
ENDMDL
MODEL       43
USER    Run = 43
USER    Cluster Rank = 10
USER    Number of conformations in this cluster = 2
USER  
USER    RMSD from reference structure       = 21.594 A
USER  
USER    Estimated Free Energy of Binding    =   -8.93 kcal/mol  [=(1)+(2)+(3)-(4)]
USER    Estimated Inhibition Constant, Ki   =  286.38 nM (nanomolar)  [Temperature = 298.15 K]
USER    
USER    (1) Final Intermolecular Energy     =  -11.01 kcal/mol
USER        vdW + Hbond + desolv Energy     =  -11.01 kcal/mol
USER        Electrostatic Energy            =   +0.00 kcal/mol
USER    (2) Final Total Internal Energy     =   -1.05 kcal/mol
USER    (3) Torsional Free Energy           =   +2.09 kcal/mol
USER    (4) Unbound System's Energy  [=(2)] =   -1.05 kcal/mol
USER    
USER    
USER  
USER    DPF = ligand_dock.biased.dpf
USER    NEWDPF move	ligand.pdbqt
USER    NEWDPF about	1.179000 0.138000 -0.353000
USER    NEWDPF tran0	22.021486 -11.286097 -5.574599
USER    NEWDPF axisangle0	0.053244 0.977144 0.205802 97.122514
USER    NEWDPF quaternion0	0.039915 0.732529 0.154282 0.661819
USER    NEWDPF dihe0	-103.65 -125.54 -138.91 87.12 16.40 143.14 -62.38 
USER  
USER                              x       y       z    vdW   Elec        q     RMS 
ATOM      1  C   UNL     1      20.170 -11.187  -6.072 -0.33 -0.00    +0.000    21.594
ATOM      2  C   UNL     1      18.667 -10.946  -6.242 -0.37 -0.00    +0.000    21.594
ATOM      3  C   UNL     1      20.526 -11.290  -4.603 -0.52 -0.00    +0.000    21.594
ATOM      4  C   UNL     1      20.276 -10.332  -3.688 -0.46 -0.00    +0.000    21.594
ATOM      5  C   UNL     1      19.613  -9.024  -4.064 -0.28 -0.00    +0.000    21.594
ATOM      6  C   UNL     1      20.733 -10.567  -2.292 -0.53 -0.00    +0.000    21.594
ATOM      7  C   UNL     1      19.891 -10.681  -1.255 -0.51 -0.00    +0.000    21.594
ATOM      8  C   UNL     1      20.338 -10.914   0.134 -0.66 -0.00    +0.000    21.594
ATOM      9  N   UNL     1      19.928 -12.059   0.891 -0.63 -0.00    +0.000    21.594
ATOM     10  O   UNL     1      21.129 -10.082   0.656 -0.72 -0.00    +0.000    21.594
ATOM     11  H   UNL     1      19.395 -12.766   0.460 -0.39 -0.00    +0.000    21.594
ATOM     12  O   UNL     1      20.273 -12.172   2.195 -1.60 -0.00    +0.000    21.594
ATOM     13  H   UNL     1      20.999 -12.810   2.284 -0.58 -0.00    +0.000    21.594
ATOM     14  C   UNL     1      20.941 -10.060  -6.727 -0.28 -0.00    +0.000    21.594
ATOM     15  O   UNL     1      20.332  -8.992  -7.009 -0.14 -0.00    +0.000    21.594
ATOM     16  C   UNL     1      25.145 -10.357  -7.697 -0.31 -0.00    +0.000    21.594
ATOM     17  C   UNL     1      24.594  -9.164  -7.187 -0.20 -0.00    +0.000    21.594
ATOM     18  C   UNL     1      23.234  -9.077  -6.880 -0.22 -0.00    +0.000    21.594
ATOM     19  C   UNL     1      22.384 -10.179  -7.066 -0.29 -0.00    +0.000    21.594
ATOM     20  C   UNL     1      22.925 -11.368  -7.583 -0.39 -0.00    +0.000    21.594
ATOM     21  C   UNL     1      24.285 -11.456  -7.893 -0.40 -0.00    +0.000    21.594
ATOM     22  C   UNL     1      27.553  -9.722  -7.219 -0.49 -0.00    +0.000    21.594
ATOM     23  N   UNL     1      26.559 -10.449  -8.018 -0.40 -0.00    +0.000    21.594
ATOM     24  C   UNL     1      27.017 -11.268  -9.146 -0.29 -0.00    +0.000    21.594
TER
ENDMDL
MODEL       89
USER    Run = 89
USER    Cluster Rank = 11
USER    Number of conformations in this cluster = 4
USER  
USER    RMSD from reference structure       = 16.165 A
USER  
USER    Estimated Free Energy of Binding    =   -8.88 kcal/mol  [=(1)+(2)+(3)-(4)]
USER    Estimated Inhibition Constant, Ki   =  311.98 nM (nanomolar)  [Temperature = 298.15 K]
USER    
USER    (1) Final Intermolecular Energy     =  -10.96 kcal/mol
USER        vdW + Hbond + desolv Energy     =  -10.96 kcal/mol
USER        Electrostatic Energy            =   +0.00 kcal/mol
USER    (2) Final Total Internal Energy     =   -1.89 kcal/mol
USER    (3) Torsional Free Energy           =   +2.09 kcal/mol
USER    (4) Unbound System's Energy  [=(2)] =   -1.89 kcal/mol
USER    
USER    
USER  
USER    DPF = ligand_dock.biased.dpf
USER    NEWDPF move	ligand.pdbqt
USER    NEWDPF about	1.179000 0.138000 -0.353000
USER    NEWDPF tran0	15.432106 -9.330314 -0.149202
USER    NEWDPF axisangle0	0.954491 -0.298230 0.002405 -122.728860
USER    NEWDPF quaternion0	0.837743 -0.261752 0.002111 -0.479237
USER    NEWDPF dihe0	-8.65 31.56 165.21 -118.29 31.70 153.61 -110.81 
USER  
USER                              x       y       z    vdW   Elec        q     RMS 
ATOM      1  C   UNL     1      14.947 -10.493  -1.597 -0.30 -0.00    +0.000    16.165
ATOM      2  C   UNL     1      14.640 -11.627  -2.581 -0.30 -0.00    +0.000    16.165
ATOM      3  C   UNL     1      16.177 -10.824  -0.776 -0.33 -0.00    +0.000    16.165
ATOM      4  C   UNL     1      16.394 -12.009  -0.171 -0.47 +0.00    +0.000    16.165
ATOM      5  C   UNL     1      15.391 -13.140  -0.248 -0.58 +0.00    +0.000    16.165
ATOM      6  C   UNL     1      17.631 -12.159   0.640 -0.55 +0.00    +0.000    16.165
ATOM      7  C   UNL     1      18.124 -11.180   1.413 -0.52 -0.00    +0.000    16.165
ATOM      8  C   UNL     1      19.353 -11.322   2.220 -0.69 -0.00    +0.000    16.165
ATOM      9  N   UNL     1      19.824 -10.286   3.092 -0.62 -0.00    +0.000    16.165
ATOM     10  O   UNL     1      19.992 -12.406   2.153 -1.66 -0.00    +0.000    16.165
ATOM     11  H   UNL     1      19.280  -9.477   3.231 -0.38 -0.00    +0.000    16.165
ATOM     12  O   UNL     1      21.013 -10.417   3.725 -0.66 -0.00    +0.000    16.165
ATOM     13  H   UNL     1      21.354 -11.316   3.592 -0.51 -0.00    +0.000    16.165
ATOM     14  C   UNL     1      13.752 -10.267  -0.696 -0.26 +0.00    +0.000    16.165
ATOM     15  O   UNL     1      12.596 -10.473  -1.158 -0.30 -0.00    +0.000    16.165
ATOM     16  C   UNL     1      14.139  -8.927   3.398 -0.27 +0.00    +0.000    16.165
ATOM     17  C   UNL     1      13.434 -10.105   3.077 -0.25 +0.00    +0.000    16.165
ATOM     18  C   UNL     1      13.312 -10.528   1.751 -0.27 +0.00    +0.000    16.165
ATOM     19  C   UNL     1      13.894  -9.793   0.706 -0.19 +0.00    +0.000    16.165
ATOM     20  C   UNL     1      14.590  -8.613   1.018 -0.23 +0.00    +0.000    16.165
ATOM     21  C   UNL     1      14.712  -8.187   2.345 -0.25 +0.00    +0.000    16.165
ATOM     22  C   UNL     1      14.784  -7.148   5.085 -0.45 +0.00    +0.000    16.165
ATOM     23  N   UNL     1      14.267  -8.486   4.776 -0.38 +0.00    +0.000    16.165
ATOM     24  C   UNL     1      13.883  -9.371   5.882 -0.52 +0.00    +0.000    16.165
TER
ENDMDL
MODEL       11
USER    Run = 11
USER    Cluster Rank = 12
USER    Number of conformations in this cluster = 1
USER  
USER    RMSD from reference structure       = 17.761 A
USER  
USER    Estimated Free Energy of Binding    =   -8.74 kcal/mol  [=(1)+(2)+(3)-(4)]
USER    Estimated Inhibition Constant, Ki   =  392.79 nM (nanomolar)  [Temperature = 298.15 K]
USER    
USER    (1) Final Intermolecular Energy     =  -10.83 kcal/mol
USER        vdW + Hbond + desolv Energy     =  -10.83 kcal/mol
USER        Electrostatic Energy            =   +0.00 kcal/mol
USER    (2) Final Total Internal Energy     =   -1.26 kcal/mol
USER    (3) Torsional Free Energy           =   +2.09 kcal/mol
USER    (4) Unbound System's Energy  [=(2)] =   -1.26 kcal/mol
USER    
USER    
USER  
USER    DPF = ligand_dock.biased.dpf
USER    NEWDPF move	ligand.pdbqt
USER    NEWDPF about	1.179000 0.138000 -0.353000
USER    NEWDPF tran0	18.162865 -11.106795 0.289863
USER    NEWDPF axisangle0	0.071799 -0.968046 -0.240274 43.097393
USER    NEWDPF quaternion0	0.026371 -0.355556 -0.088251 0.930106
USER    NEWDPF dihe0	-174.25 -123.10 127.03 5.86 39.47 3.02 -46.49 
USER  
USER                              x       y       z    vdW   Elec        q     RMS 
ATOM      1  C   UNL     1      19.253 -11.412   1.840 -0.67 -0.00    +0.000    17.761
ATOM      2  C   UNL     1      20.271 -11.438   2.984 -0.75 -0.00    +0.000    17.761
ATOM      3  C   UNL     1      19.925 -11.014   0.542 -0.65 -0.00    +0.000    17.761
ATOM      4  C   UNL     1      19.402 -11.221  -0.684 -0.50 -0.00    +0.000    17.761
ATOM      5  C   UNL     1      18.064 -11.903  -0.874 -0.37 -0.00    +0.000    17.761
ATOM      6  C   UNL     1      20.211 -10.815  -1.863 -0.44 -0.00    +0.000    17.761
ATOM      7  C   UNL     1      19.970 -11.260  -3.105 -0.33 -0.00    +0.000    17.761
ATOM      8  C   UNL     1      20.771 -10.861  -4.281 -0.51 -0.00    +0.000    17.761
ATOM      9  N   UNL     1      21.046 -11.759  -5.364 -0.50 -0.00    +0.000    17.761
ATOM     10  O   UNL     1      21.204  -9.679  -4.338 -0.40 -0.00    +0.000    17.761
ATOM     11  H   UNL     1      20.628 -12.650  -5.379 -0.58 -0.00    +0.000    17.761
ATOM     12  O   UNL     1      21.877 -11.385  -6.365 -0.47 -0.00    +0.000    17.761
ATOM     13  H   UNL     1      21.881 -12.066  -7.055 -0.55 -0.00    +0.000    17.761
ATOM     14  C   UNL     1      18.137 -10.446   2.177 -0.53 -0.00    +0.000    17.761
ATOM     15  O   UNL     1      18.406  -9.425   2.869 -0.63 -0.00    +0.000    17.761
ATOM     16  C   UNL     1      14.059 -11.055   0.869 -0.31 +0.00    +0.000    17.761
ATOM     17  C   UNL     1      14.804  -9.934   0.448 -0.24 +0.00    +0.000    17.761
ATOM     18  C   UNL     1      16.119  -9.745   0.879 -0.19 +0.00    +0.000    17.761
ATOM     19  C   UNL     1      16.735 -10.670   1.737 -0.37 +0.00    +0.000    17.761
ATOM     20  C   UNL     1      15.995 -11.785   2.168 -0.35 +0.00    +0.000    17.761
ATOM     21  C   UNL     1      14.678 -11.975   1.740 -0.44 +0.00    +0.000    17.761
ATOM     22  C   UNL     1      12.291 -10.885  -0.940 -0.25 +0.00    +0.000    17.761
ATOM     23  N   UNL     1      12.692 -11.253   0.423 -0.35 +0.00    +0.000    17.761
ATOM     24  C   UNL     1      11.686 -11.823   1.328 -0.43 +0.00    +0.000    17.761
TER
ENDMDL
MODEL       73
USER    Run = 73
USER    Cluster Rank = 13
USER    Number of conformations in this cluster = 2
USER  
USER    RMSD from reference structure       = 22.481 A
USER  
USER    Estimated Free Energy of Binding    =   -8.59 kcal/mol  [=(1)+(2)+(3)-(4)]
USER    Estimated Inhibition Constant, Ki   =  505.11 nM (nanomolar)  [Temperature = 298.15 K]
USER    
USER    (1) Final Intermolecular Energy     =  -10.68 kcal/mol
USER        vdW + Hbond + desolv Energy     =  -10.68 kcal/mol
USER        Electrostatic Energy            =   +0.00 kcal/mol
USER    (2) Final Total Internal Energy     =   -1.51 kcal/mol
USER    (3) Torsional Free Energy           =   +2.09 kcal/mol
USER    (4) Unbound System's Energy  [=(2)] =   -1.51 kcal/mol
USER    
USER    
USER  
USER    DPF = ligand_dock.biased.dpf
USER    NEWDPF move	ligand.pdbqt
USER    NEWDPF about	1.179000 0.138000 -0.353000
USER    NEWDPF tran0	21.694018 -12.586833 -5.037613
USER    NEWDPF axisangle0	0.636370 0.575364 0.513799 147.779270
USER    NEWDPF quaternion0	0.611379 0.552769 0.493622 0.277488
USER    NEWDPF dihe0	-8.10 42.71 -161.35 87.04 73.49 -88.16 67.70 
USER  
USER                              x       y       z    vdW   Elec        q     RMS 
ATOM      1  C   UNL     1      21.813 -10.960  -6.050 -0.47 -0.00    +0.000    22.481
ATOM      2  C   UNL     1      22.080  -9.578  -6.654 -0.28 -0.00    +0.000    22.481
ATOM      3  C   UNL     1      21.768 -10.877  -4.538 -0.51 -0.00    +0.000    22.481
ATOM      4  C   UNL     1      20.772 -10.302  -3.834 -0.49 -0.00    +0.000    22.481
ATOM      5  C   UNL     1      19.585  -9.656  -4.515 -0.30 -0.00    +0.000    22.481
ATOM      6  C   UNL     1      20.901 -10.260  -2.353 -0.57 -0.00    +0.000    22.481
ATOM      7  C   UNL     1      20.060 -10.898  -1.526 -0.45 -0.00    +0.000    22.481
ATOM      8  C   UNL     1      20.183 -10.859  -0.054 -0.64 -0.00    +0.000    22.481
ATOM      9  N   UNL     1      19.890 -11.994   0.771 -0.62 -0.00    +0.000    22.481
ATOM     10  O   UNL     1      20.583  -9.793   0.486 -0.66 -0.00    +0.000    22.481
ATOM     11  H   UNL     1      19.676 -12.861   0.355 -0.43 -0.00    +0.000    22.481
ATOM     12  O   UNL     1      19.908 -11.878   2.120 -1.60 -0.00    +0.000    22.481
ATOM     13  H   UNL     1      20.258 -11.007   2.365 -0.03 -0.00    +0.000    22.481
ATOM     14  C   UNL     1      22.891 -11.925  -6.497 -0.53 -0.00    +0.000    22.481
ATOM     15  O   UNL     1      23.254 -12.838  -5.704 -0.86 -0.00    +0.000    22.481
ATOM     16  C   UNL     1      24.759 -11.650 -10.387 -0.19 -0.00    +0.000    22.481
ATOM     17  C   UNL     1      23.525 -12.309 -10.213 -0.26 -0.00    +0.000    22.481
ATOM     18  C   UNL     1      22.931 -12.396  -8.951 -0.34 -0.00    +0.000    22.481
ATOM     19  C   UNL     1      23.546 -11.822  -7.827 -0.44 -0.00    +0.000    22.481
ATOM     20  C   UNL     1      24.781 -11.172  -7.992 -0.38 -0.00    +0.000    22.481
ATOM     21  C   UNL     1      25.378 -11.086  -9.254 -0.29 -0.00    +0.000    22.481
ATOM     22  C   UNL     1      26.823 -11.332 -11.826 -0.16 -0.00    +0.000    22.481
ATOM     23  N   UNL     1      25.378 -11.560 -11.697 -0.11 -0.00    +0.000    22.481
ATOM     24  C   UNL     1      24.570 -11.693 -12.916 -0.06 -0.00    +0.000    22.481
TER
ENDMDL
MODEL       86
USER    Run = 86
USER    Cluster Rank = 14
USER    Number of conformations in this cluster = 3
USER  
USER    RMSD from reference structure       = 18.483 A
USER  
USER    Estimated Free Energy of Binding    =   -8.54 kcal/mol  [=(1)+(2)+(3)-(4)]
USER    Estimated Inhibition Constant, Ki   =  551.23 nM (nanomolar)  [Temperature = 298.15 K]
USER    
USER    (1) Final Intermolecular Energy     =  -10.63 kcal/mol
USER        vdW + Hbond + desolv Energy     =  -10.63 kcal/mol
USER        Electrostatic Energy            =   +0.00 kcal/mol
USER    (2) Final Total Internal Energy     =   -1.65 kcal/mol
USER    (3) Torsional Free Energy           =   +2.09 kcal/mol
USER    (4) Unbound System's Energy  [=(2)] =   -1.65 kcal/mol
USER    
USER    
USER  
USER    DPF = ligand_dock.biased.dpf
USER    NEWDPF move	ligand.pdbqt
USER    NEWDPF about	1.179000 0.138000 -0.353000
USER    NEWDPF tran0	19.403427 -8.773178 -3.995772
USER    NEWDPF axisangle0	0.812268 0.226133 0.537667 -107.308181
USER    NEWDPF quaternion0	0.654244 0.182140 0.433066 -0.592659
USER    NEWDPF dihe0	-7.63 -49.67 134.51 156.89 -33.83 -48.15 180.00 
USER  
USER                              x       y       z    vdW   Elec        q     RMS 
ATOM      1  C   UNL     1      20.817 -10.008  -4.397 -0.43 -0.00    +0.000    18.483
ATOM      2  C   UNL     1      22.048 -10.917  -4.470 -0.31 -0.00    +0.000    18.483
ATOM      3  C   UNL     1      21.161  -8.705  -3.705 -0.40 -0.00    +0.000    18.483
ATOM      4  C   UNL     1      21.209  -7.504  -4.318 -0.30 -0.00    +0.000    18.483
ATOM      5  C   UNL     1      20.931  -7.354  -5.798 -0.15 -0.00    +0.000    18.483
ATOM      6  C   UNL     1      21.611  -6.325  -3.507 -0.32 -0.00    +0.000    18.483
ATOM      7  C   UNL     1      21.111  -6.069  -2.288 -0.45 -0.00    +0.000    18.483
ATOM      8  C   UNL     1      21.506  -4.899  -1.478 -0.39 +0.00    +0.000    18.483
ATOM      9  N   UNL     1      20.632  -4.306  -0.508 -0.47 +0.00    +0.000    18.483
ATOM     10  O   UNL     1      22.663  -4.424  -1.634 -0.83 +0.00    +0.000    18.483
ATOM     11  H   UNL     1      19.767  -4.730  -0.304 -0.08 +0.00    +0.000    18.483
ATOM     12  O   UNL     1      20.995  -3.169   0.130 -0.94 +0.00    +0.000    18.483
ATOM     13  H   UNL     1      21.914  -2.951  -0.092 -0.03 +0.00    +0.000    18.483
ATOM     14  C   UNL     1      19.703 -10.722  -3.661 -0.45 -0.00    +0.000    18.483
ATOM     15  O   UNL     1      18.772 -11.246  -4.333 -0.39 -0.00    +0.000    18.483
ATOM     16  C   UNL     1      19.531 -10.991   0.651 -0.55 -0.00    +0.000    18.483
ATOM     17  C   UNL     1      18.433 -11.365  -0.150 -0.44 -0.00    +0.000    18.483
ATOM     18  C   UNL     1      18.497 -11.271  -1.542 -0.31 -0.00    +0.000    18.483
ATOM     19  C   UNL     1      19.660 -10.809  -2.178 -0.39 -0.00    +0.000    18.483
ATOM     20  C   UNL     1      20.755 -10.425  -1.385 -0.54 -0.00    +0.000    18.483
ATOM     21  C   UNL     1      20.692 -10.517   0.009 -0.61 -0.00    +0.000    18.483
ATOM     22  C   UNL     1      20.254 -12.098   2.815 -0.72 -0.00    +0.000    18.483
ATOM     23  N   UNL     1      19.466 -11.088   2.099 -0.59 -0.00    +0.000    18.483
ATOM     24  C   UNL     1      18.611 -10.178   2.870 -0.56 -0.00    +0.000    18.483
TER
ENDMDL
MODEL       87
USER    Run = 87
USER    Cluster Rank = 15
USER    Number of conformations in this cluster = 1
USER  
USER    RMSD from reference structure       = 17.306 A
USER  
USER    Estimated Free Energy of Binding    =   -8.47 kcal/mol  [=(1)+(2)+(3)-(4)]
USER    Estimated Inhibition Constant, Ki   =  618.70 nM (nanomolar)  [Temperature = 298.15 K]
USER    
USER    (1) Final Intermolecular Energy     =  -10.56 kcal/mol
USER        vdW + Hbond + desolv Energy     =  -10.56 kcal/mol
USER        Electrostatic Energy            =   +0.00 kcal/mol
USER    (2) Final Total Internal Energy     =   -1.75 kcal/mol
USER    (3) Torsional Free Energy           =   +2.09 kcal/mol
USER    (4) Unbound System's Energy  [=(2)] =   -1.75 kcal/mol
USER    
USER    
USER  
USER    DPF = ligand_dock.biased.dpf
USER    NEWDPF move	ligand.pdbqt
USER    NEWDPF about	1.179000 0.138000 -0.353000
USER    NEWDPF tran0	16.007602 -11.505299 -1.747757
USER    NEWDPF axisangle0	0.334432 0.877669 0.343295 57.814556
USER    NEWDPF quaternion0	0.161662 0.424260 0.165947 0.875403
USER    NEWDPF dihe0	-4.04 -174.44 -151.06 179.82 -137.77 -41.55 -45.07 
USER  
USER                              x       y       z    vdW   Elec        q     RMS 
ATOM      1  C   UNL     1      14.373 -11.110  -0.822 -0.35 +0.00    +0.000    17.306
ATOM      2  C   UNL     1      13.230 -10.638   0.082 -0.30 +0.00    +0.000    17.306
ATOM      3  C   UNL     1      15.640 -11.308  -0.014 -0.38 +0.00    +0.000    17.306
ATOM      4  C   UNL     1      16.277 -12.488   0.130 -0.53 +0.00    +0.000    17.306
ATOM      5  C   UNL     1      15.756 -13.758  -0.509 -0.56 +0.00    +0.000    17.306
ATOM      6  C   UNL     1      17.484 -12.525   0.997 -0.49 +0.00    +0.000    17.306
ATOM      7  C   UNL     1      18.227 -11.442   1.265 -0.54 -0.00    +0.000    17.306
ATOM      8  C   UNL     1      19.428 -11.472   2.125 -0.70 -0.00    +0.000    17.306
ATOM      9  N   UNL     1      19.655 -10.509   3.162 -0.65 -0.00    +0.000    17.306
ATOM     10  O   UNL     1      20.267 -12.396   1.950 -1.67 -0.00    +0.000    17.306
ATOM     11  H   UNL     1      18.959  -9.845   3.375 -0.09 -0.00    +0.000    17.306
ATOM     12  O   UNL     1      20.822 -10.510   3.848 -0.76 -0.00    +0.000    17.306
ATOM     13  H   UNL     1      21.366 -11.260   3.562 -0.50 -0.00    +0.000    17.306
ATOM     14  C   UNL     1      14.599 -10.097  -1.924 -0.28 -0.00    +0.000    17.306
ATOM     15  O   UNL     1      14.414  -8.874  -1.671 -0.22 -0.00    +0.000    17.306
ATOM     16  C   UNL     1      15.760 -11.280  -5.919 -0.26 -0.00    +0.000    17.306
ATOM     17  C   UNL     1      14.510 -11.647  -5.380 -0.27 -0.00    +0.000    17.306
ATOM     18  C   UNL     1      14.145 -11.263  -4.088 -0.25 -0.00    +0.000    17.306
ATOM     19  C   UNL     1      15.013 -10.495  -3.295 -0.25 -0.00    +0.000    17.306
ATOM     20  C   UNL     1      16.265 -10.133  -3.822 -0.22 -0.00    +0.000    17.306
ATOM     21  C   UNL     1      16.632 -10.519  -5.115 -0.22 -0.00    +0.000    17.306
ATOM     22  C   UNL     1      15.395 -12.729  -7.967 -0.43 +0.00    +0.000    17.306
ATOM     23  N   UNL     1      16.140 -11.679  -7.262 -0.33 -0.00    +0.000    17.306
ATOM     24  C   UNL     1      17.277 -11.041  -7.937 -0.30 -0.00    +0.000    17.306
TER
ENDMDL
MODEL       56
USER    Run = 56
USER    Cluster Rank = 16
USER    Number of conformations in this cluster = 1
USER  
USER    RMSD from reference structure       = 18.056 A
USER  
USER    Estimated Free Energy of Binding    =   -8.26 kcal/mol  [=(1)+(2)+(3)-(4)]
USER    Estimated Inhibition Constant, Ki   =  879.87 nM (nanomolar)  [Temperature = 298.15 K]
USER    
USER    (1) Final Intermolecular Energy     =  -10.35 kcal/mol
USER        vdW + Hbond + desolv Energy     =  -10.35 kcal/mol
USER        Electrostatic Energy            =   +0.00 kcal/mol
USER    (2) Final Total Internal Energy     =   -1.62 kcal/mol
USER    (3) Torsional Free Energy           =   +2.09 kcal/mol
USER    (4) Unbound System's Energy  [=(2)] =   -1.62 kcal/mol
USER    
USER    
USER  
USER    DPF = ligand_dock.biased.dpf
USER    NEWDPF move	ligand.pdbqt
USER    NEWDPF about	1.179000 0.138000 -0.353000
USER    NEWDPF tran0	15.627260 -11.912154 -1.752876
USER    NEWDPF axisangle0	0.868434 0.355853 0.345241 103.523229
USER    NEWDPF quaternion0	0.682105 0.279502 0.271167 0.618935
USER    NEWDPF dihe0	-12.57 66.02 167.00 -131.56 -26.26 3.38 -179.69 
USER  
USER                              x       y       z    vdW   Elec        q     RMS 
ATOM      1  C   UNL     1      15.134 -10.057  -1.781 -0.28 -0.00    +0.000    18.056
ATOM      2  C   UNL     1      15.015  -8.530  -1.792 -0.16 -0.00    +0.000    18.056
ATOM      3  C   UNL     1      16.287 -10.492  -0.900 -0.31 -0.00    +0.000    18.056
ATOM      4  C   UNL     1      16.452 -11.742  -0.420 -0.42 +0.00    +0.000    18.056
ATOM      5  C   UNL     1      15.460 -12.846  -0.716 -0.47 +0.00    +0.000    18.056
ATOM      6  C   UNL     1      17.613 -11.996   0.473 -0.53 +0.00    +0.000    18.056
ATOM      7  C   UNL     1      18.196 -11.037   1.208 -0.51 -0.00    +0.000    18.056
ATOM      8  C   UNL     1      19.351 -11.283   2.096 -0.68 -0.00    +0.000    18.056
ATOM      9  N   UNL     1      19.892 -10.268   2.952 -0.60 -0.00    +0.000    18.056
ATOM     10  O   UNL     1      19.858 -12.437   2.114 -1.67 -0.00    +0.000    18.056
ATOM     11  H   UNL     1      19.441  -9.396   3.022 -0.53 -0.00    +0.000    18.056
ATOM     12  O   UNL     1      21.018 -10.507   3.663 -0.68 -0.00    +0.000    18.056
ATOM     13  H   UNL     1      21.221 -11.456   3.641 -0.53 -0.00    +0.000    18.056
ATOM     14  C   UNL     1      15.328 -10.561  -3.196 -0.27 -0.00    +0.000    18.056
ATOM     15  O   UNL     1      14.336 -11.043  -3.809 -0.33 -0.00    +0.000    18.056
ATOM     16  C   UNL     1      19.149 -10.473  -5.219 -0.31 -0.00    +0.000    18.056
ATOM     17  C   UNL     1      18.013 -11.046  -5.825 -0.32 -0.00    +0.000    18.056
ATOM     18  C   UNL     1      16.784 -11.073  -5.162 -0.08 -0.00    +0.000    18.056
ATOM     19  C   UNL     1      16.648 -10.523  -3.878 -0.12 -0.00    +0.000    18.056
ATOM     20  C   UNL     1      17.779  -9.958  -3.263 -0.21 -0.00    +0.000    18.056
ATOM     21  C   UNL     1      19.011  -9.933  -3.924 -0.28 -0.00    +0.000    18.056
ATOM     22  C   UNL     1      21.661 -10.823  -5.204 -0.50 -0.00    +0.000    18.056
ATOM     23  N   UNL     1      20.428 -10.446  -5.906 -0.30 -0.00    +0.000    18.056
ATOM     24  C   UNL     1      20.511 -10.038  -7.313 -0.25 -0.00    +0.000    18.056
TER
ENDMDL
MODEL       10
USER    Run = 10
USER    Cluster Rank = 17
USER    Number of conformations in this cluster = 2
USER  
USER    RMSD from reference structure       = 15.535 A
USER  
USER    Estimated Free Energy of Binding    =   -8.22 kcal/mol  [=(1)+(2)+(3)-(4)]
USER    Estimated Inhibition Constant, Ki   =  947.98 nM (nanomolar)  [Temperature = 298.15 K]
USER    
USER    (1) Final Intermolecular Energy     =  -10.31 kcal/mol
USER        vdW + Hbond + desolv Energy     =  -10.31 kcal/mol
USER        Electrostatic Energy            =   +0.00 kcal/mol
USER    (2) Final Total Internal Energy     =   -1.58 kcal/mol
USER    (3) Torsional Free Energy           =   +2.09 kcal/mol
USER    (4) Unbound System's Energy  [=(2)] =   -1.58 kcal/mol
USER    
USER    
USER  
USER    DPF = ligand_dock.biased.dpf
USER    NEWDPF move	ligand.pdbqt
USER    NEWDPF about	1.179000 0.138000 -0.353000
USER    NEWDPF tran0	15.184312 -11.053893 3.110976
USER    NEWDPF axisangle0	-0.989809 0.012409 0.141861 -151.493330
USER    NEWDPF quaternion0	-0.959339 0.012027 0.137494 -0.246210
USER    NEWDPF dihe0	-15.14 121.10 -155.65 -169.78 -48.12 4.71 52.05 
USER  
USER                              x       y       z    vdW   Elec        q     RMS 
ATOM      1  C   UNL     1      14.485  -9.772   1.865 -0.29 +0.00    +0.000    15.535
ATOM      2  C   UNL     1      14.091  -8.878   0.685 -0.23 +0.00    +0.000    15.535
ATOM      3  C   UNL     1      15.947 -10.158   1.771 -0.37 +0.00    +0.000    15.535
ATOM      4  C   UNL     1      16.668 -10.671   2.789 -0.49 +0.00    +0.000    15.535
ATOM      5  C   UNL     1      16.064 -10.896   4.159 -0.51 +0.00    +0.000    15.535
ATOM      6  C   UNL     1      18.108 -10.953   2.549 -0.55 -0.00    +0.000    15.535
ATOM      7  C   UNL     1      18.658 -10.964   1.326 -0.55 -0.00    +0.000    15.535
ATOM      8  C   UNL     1      20.088 -11.244   1.081 -0.71 -0.00    +0.000    15.535
ATOM      9  N   UNL     1      20.868 -10.491   0.143 -0.64 -0.00    +0.000    15.535
ATOM     10  O   UNL     1      20.640 -12.165   1.741 -1.51 -0.00    +0.000    15.535
ATOM     11  H   UNL     1      20.476  -9.706  -0.302 -0.03 -0.00    +0.000    15.535
ATOM     12  O   UNL     1      22.143 -10.856  -0.130 -0.70 -0.00    +0.000    15.535
ATOM     13  H   UNL     1      22.453 -11.479   0.546 -0.54 -0.00    +0.000    15.535
ATOM     14  C   UNL     1      13.610 -11.007   1.879 -0.39 +0.00    +0.000    15.535
ATOM     15  O   UNL     1      14.159 -12.139   1.988 -0.53 +0.00    +0.000    15.535
ATOM     16  C   UNL     1       9.306 -10.837   1.486 -0.25 +0.00    +0.000    15.535
ATOM     17  C   UNL     1      10.030 -11.988   1.114 -0.38 +0.00    +0.000    15.535
ATOM     18  C   UNL     1      11.421 -12.032   1.242 -0.35 +0.00    +0.000    15.535
ATOM     19  C   UNL     1      12.131 -10.933   1.751 -0.29 +0.00    +0.000    15.535
ATOM     20  C   UNL     1      11.416  -9.779   2.114 -0.16 +0.00    +0.000    15.535
ATOM     21  C   UNL     1      10.025  -9.733   1.986 -0.15 +0.00    +0.000    15.535
ATOM     22  C   UNL     1       7.240 -10.535   0.049 -0.15 -0.00    +0.000    15.535
ATOM     23  N   UNL     1       7.861 -10.790   1.354 -0.20 +0.00    +0.000    15.535
ATOM     24  C   UNL     1       6.997 -10.993   2.523 -0.33 +0.00    +0.000    15.535
TER
ENDMDL
MODEL       32
USER    Run = 32
USER    Cluster Rank = 18
USER    Number of conformations in this cluster = 1
USER  
USER    RMSD from reference structure       = 18.265 A
USER  
USER    Estimated Free Energy of Binding    =   -8.20 kcal/mol  [=(1)+(2)+(3)-(4)]
USER    Estimated Inhibition Constant, Ki   =  980.73 nM (nanomolar)  [Temperature = 298.15 K]
USER    
USER    (1) Final Intermolecular Energy     =  -10.29 kcal/mol
USER        vdW + Hbond + desolv Energy     =  -10.29 kcal/mol
USER        Electrostatic Energy            =   +0.00 kcal/mol
USER    (2) Final Total Internal Energy     =   -1.69 kcal/mol
USER    (3) Torsional Free Energy           =   +2.09 kcal/mol
USER    (4) Unbound System's Energy  [=(2)] =   -1.69 kcal/mol
USER    
USER    
USER  
USER    DPF = ligand_dock.biased.dpf
USER    NEWDPF move	ligand.pdbqt
USER    NEWDPF about	1.179000 0.138000 -0.353000
USER    NEWDPF tran0	19.185582 -9.187845 -1.400897
USER    NEWDPF axisangle0	0.407151 -0.530088 0.743798 162.438343
USER    NEWDPF quaternion0	0.402379 -0.523875 0.735080 0.152655
USER    NEWDPF dihe0	8.26 169.56 112.15 161.53 37.56 -99.81 -143.98 
USER  
USER                              x       y       z    vdW   Elec        q     RMS 
ATOM      1  C   UNL     1      20.837 -10.004  -0.860 -0.66 -0.00    +0.000    18.265
ATOM      2  C   UNL     1      22.030 -10.894  -0.501 -0.35 -0.00    +0.000    18.265
ATOM      3  C   UNL     1      19.535 -10.707  -0.535 -0.53 -0.00    +0.000    18.265
ATOM      4  C   UNL     1      19.183 -11.129   0.697 -0.59 -0.00    +0.000    18.265
ATOM      5  C   UNL     1      20.093 -10.946   1.892 -0.72 -0.00    +0.000    18.265
ATOM      6  C   UNL     1      17.889 -11.847   0.842 -0.54 -0.00    +0.000    18.265
ATOM      7  C   UNL     1      16.766 -11.468   0.214 -0.43 +0.00    +0.000    18.265
ATOM      8  C   UNL     1      15.477 -12.176   0.354 -0.50 +0.00    +0.000    18.265
ATOM      9  N   UNL     1      14.254 -11.493   0.658 -0.36 +0.00    +0.000    18.265
ATOM     10  O   UNL     1      15.456 -13.424   0.176 -1.02 +0.00    +0.000    18.265
ATOM     11  H   UNL     1      14.239 -10.509   0.697 +0.01 +0.00    +0.000    18.265
ATOM     12  O   UNL     1      13.120 -12.196   0.888 -0.50 +0.00    +0.000    18.265
ATOM     13  H   UNL     1      13.330 -13.141   0.940 -0.25 +0.00    +0.000    18.265
ATOM     14  C   UNL     1      20.895  -9.648  -2.331 -0.55 -0.00    +0.000    18.265
ATOM     15  O   UNL     1      21.852  -8.938  -2.746 -0.47 -0.00    +0.000    18.265
ATOM     16  C   UNL     1      17.903 -10.962  -5.164 -0.24 -0.00    +0.000    18.265
ATOM     17  C   UNL     1      19.256 -11.331  -5.305 -0.40 -0.00    +0.000    18.265
ATOM     18  C   UNL     1      20.216 -10.899  -4.386 -0.43 -0.00    +0.000    18.265
ATOM     19  C   UNL     1      19.854 -10.092  -3.296 -0.37 -0.00    +0.000    18.265
ATOM     20  C   UNL     1      18.508  -9.713  -3.155 -0.15 -0.00    +0.000    18.265
ATOM     21  C   UNL     1      17.547 -10.143  -4.075 -0.24 -0.00    +0.000    18.265
ATOM     22  C   UNL     1      17.266 -11.643  -7.522 -0.37 -0.00    +0.000    18.265
ATOM     23  N   UNL     1      16.905 -11.410  -6.119 -0.32 -0.00    +0.000    18.265
ATOM     24  C   UNL     1      15.517 -11.636  -5.697 -0.28 -0.00    +0.000    18.265
TER
ENDMDL
MODEL       12
USER    Run = 12
USER    Cluster Rank = 19
USER    Number of conformations in this cluster = 2
USER  
USER    RMSD from reference structure       = 16.934 A
USER  
USER    Estimated Free Energy of Binding    =   -8.16 kcal/mol  [=(1)+(2)+(3)-(4)]
USER    Estimated Inhibition Constant, Ki   =    1.05 uM (micromolar)  [Temperature = 298.15 K]
USER    
USER    (1) Final Intermolecular Energy     =  -10.25 kcal/mol
USER        vdW + Hbond + desolv Energy     =  -10.25 kcal/mol
USER        Electrostatic Energy            =   +0.00 kcal/mol
USER    (2) Final Total Internal Energy     =   -2.15 kcal/mol
USER    (3) Torsional Free Energy           =   +2.09 kcal/mol
USER    (4) Unbound System's Energy  [=(2)] =   -2.15 kcal/mol
USER    
USER    
USER  
USER    DPF = ligand_dock.biased.dpf
USER    NEWDPF move	ligand.pdbqt
USER    NEWDPF about	1.179000 0.138000 -0.353000
USER    NEWDPF tran0	14.763579 -12.465186 -0.927271
USER    NEWDPF axisangle0	0.857277 0.505303 0.098716 37.378413
USER    NEWDPF quaternion0	0.274701 0.161916 0.031632 0.947271
USER    NEWDPF dihe0	-1.02 -6.15 76.06 -157.04 -110.00 -15.44 -124.88 
USER  
USER                              x       y       z    vdW   Elec        q     RMS 
ATOM      1  C   UNL     1      13.897 -11.903   0.690 -0.46 +0.00    +0.000    16.934
ATOM      2  C   UNL     1      13.408 -11.263   1.994 -0.41 +0.00    +0.000    16.934
ATOM      3  C   UNL     1      15.410 -11.906   0.637 -0.47 +0.00    +0.000    16.934
ATOM      4  C   UNL     1      16.154 -12.893   0.096 -0.51 +0.00    +0.000    16.934
ATOM      5  C   UNL     1      15.520 -14.127  -0.508 -0.49 +0.00    +0.000    16.934
ATOM      6  C   UNL     1      17.633 -12.767   0.166 -0.48 +0.00    +0.000    16.934
ATOM      7  C   UNL     1      18.254 -11.723   0.735 -0.55 -0.00    +0.000    16.934
ATOM      8  C   UNL     1      19.724 -11.593   0.808 -0.68 -0.00    +0.000    16.934
ATOM      9  N   UNL     1      20.481 -10.872  -0.174 -0.59 -0.00    +0.000    16.934
ATOM     10  O   UNL     1      20.325 -12.117   1.784 -1.67 -0.00    +0.000    16.934
ATOM     11  H   UNL     1      20.014 -10.373  -0.883 -0.01 -0.00    +0.000    16.934
ATOM     12  O   UNL     1      21.833 -10.875  -0.127 -0.75 -0.00    +0.000    16.934
ATOM     13  H   UNL     1      22.130 -11.395   0.635 -0.53 -0.00    +0.000    16.934
ATOM     14  C   UNL     1      13.325 -11.147  -0.490 -0.35 +0.00    +0.000    16.934
ATOM     15  O   UNL     1      12.099 -10.849  -0.484 -0.33 +0.00    +0.000    16.934
ATOM     16  C   UNL     1      15.727 -10.066  -3.921 -0.21 -0.00    +0.000    16.934
ATOM     17  C   UNL     1      14.993 -11.269  -3.891 -0.19 -0.00    +0.000    16.934
ATOM     18  C   UNL     1      14.223 -11.611  -2.777 -0.26 -0.00    +0.000    16.934
ATOM     19  C   UNL     1      14.155 -10.761  -1.662 -0.29 -0.00    +0.000    16.934
ATOM     20  C   UNL     1      14.892  -9.564  -1.681 -0.23 -0.00    +0.000    16.934
ATOM     21  C   UNL     1      15.665  -9.221  -2.795 -0.18 -0.00    +0.000    16.934
ATOM     22  C   UNL     1      16.807  -8.302  -5.388 -0.13 -0.00    +0.000    16.934
ATOM     23  N   UNL     1      16.528  -9.710  -5.078 -0.17 -0.00    +0.000    16.934
ATOM     24  C   UNL     1      17.071 -10.750  -5.960 -0.29 -0.00    +0.000    16.934
TER
ENDMDL
MODEL       45
USER    Run = 45
USER    Cluster Rank = 20
USER    Number of conformations in this cluster = 1
USER  
USER    RMSD from reference structure       = 19.042 A
USER  
USER    Estimated Free Energy of Binding    =   -7.92 kcal/mol  [=(1)+(2)+(3)-(4)]
USER    Estimated Inhibition Constant, Ki   =    1.55 uM (micromolar)  [Temperature = 298.15 K]
USER    
USER    (1) Final Intermolecular Energy     =  -10.01 kcal/mol
USER        vdW + Hbond + desolv Energy     =  -10.01 kcal/mol
USER        Electrostatic Energy            =   +0.00 kcal/mol
USER    (2) Final Total Internal Energy     =   -1.61 kcal/mol
USER    (3) Torsional Free Energy           =   +2.09 kcal/mol
USER    (4) Unbound System's Energy  [=(2)] =   -1.61 kcal/mol
USER    
USER    
USER  
USER    DPF = ligand_dock.biased.dpf
USER    NEWDPF move	ligand.pdbqt
USER    NEWDPF about	1.179000 0.138000 -0.353000
USER    NEWDPF tran0	20.044278 -11.593454 -3.107592
USER    NEWDPF axisangle0	0.193073 -0.953361 -0.232005 147.569218
USER    NEWDPF quaternion0	0.185392 -0.915435 -0.222775 0.279249
USER    NEWDPF dihe0	-9.41 179.83 180.00 129.37 89.86 138.87 -73.72 
USER  
USER                              x       y       z    vdW   Elec        q     RMS 
ATOM      1  C   UNL     1      21.270 -10.991  -4.456 -0.52 -0.00    +0.000    19.042
ATOM      2  C   UNL     1      22.029 -10.373  -5.635 -0.40 -0.00    +0.000    19.042
ATOM      3  C   UNL     1      19.851 -11.334  -4.861 -0.50 -0.00    +0.000    19.042
ATOM      4  C   UNL     1      18.936 -10.433  -5.272 -0.33 -0.00    +0.000    19.042
ATOM      5  C   UNL     1      19.253  -8.955  -5.352 -0.19 -0.00    +0.000    19.042
ATOM      6  C   UNL     1      17.569 -10.925  -5.588 -0.32 -0.00    +0.000    19.042
ATOM      7  C   UNL     1      17.280 -11.624  -6.696 -0.36 -0.00    +0.000    19.042
ATOM      8  C   UNL     1      15.924 -12.115  -7.016 -0.31 -0.00    +0.000    19.042
ATOM      9  N   UNL     1      15.690 -13.157  -7.973 -0.45 +0.00    +0.000    19.042
ATOM     10  O   UNL     1      14.944 -11.612  -6.404 -0.30 -0.00    +0.000    19.042
ATOM     11  H   UNL     1      16.453 -13.628  -8.380 -0.05 +0.00    +0.000    19.042
ATOM     12  O   UNL     1      14.425 -13.495  -8.315 -0.43 +0.00    +0.000    19.042
ATOM     13  H   UNL     1      13.799 -13.049  -7.723 -0.01 -0.00    +0.000    19.042
ATOM     14  C   UNL     1      21.271 -10.025  -3.290 -0.52 -0.00    +0.000    19.042
ATOM     15  O   UNL     1      21.767  -8.876  -3.455 -0.46 -0.00    +0.000    19.042
ATOM     16  C   UNL     1      19.638 -11.091   0.570 -0.56 -0.00    +0.000    19.042
ATOM     17  C   UNL     1      18.810 -10.958  -0.564 -0.42 -0.00    +0.000    19.042
ATOM     18  C   UNL     1      19.347 -10.610  -1.806 -0.39 -0.00    +0.000    19.042
ATOM     19  C   UNL     1      20.726 -10.391  -1.957 -0.50 -0.00    +0.000    19.042
ATOM     20  C   UNL     1      21.555 -10.513  -0.829 -0.58 -0.00    +0.000    19.042
ATOM     21  C   UNL     1      21.019 -10.859   0.415 -0.61 -0.00    +0.000    19.042
ATOM     22  C   UNL     1      17.654 -11.253   2.141 -0.49 +0.00    +0.000    19.042
ATOM     23  N   UNL     1      19.081 -11.452   1.861 -0.55 -0.00    +0.000    19.042
ATOM     24  C   UNL     1      19.936 -12.020   2.910 -0.76 -0.00    +0.000    19.042
TER
ENDMDL


AVSFLD: # AVS field file
AVSFLD: #
AVSFLD: # Created by AutoDock
AVSFLD: #
AVSFLD: ndim=2           # number of dimensions in the field
AVSFLD: nspace=1         # number of physical coordinates
AVSFLD: veclen=7         # vector size
AVSFLD: dim1=24          # atoms
AVSFLD: dim2=20          # conformations
AVSFLD: data=Real       # data type (byte,integer,Real,double)
AVSFLD: field=uniform    # field coordinate layout
AVSFLD: label= x y z vdW Elec q RMS
AVSFLD: variable 1 file = ligand_dock.biased.dlg.pdb filetype = ascii offset = 5 stride = 12
AVSFLD: variable 2 file = ligand_dock.biased.dlg.pdb filetype = ascii offset = 6 stride = 12
AVSFLD: variable 3 file = ligand_dock.biased.dlg.pdb filetype = ascii offset = 7 stride = 12
AVSFLD: variable 4 file = ligand_dock.biased.dlg.pdb filetype = ascii offset = 8 stride = 12
AVSFLD: variable 5 file = ligand_dock.biased.dlg.pdb filetype = ascii offset = 9 stride = 12
AVSFLD: variable 6 file = ligand_dock.biased.dlg.pdb filetype = ascii offset = 10 stride = 12
AVSFLD: variable 7 file = ligand_dock.biased.dlg.pdb filetype = ascii offset = 11 stride = 12
AVSFLD: # end of file

>>> Closing the docking parameter file (DPF)...
This docking finished at:			5:42 49" p.m., 11/03/2024


________________________________________________________________________________

autodock4: Successful Completion on "ThinkStation-P620"

Real= 11m 33.77s,  CPU= 11m 33.53s,  System= 0.17s
________________________________________________________________________________

