          AutoDock 4.2 Release 4.2.6   
         (C) 1989-2012 The Scripps Research Institute
        AutoDock comes with ABSOLUTELY NO WARRANTY.
        AutoDock is free software, and you are welcome
        to redistribute it under certain conditions;
        for details type 'autodock4 -C'

                     main.cc  $Revision: 1.213 $

                   Compiled on Feb 20 2022 at 09:48:33


This file was created at:			5:31 15" p.m., 11/03/2024
                   on host:		"ThinkStation-P620"
Current Working Directory = "/home/antonio/Documenti/buccheri/IDROSSAMICO HDAC/HDAC 4/P/Ligand_2"

      ________________________________________________________________

                   SETTING UP DEFAULT PARAMETER LIBRARY
      ________________________________________________________________


Random number generator was seeded with values 26989, 1730651475.
Docking parameter file (DPF) used for this docking:		ligand_dock.biased.dpf
DPF> autodock_parameter_version 4.2       # used by autodock to validate parameter set

	Autodock parameter version 4.2.
DPF> outlev 1                             # diagnostic output level

Output Level = 1  ADT-COMPATIBLE OUTPUT DURING DOCKING.
DPF> intelec                              # calculate internal electrostatics

Electrostatic energies will be calculated for all non-bonds between moving atoms.
DPF> seed pid time                        # seeds for random generator

Random number generator was seeded with values 26989, 1730651475.
DPF> ligand_types A C OA HD N             # atoms types in ligand

DPF> fld receptor.maps.fld                # grid_data_file

Opening Grid Map Dimensions file:		receptor.maps.fld
Grid Point Spacing =				0.375 Angstroms

Even Number of User-specified Grid Points =	70 x-points
						70 y-points
						70 z-points

Coordinates of Central Grid Point of Maps =	(19.141, -8.645, -3.505)
Macromolecule file used to create Grid Maps =	receptor.pdbqt
Grid Parameter file used to create Grid Maps =	receptor.gpf
Minimum coordinates in grid = (6.016, -21.770, -16.630)
Maximum coordinates in grid = (32.266, 4.480, 9.620)

DPF> map receptor.A.map                   # atom-specific affinity map

DPF> map receptor.C.map                   # atom-specific affinity map

DPF> map receptor.OA.biased.map

DPF> map receptor.HD.map                  # atom-specific affinity map

DPF> map receptor.N.map                   # atom-specific affinity map

DPF> elecmap receptor.e.map               # electrostatics map

DPF> desolvmap receptor.d.map             # desolvation map

DPF> move ligand.pdbqt                    # small molecule

1,4-interactions will be _ignored_ in the non-bonded internal energy calculation.

Ligand PDBQT file = "ligand.pdbqt"

INPUT LIGAND PDBQT FILE:
________________________

INPUT-LIGAND-PDBQT: REMARK  Name = 
INPUT-LIGAND-PDBQT: REMARK  9 active torsions:
INPUT-LIGAND-PDBQT: REMARK  status: ('A' for Active; 'I' for Inactive)
INPUT-LIGAND-PDBQT: REMARK    1  A    between atoms: C_2  and  C_3
INPUT-LIGAND-PDBQT: REMARK    2  A    between atoms: C_4  and  C_5
INPUT-LIGAND-PDBQT: REMARK    3  A    between atoms: C_8  and  C_9
INPUT-LIGAND-PDBQT: REMARK    4  A    between atoms: C_9  and  N_10
INPUT-LIGAND-PDBQT: REMARK    5  A    between atoms: N_10  and  C_11
INPUT-LIGAND-PDBQT: REMARK    6  A    between atoms: C_11  and  C_12
INPUT-LIGAND-PDBQT: REMARK    7  A    between atoms: C_12  and  C_13
INPUT-LIGAND-PDBQT: REMARK    8  A    between atoms: C_14  and  C_22
INPUT-LIGAND-PDBQT: REMARK    9  A    between atoms: N_25  and  O_26
INPUT-LIGAND-PDBQT: REMARK                            x       y       z     vdW  Elec       q    Type
INPUT-LIGAND-PDBQT: REMARK                         _______ _______ _______ _____ _____    ______ ____
INPUT-LIGAND-PDBQT: ROOT
INPUT-LIGAND-PDBQT: ATOM      1  N   UNL     1      -0.292   0.652  -0.301  0.00  0.00    +0.000 N 
INPUT-LIGAND-PDBQT: ATOM      2  H   UNL     1      -0.219   0.438  -1.296  0.00  0.00    +0.000 HD
INPUT-LIGAND-PDBQT: ATOM      3  H   UNL     1       0.243   1.486  -0.061  0.00  0.00    +0.000 HD
INPUT-LIGAND-PDBQT: ENDROOT
INPUT-LIGAND-PDBQT: BRANCH   1   4
INPUT-LIGAND-PDBQT: ATOM      4  C   UNL     1       0.259  -0.473   0.466  0.00  0.00    +0.000 C 
INPUT-LIGAND-PDBQT: BRANCH   4   8
INPUT-LIGAND-PDBQT: ATOM      5  C   UNL     1       4.535  -0.581  -0.179  0.00  0.00    +0.000 A 
INPUT-LIGAND-PDBQT: ATOM      6  C   UNL     1       3.976   0.286   0.781  0.00  0.00    +0.000 A 
INPUT-LIGAND-PDBQT: ATOM      7  C   UNL     1       2.594   0.314   0.991  0.00  0.00    +0.000 A 
INPUT-LIGAND-PDBQT: ATOM      8  C   UNL     1       1.747  -0.535   0.264  0.00  0.00    +0.000 A 
INPUT-LIGAND-PDBQT: ATOM      9  C   UNL     1       2.299  -1.402  -0.691  0.00  0.00    +0.000 A 
INPUT-LIGAND-PDBQT: ATOM     10  C   UNL     1       3.681  -1.432  -0.900  0.00  0.00    +0.000 A 
INPUT-LIGAND-PDBQT: BRANCH   5  12
INPUT-LIGAND-PDBQT: ATOM     11  C   UNL     1       6.856   0.326  -0.139  0.00  0.00    +0.000 C 
INPUT-LIGAND-PDBQT: ATOM     12  C   UNL     1       5.995  -0.660  -0.433  0.00  0.00    +0.000 C 
INPUT-LIGAND-PDBQT: BRANCH  11  14
INPUT-LIGAND-PDBQT: ATOM     13  O   UNL     1       9.067   1.067   0.181  0.00  0.00    +0.000 OA
INPUT-LIGAND-PDBQT: ATOM     14  C   UNL     1       8.309   0.244  -0.396  0.00  0.00    +0.000 C 
INPUT-LIGAND-PDBQT: ATOM     15  N   UNL     1       8.877  -0.719  -1.295  0.00  0.00    +0.000 N 
INPUT-LIGAND-PDBQT: ATOM     16  H   UNL     1       8.288  -1.303  -1.825  0.00  0.00    +0.000 HD
INPUT-LIGAND-PDBQT: BRANCH  15  17
INPUT-LIGAND-PDBQT: ATOM     17  O   UNL     1      10.222  -0.825  -1.417  0.00  0.00    +0.000 OA
INPUT-LIGAND-PDBQT: ATOM     18  H   UNL     1      10.652  -0.183  -0.831  0.00  0.00    +0.000 HD
INPUT-LIGAND-PDBQT: ENDBRANCH  15  17
INPUT-LIGAND-PDBQT: ENDBRANCH  11  14
INPUT-LIGAND-PDBQT: ENDBRANCH   5  12
INPUT-LIGAND-PDBQT: ENDBRANCH   4   8
INPUT-LIGAND-PDBQT: ENDBRANCH   1   4
INPUT-LIGAND-PDBQT: BRANCH   1  19
INPUT-LIGAND-PDBQT: ATOM     19  C   UNL     1      -1.703   0.910   0.026  0.00  0.00    +0.000 C 
INPUT-LIGAND-PDBQT: BRANCH  19  20
INPUT-LIGAND-PDBQT: ATOM     20  C   UNL     1      -2.653  -0.103  -0.635  0.00  0.00    +0.000 C 
INPUT-LIGAND-PDBQT: BRANCH  20  21
INPUT-LIGAND-PDBQT: ATOM     21  C   UNL     1      -4.082   0.259  -0.349  0.00  0.00    +0.000 A 
INPUT-LIGAND-PDBQT: ATOM     22  C   UNL     1      -4.928   1.059  -1.120  0.00  0.00    +0.000 A 
INPUT-LIGAND-PDBQT: ATOM     23  N   UNL     1      -6.125   1.217  -0.509  0.00  0.00    +0.000 N 
INPUT-LIGAND-PDBQT: ATOM     24  C   UNL     1      -6.037   0.544   0.651  0.00  0.00    +0.000 A 
INPUT-LIGAND-PDBQT: ATOM     25  C   UNL     1      -4.806  -0.047   0.788  0.00  0.00    +0.000 A 
INPUT-LIGAND-PDBQT: ATOM     26  C   UNL     1      -4.466  -0.781   1.925  0.00  0.00    +0.000 A 
INPUT-LIGAND-PDBQT: ATOM     27  C   UNL     1      -5.434  -0.909   2.938  0.00  0.00    +0.000 A 
INPUT-LIGAND-PDBQT: ATOM     28  C   UNL     1      -6.703  -0.305   2.795  0.00  0.00    +0.000 A 
INPUT-LIGAND-PDBQT: ATOM     29  C   UNL     1      -7.015   0.434   1.639  0.00  0.00    +0.000 A 
INPUT-LIGAND-PDBQT: ATOM     30  C   UNL     1      -4.596   1.648  -2.454  0.00  0.00    +0.000 C 
INPUT-LIGAND-PDBQT: ATOM     31  H   UNL     1      -6.901   1.721  -0.846  0.00  0.00    +0.000 HD
INPUT-LIGAND-PDBQT: ENDBRANCH  20  21
INPUT-LIGAND-PDBQT: ENDBRANCH  19  20
INPUT-LIGAND-PDBQT: ENDBRANCH   1  19
INPUT-LIGAND-PDBQT: TORSDOF 8
________________________________________________________________________________

Total charge on ligand                               =	+0.000 e
REMARK  Name = 
REMARK  9 active torsions:
REMARK  status: ('A' for Active; 'I' for Inactive)
REMARK    1  A    between atoms: C_2  and  C_3
REMARK    2  A    between atoms: C_4  and  C_5
REMARK    3  A    between atoms: C_8  and  C_9
REMARK    4  A    between atoms: C_9  and  N_10
REMARK    5  A    between atoms: N_10  and  C_11
REMARK    6  A    between atoms: C_11  and  C_12
REMARK    7  A    between atoms: C_12  and  C_13
REMARK    8  A    between atoms: C_14  and  C_22
REMARK    9  A    between atoms: N_25  and  O_26
REMARK                            x       y       z     vdW  Elec       q    Type
REMARK                         _______ _______ _______ _____ _____    ______ ____


Number of Rotatable Bonds in Small Molecule =	8 torsions
Number of atoms in ligand:  31

Number of non-hydrogen atoms in ligand:  26

Number of vibrational degrees of freedom of ligand:  87


Number of torsional degrees of freedom = 8
Estimated loss of torsional free energy upon binding = +2.3864 kcal/mol


DPF> about 0.698 0.076 -0.072            # small molecule center

Small molecule center of rotation =	(+0.698, +0.076, -0.072)

DPF> tran0 random                         # initial coordinates/A or random

Initial translation =			(30.227, -1.033, -0.981) Angstroms
DPF> quaternion0 random                   # initial orientation

Each run will begin with a new, random initial orientation.
Initial quaternion,  (x,y,z,w) =	( 0.448, -0.400, 0.793, 0.101 ),
DPF> dihe0 random                         # initial dihedrals (relative) or random

DPF> torsdof 8                            # torsional degrees of freedom

Number of torsional degrees of freedom = 8
Free energy coefficient for torsional degrees of freedom = 0.2983, the factory default value.

Estimated loss of torsional free energy upon binding = +2.3864 kcal/mol

DPF> rmstol 2.0                           # cluster_tolerance/A

Maximum RMS tolerance for conformational cluster analysis = 2.00 Angstroms
DPF> extnrg 1000.0                        # external grid energy

External grid energy (beyond grid map walls) = 1000.00

DPF> e0max 0.0 10000                      # max initial energy; max number of retries

Using user-specified maximum number of retries for simanneal initialization, 10000 retries.
If the simanneal initial energy is greater than e0max, 0.000,
then a new, random initial state will be created.

DPF> ga_pop_size 150                      # number of individuals in population

A population of 150 individuals will be used
DPF> ga_num_evals 2500000                 # maximum number of energy evaluations

There will be at most 2500000 function evaluations used.
DPF> ga_num_generations 27000             # maximum number of generations

The GA will run for at most 27000 generations.
DPF> ga_elitism 1                         # number of top individuals to survive to next generation

The 1 best will be preserved each GA generation.
DPF> ga_mutation_rate 0.02                # rate of gene mutation

The mutation rate is 0.020000.
DPF> ga_crossover_rate 0.8                # rate of crossover

The crossover rate is 0.800000.
DPF> ga_window_size 10                    # 

The GA's selection window is 10 generations.
DPF> ga_cauchy_alpha 0.0                  # Alpha parameter of Cauchy distribution

The alpha parameter (for the Cauchy distribution) is being set to 0.000000.
DPF> ga_cauchy_beta 1.0                   # Beta parameter Cauchy distribution

The beta parameter (for the Cauchy distribution) is being set to 1.000000.
DPF> set_ga                               # set the above parameters for GA or LGA

DPF> sw_max_its 300                       # iterations of Solis & Wets local search

Solis & Wets algorithms will perform at most 300 iterations.
DPF> sw_max_succ 4                        # consecutive successes before changing rho

Solis & Wets algorithms expand rho every 4 in a row successes.
DPF> sw_max_fail 4                        # consecutive failures before changing rho

Solis & Wets algorithms contract rho every 4 in a row failures.
DPF> sw_rho 1.0                           # size of local search space to sample

rho is set to 1.000000.
DPF> sw_lb_rho 0.01                       # lower bound on rho

rho will never get smaller than 0.010000.
DPF> ls_search_freq 0.06                  # probability of performing local search on individual

Local search will be performed with frequency 0.060000.
DPF> set_psw1                             # set the above pseudo-Solis & Wets parameters

Creating a new Local Search object using the pseudo-Solis-Wets algorithm (pSW1) with the current settings.

DPF> unbound_model bound                  # state of unbound ligand

DPF> ga_run 100

centering ligand on specified point: 0.698 0.076 -0.072
Furthest true ligand atom from "about" center is 9.986 Angstroms (maxrad).
Number of requested GA dockings = 100 runs
Unbound model to be used is 'same as bound' [AutoDock 4.2 default].

	BEGINNING GENETIC ALGORITHM DOCKING 1 of 100
Run: 1 Seed: 681193362 1854069190 [ Run 1 of 100 GA/GALS ]
Beginning LAMARCKIAN GENETIC ALGORITHM (LGA), with a maximum of 2500000 energy evaluations.

Final-Value: -14.853


	FINAL GENETIC ALGORITHM DOCKED STATE
	_______________________________________________


Detailed state:  trans 20.111 -10.624 -6.142 quatxyzw 0.396270 0.255966 0.840772 0.265621 center 0.698 0.076 -0.072 ntor 8 29.0919 -95.8587 154.7984 -120.2085 -43.2724 150.2835 179.5704 36.7528
State:	 20.111 -10.624  -6.142   0.411  0.266  0.872 149.192     29.09  -95.86  154.80 -120.21  -43.27  150.28  179.57   36.75

DOCKED: MODEL        1
DOCKED: USER    Run = 1
DOCKED: USER    DPF = ligand_dock.biased.dpf
DOCKED: USER  
DOCKED: USER    Estimated Free Energy of Binding    =  -11.39 kcal/mol  [=(1)+(2)+(3)-(4)]
DOCKED: USER    Estimated Inhibition Constant, Ki   =    4.47 nM (nanomolar)  [Temperature = 298.15 K]
DOCKED: USER    
DOCKED: USER    (1) Final Intermolecular Energy     =  -13.78 kcal/mol
DOCKED: USER        vdW + Hbond + desolv Energy     =  -13.78 kcal/mol
DOCKED: USER        Electrostatic Energy            =   +0.00 kcal/mol
DOCKED: USER    (2) Final Total Internal Energy     =   -1.08 kcal/mol
DOCKED: USER    (3) Torsional Free Energy           =   +2.39 kcal/mol
DOCKED: USER    (4) Unbound System's Energy  [=(2)] =   -1.08 kcal/mol
DOCKED: USER    
DOCKED: USER    
DOCKED: USER    NEWDPF move ligand.pdbqt
DOCKED: USER    NEWDPF about 0.698000 0.076000 -0.072000
DOCKED: USER    NEWDPF tran0 20.111436 -10.624353 -6.141509
DOCKED: USER    NEWDPF quaternion0 0.396270 0.255966 0.840772 0.265621
DOCKED: USER    NEWDPF axisangle0 0.411036 0.265504 0.872099 149.192303
DOCKED: USER    NEWDPF quat0 0.411036 0.265504 0.872099 149.192303
DOCKED: USER    NEWDPF dihe0 29.09 -95.86 154.80 -120.21 -43.27 150.28 179.57 36.75 
DOCKED: USER  keepresnum = 1 
DOCKED: USER  
DOCKED: REMARK  Name = 
DOCKED: REMARK  9 active torsions:
DOCKED: REMARK  status: ('A' for Active; 'I' for Inactive)
DOCKED: REMARK    1  A    between atoms: C_2  and  C_3
DOCKED: REMARK    2  A    between atoms: C_4  and  C_5
DOCKED: REMARK    3  A    between atoms: C_8  and  C_9
DOCKED: REMARK    4  A    between atoms: C_9  and  N_10
DOCKED: REMARK    5  A    between atoms: N_10  and  C_11
DOCKED: REMARK    6  A    between atoms: C_11  and  C_12
DOCKED: REMARK    7  A    between atoms: C_12  and  C_13
DOCKED: REMARK    8  A    between atoms: C_14  and  C_22
DOCKED: REMARK    9  A    between atoms: N_25  and  O_26
DOCKED: REMARK                            x       y       z     vdW  Elec       q    Type
DOCKED: REMARK                         _______ _______ _______ _____ _____    ______ ____
DOCKED: USER                              x       y       z     vdW  Elec       q    Type
DOCKED: USER                           _______ _______ _______ _____ _____    ______ ____
DOCKED: ROOT
DOCKED: ATOM      1  N   UNL     1      20.903 -10.949  -6.936 -0.28 -0.00    +0.000 N 
DOCKED: ATOM      2  H   UNL     1      20.197 -11.449  -7.477 -0.18 -0.00    +0.000 HD
DOCKED: ATOM      3  H   UNL     1      21.281 -11.533  -6.190 -0.24 -0.00    +0.000 HD
DOCKED: ENDROOT
DOCKED: BRANCH   1   4
DOCKED: ATOM      4  C   UNL     1      20.279  -9.773  -6.316 -0.25 -0.00    +0.000 C 
DOCKED: BRANCH   4   8
DOCKED: ATOM      5  C   UNL     1      19.716 -10.400  -2.073 -0.41 -0.00    +0.000 A 
DOCKED: ATOM      6  C   UNL     1      18.655 -10.609  -2.976 -0.29 -0.00    +0.000 A 
DOCKED: ATOM      7  C   UNL     1      18.842 -10.411  -4.348 -0.31 -0.00    +0.000 A 
DOCKED: ATOM      8  C   UNL     1      20.094 -10.022  -4.845 -0.30 -0.00    +0.000 A 
DOCKED: ATOM      9  C   UNL     1      21.155  -9.816  -3.951 -0.41 -0.00    +0.000 A 
DOCKED: ATOM     10  C   UNL     1      20.969 -10.016  -2.579 -0.50 -0.00    +0.000 A 
DOCKED: BRANCH   5  12
DOCKED: ATOM     11  C   UNL     1      20.452 -11.304   0.130 -0.54 -0.00    +0.000 C 
DOCKED: ATOM     12  C   UNL     1      19.576 -10.608  -0.610 -0.52 -0.00    +0.000 C 
DOCKED: BRANCH  11  14
DOCKED: ATOM     13  O   UNL     1      19.848 -12.610   1.993 -1.60 -0.00    +0.000 OA
DOCKED: ATOM     14  C   UNL     1      20.307 -11.510   1.586 -0.77 -0.00    +0.000 C 
DOCKED: ATOM     15  N   UNL     1      20.645 -10.496   2.543 -0.57 -0.00    +0.000 N 
DOCKED: ATOM     16  H   UNL     1      20.912  -9.600   2.236 -0.55 -0.00    +0.000 HD
DOCKED: BRANCH  15  17
DOCKED: ATOM     17  O   UNL     1      20.595 -10.769   3.869 -0.81 -0.00    +0.000 OA
DOCKED: ATOM     18  H   UNL     1      20.774 -11.711   4.013 -0.49 -0.00    +0.000 HD
DOCKED: ENDBRANCH  15  17
DOCKED: ENDBRANCH  11  14
DOCKED: ENDBRANCH   5  12
DOCKED: ENDBRANCH   4   8
DOCKED: ENDBRANCH   1   4
DOCKED: BRANCH   1  19
DOCKED: ATOM     19  C   UNL     1      22.013 -10.583  -7.830 -0.30 -0.00    +0.000 C 
DOCKED: BRANCH  19  20
DOCKED: ATOM     20  C   UNL     1      23.264 -10.131  -7.058 -0.31 -0.00    +0.000 C 
DOCKED: BRANCH  20  21
DOCKED: ATOM     21  C   UNL     1      24.504 -10.660  -7.718 -0.33 -0.00    +0.000 A 
DOCKED: ATOM     22  C   UNL     1      24.634 -11.827  -8.474 -0.41 -0.00    +0.000 A 
DOCKED: ATOM     23  N   UNL     1      25.921 -12.013  -8.850 -0.40 -0.00    +0.000 N 
DOCKED: ATOM     24  C   UNL     1      26.610 -10.987  -8.321 -0.31 -0.00    +0.000 A 
DOCKED: ATOM     25  C   UNL     1      25.784 -10.146  -7.619 -0.33 -0.00    +0.000 A 
DOCKED: ATOM     26  C   UNL     1      26.274  -9.021  -6.955 -0.30 -0.00    +0.000 A 
DOCKED: ATOM     27  C   UNL     1      27.654  -8.762  -7.032 -0.38 -0.00    +0.000 A 
DOCKED: ATOM     28  C   UNL     1      28.504  -9.625  -7.760 -0.41 -0.00    +0.000 A 
DOCKED: ATOM     29  C   UNL     1      27.982 -10.755  -8.414 -0.36 -0.00    +0.000 A 
DOCKED: ATOM     30  C   UNL     1      23.519 -12.748  -8.857 -0.42 -0.00    +0.000 C 
DOCKED: ATOM     31  H   UNL     1      26.278 -12.748  -9.400 -0.52 -0.00    +0.000 HD
DOCKED: ENDBRANCH  20  21
DOCKED: ENDBRANCH  19  20
DOCKED: ENDBRANCH   1  19
DOCKED: TORSDOF 8
DOCKED: TER
DOCKED: ENDMDL
________________________________________________________________________________


	BEGINNING GENETIC ALGORITHM DOCKING 2 of 100
Run: 2 Seed: 1980704115 1696446541 [ Run 2 of 100 GA/GALS ]
Beginning LAMARCKIAN GENETIC ALGORITHM (LGA), with a maximum of 2500000 energy evaluations.

Final-Value: -13.193


	FINAL GENETIC ALGORITHM DOCKED STATE
	_______________________________________________


Detailed state:  trans 22.216 -8.483 -7.597 quatxyzw -0.695256 -0.482443 0.432733 -0.310822 center 0.698 0.076 -0.072 ntor 8 115.0326 175.5829 -162.3596 176.4309 114.6616 -66.3782 133.7338 -137.5313
State:	 22.216  -8.483  -7.597  -0.731 -0.508  0.455 -143.782    115.03  175.58 -162.36  176.43  114.66  -66.38  133.73 -137.53

DOCKED: MODEL        2
DOCKED: USER    Run = 2
DOCKED: USER    DPF = ligand_dock.biased.dpf
DOCKED: USER  
DOCKED: USER    Estimated Free Energy of Binding    =   -9.51 kcal/mol  [=(1)+(2)+(3)-(4)]
DOCKED: USER    Estimated Inhibition Constant, Ki   =  106.23 nM (nanomolar)  [Temperature = 298.15 K]
DOCKED: USER    
DOCKED: USER    (1) Final Intermolecular Energy     =  -11.90 kcal/mol
DOCKED: USER        vdW + Hbond + desolv Energy     =  -11.90 kcal/mol
DOCKED: USER        Electrostatic Energy            =   +0.00 kcal/mol
DOCKED: USER    (2) Final Total Internal Energy     =   -1.29 kcal/mol
DOCKED: USER    (3) Torsional Free Energy           =   +2.39 kcal/mol
DOCKED: USER    (4) Unbound System's Energy  [=(2)] =   -1.29 kcal/mol
DOCKED: USER    
DOCKED: USER    
DOCKED: USER    NEWDPF move ligand.pdbqt
DOCKED: USER    NEWDPF about 0.698000 0.076000 -0.072000
DOCKED: USER    NEWDPF tran0 22.215863 -8.483242 -7.596748
DOCKED: USER    NEWDPF quaternion0 -0.695256 -0.482443 0.432733 -0.310822
DOCKED: USER    NEWDPF axisangle0 -0.731488 -0.507584 0.455284 -143.782413
DOCKED: USER    NEWDPF quat0 -0.731488 -0.507584 0.455284 -143.782413
DOCKED: USER    NEWDPF dihe0 115.03 175.58 -162.36 176.43 114.66 -66.38 133.73 -137.53 
DOCKED: USER  keepresnum = 1 
DOCKED: USER  
DOCKED: REMARK  Name = 
DOCKED: REMARK  9 active torsions:
DOCKED: REMARK  status: ('A' for Active; 'I' for Inactive)
DOCKED: REMARK    1  A    between atoms: C_2  and  C_3
DOCKED: REMARK    2  A    between atoms: C_4  and  C_5
DOCKED: REMARK    3  A    between atoms: C_8  and  C_9
DOCKED: REMARK    4  A    between atoms: C_9  and  N_10
DOCKED: REMARK    5  A    between atoms: N_10  and  C_11
DOCKED: REMARK    6  A    between atoms: C_11  and  C_12
DOCKED: REMARK    7  A    between atoms: C_12  and  C_13
DOCKED: REMARK    8  A    between atoms: C_14  and  C_22
DOCKED: REMARK    9  A    between atoms: N_25  and  O_26
DOCKED: REMARK                            x       y       z     vdW  Elec       q    Type
DOCKED: REMARK                         _______ _______ _______ _____ _____    ______ ____
DOCKED: USER                              x       y       z     vdW  Elec       q    Type
DOCKED: USER                           _______ _______ _______ _____ _____    ______ ____
DOCKED: ROOT
DOCKED: ATOM      1  N   UNL     1      22.495  -9.614  -7.688 -0.19 -0.00    +0.000 N 
DOCKED: ATOM      2  H   UNL     1      23.318  -9.487  -7.099 -0.01 -0.00    +0.000 HD
DOCKED: ATOM      3  H   UNL     1      22.700  -9.392  -8.662 +0.00 -0.00    +0.000 HD
DOCKED: ENDROOT
DOCKED: BRANCH   1   4
DOCKED: ATOM      4  C   UNL     1      21.440  -8.701  -7.230 -0.15 -0.00    +0.000 C 
DOCKED: BRANCH   4   8
DOCKED: ATOM      5  C   UNL     1      20.048  -9.873  -3.306 -0.38 -0.00    +0.000 A 
DOCKED: ATOM      6  C   UNL     1      19.152  -9.348  -4.258 -0.24 -0.00    +0.000 A 
DOCKED: ATOM      7  C   UNL     1      19.604  -8.976  -5.527 -0.16 -0.00    +0.000 A 
DOCKED: ATOM      8  C   UNL     1      20.952  -9.139  -5.878 -0.21 -0.00    +0.000 A 
DOCKED: ATOM      9  C   UNL     1      21.848  -9.663  -4.935 -0.30 -0.00    +0.000 A 
DOCKED: ATOM     10  C   UNL     1      21.396 -10.038  -3.666 -0.44 -0.00    +0.000 A 
DOCKED: BRANCH   5  12
DOCKED: ATOM     11  C   UNL     1      20.434 -10.887  -1.062 -0.51 -0.00    +0.000 C 
DOCKED: ATOM     12  C   UNL     1      19.620 -10.295  -1.949 -0.44 -0.00    +0.000 C 
DOCKED: BRANCH  11  14
DOCKED: ATOM     13  O   UNL     1      18.770 -11.311   0.548 -0.61 -0.00    +0.000 OA
DOCKED: ATOM     14  C   UNL     1      20.002 -11.308   0.287 -0.63 -0.00    +0.000 C 
DOCKED: ATOM     15  N   UNL     1      20.935 -11.686   1.309 -0.70 -0.00    +0.000 N 
DOCKED: ATOM     16  H   UNL     1      21.902 -11.595   1.149 -0.54 -0.00    +0.000 HD
DOCKED: BRANCH  15  17
DOCKED: ATOM     17  O   UNL     1      20.488 -12.166   2.495 -1.36 -0.00    +0.000 OA
DOCKED: ATOM     18  H   UNL     1      20.767 -13.089   2.597 -0.59 -0.00    +0.000 HD
DOCKED: ENDBRANCH  15  17
DOCKED: ENDBRANCH  11  14
DOCKED: ENDBRANCH   5  12
DOCKED: ENDBRANCH   4   8
DOCKED: ENDBRANCH   1   4
DOCKED: BRANCH   1  19
DOCKED: ATOM     19  C   UNL     1      22.079 -11.023  -7.623 -0.33 -0.00    +0.000 C 
DOCKED: BRANCH  19  20
DOCKED: ATOM     20  C   UNL     1      23.229 -11.956  -7.210 -0.54 -0.00    +0.000 C 
DOCKED: BRANCH  20  21
DOCKED: ATOM     21  C   UNL     1      24.341 -11.890  -8.217 -0.43 -0.00    +0.000 A 
DOCKED: ATOM     22  C   UNL     1      24.524 -12.702  -9.338 -0.36 -0.00    +0.000 A 
DOCKED: ATOM     23  N   UNL     1      25.678 -12.389  -9.972 -0.24 -0.00    +0.000 N 
DOCKED: ATOM     24  C   UNL     1      26.238 -11.402  -9.251 -0.30 -0.00    +0.000 A 
DOCKED: ATOM     25  C   UNL     1      25.457 -11.076  -8.170 -0.36 -0.00    +0.000 A 
DOCKED: ATOM     26  C   UNL     1      25.843 -10.095  -7.256 -0.15 -0.00    +0.000 A 
DOCKED: ATOM     27  C   UNL     1      27.065  -9.434  -7.478 -0.37 -0.00    +0.000 A 
DOCKED: ATOM     28  C   UNL     1      27.866  -9.766  -8.593 -0.32 -0.00    +0.000 A 
DOCKED: ATOM     29  C   UNL     1      27.453 -10.764  -9.495 -0.28 -0.00    +0.000 A 
DOCKED: ATOM     30  C   UNL     1      23.579 -13.758  -9.814 -0.39 -0.00    +0.000 C 
DOCKED: ATOM     31  H   UNL     1      26.033 -12.799 -10.794 -0.38 -0.00    +0.000 HD
DOCKED: ENDBRANCH  20  21
DOCKED: ENDBRANCH  19  20
DOCKED: ENDBRANCH   1  19
DOCKED: TORSDOF 8
DOCKED: TER
DOCKED: ENDMDL
________________________________________________________________________________


	BEGINNING GENETIC ALGORITHM DOCKING 3 of 100
Run: 3 Seed: 1280235654 785965101 [ Run 3 of 100 GA/GALS ]
Beginning LAMARCKIAN GENETIC ALGORITHM (LGA), with a maximum of 2500000 energy evaluations.

Final-Value: -13.767


	FINAL GENETIC ALGORITHM DOCKED STATE
	_______________________________________________


Detailed state:  trans 21.794 -9.749 -6.073 quatxyzw 0.692766 0.504653 0.238623 0.456574 center 0.698 0.076 -0.072 ntor 8 25.6309 -51.7215 -23.3613 160.6826 -87.4151 -162.9707 -71.6418 -40.4165
State:	 21.794  -9.749  -6.073   0.779  0.567  0.268 125.668     25.63  -51.72  -23.36  160.68  -87.42 -162.97  -71.64  -40.42

DOCKED: MODEL        3
DOCKED: USER    Run = 3
DOCKED: USER    DPF = ligand_dock.biased.dpf
DOCKED: USER  
DOCKED: USER    Estimated Free Energy of Binding    =   -9.99 kcal/mol  [=(1)+(2)+(3)-(4)]
DOCKED: USER    Estimated Inhibition Constant, Ki   =   47.78 nM (nanomolar)  [Temperature = 298.15 K]
DOCKED: USER    
DOCKED: USER    (1) Final Intermolecular Energy     =  -12.37 kcal/mol
DOCKED: USER        vdW + Hbond + desolv Energy     =  -12.37 kcal/mol
DOCKED: USER        Electrostatic Energy            =   +0.00 kcal/mol
DOCKED: USER    (2) Final Total Internal Energy     =   -1.39 kcal/mol
DOCKED: USER    (3) Torsional Free Energy           =   +2.39 kcal/mol
DOCKED: USER    (4) Unbound System's Energy  [=(2)] =   -1.39 kcal/mol
DOCKED: USER    
DOCKED: USER    
DOCKED: USER    NEWDPF move ligand.pdbqt
DOCKED: USER    NEWDPF about 0.698000 0.076000 -0.072000
DOCKED: USER    NEWDPF tran0 21.794052 -9.749157 -6.072914
DOCKED: USER    NEWDPF quaternion0 0.692766 0.504653 0.238623 0.456574
DOCKED: USER    NEWDPF axisangle0 0.778664 0.567226 0.268210 125.667555
DOCKED: USER    NEWDPF quat0 0.778664 0.567226 0.268210 125.667555
DOCKED: USER    NEWDPF dihe0 25.63 -51.72 -23.36 160.68 -87.42 -162.97 -71.64 -40.42 
DOCKED: USER  keepresnum = 1 
DOCKED: USER  
DOCKED: REMARK  Name = 
DOCKED: REMARK  9 active torsions:
DOCKED: REMARK  status: ('A' for Active; 'I' for Inactive)
DOCKED: REMARK    1  A    between atoms: C_2  and  C_3
DOCKED: REMARK    2  A    between atoms: C_4  and  C_5
DOCKED: REMARK    3  A    between atoms: C_8  and  C_9
DOCKED: REMARK    4  A    between atoms: C_9  and  N_10
DOCKED: REMARK    5  A    between atoms: N_10  and  C_11
DOCKED: REMARK    6  A    between atoms: C_11  and  C_12
DOCKED: REMARK    7  A    between atoms: C_12  and  C_13
DOCKED: REMARK    8  A    between atoms: C_14  and  C_22
DOCKED: REMARK    9  A    between atoms: N_25  and  O_26
DOCKED: REMARK                            x       y       z     vdW  Elec       q    Type
DOCKED: REMARK                         _______ _______ _______ _____ _____    ______ ____
DOCKED: USER                              x       y       z     vdW  Elec       q    Type
DOCKED: USER                           _______ _______ _______ _____ _____    ______ ____
DOCKED: ROOT
DOCKED: ATOM      1  N   UNL     1      21.979 -10.468  -6.975 -0.30 -0.00    +0.000 N 
DOCKED: ATOM      2  H   UNL     1      21.940 -11.286  -6.366 -0.08 -0.00    +0.000 HD
DOCKED: ATOM      3  H   UNL     1      22.914 -10.063  -6.991 -0.01 -0.00    +0.000 HD
DOCKED: ENDROOT
DOCKED: BRANCH   1   4
DOCKED: ATOM      4  C   UNL     1      21.055  -9.450  -6.458 -0.24 -0.00    +0.000 C 
DOCKED: BRANCH   4   8
DOCKED: ATOM      5  C   UNL     1      20.624  -9.964  -2.184 -0.49 -0.00    +0.000 A 
DOCKED: ATOM      6  C   UNL     1      21.629 -10.653  -2.892 -0.34 -0.00    +0.000 A 
DOCKED: ATOM      7  C   UNL     1      21.770 -10.479  -4.272 -0.41 -0.00    +0.000 A 
DOCKED: ATOM      8  C   UNL     1      20.925  -9.603  -4.968 -0.31 -0.00    +0.000 A 
DOCKED: ATOM      9  C   UNL     1      19.924  -8.913  -4.268 -0.25 -0.00    +0.000 A 
DOCKED: ATOM     10  C   UNL     1      19.784  -9.084  -2.887 -0.11 -0.00    +0.000 A 
DOCKED: BRANCH   5  12
DOCKED: ATOM     11  C   UNL     1      20.436 -11.279  -0.076 -0.50 -0.00    +0.000 C 
DOCKED: ATOM     12  C   UNL     1      20.439 -10.102  -0.718 -0.61 -0.00    +0.000 C 
DOCKED: BRANCH  11  14
DOCKED: ATOM     13  O   UNL     1      19.609 -12.404   1.819 -1.64 -0.00    +0.000 OA
DOCKED: ATOM     14  C   UNL     1      20.249 -11.412   1.384 -0.75 -0.00    +0.000 C 
DOCKED: ATOM     15  N   UNL     1      20.748 -10.439   2.314 -0.40 -0.00    +0.000 N 
DOCKED: ATOM     16  H   UNL     1      21.164  -9.611   1.982 -0.56 -0.00    +0.000 HD
DOCKED: BRANCH  15  17
DOCKED: ATOM     17  O   UNL     1      20.644 -10.657   3.647 -0.82 -0.00    +0.000 OA
DOCKED: ATOM     18  H   UNL     1      20.606 -11.611   3.817 -0.36 -0.00    +0.000 HD
DOCKED: ENDBRANCH  15  17
DOCKED: ENDBRANCH  11  14
DOCKED: ENDBRANCH   5  12
DOCKED: ENDBRANCH   4   8
DOCKED: ENDBRANCH   1   4
DOCKED: BRANCH   1  19
DOCKED: ATOM     19  C   UNL     1      21.642 -10.881  -8.346 -0.28 -0.00    +0.000 C 
DOCKED: BRANCH  19  20
DOCKED: ATOM     20  C   UNL     1      22.785 -10.609  -9.338 -0.21 -0.00    +0.000 C 
DOCKED: BRANCH  20  21
DOCKED: ATOM     21  C   UNL     1      23.607 -11.850  -9.539 -0.27 -0.00    +0.000 A 
DOCKED: ATOM     22  C   UNL     1      24.896 -12.102  -9.066 -0.38 -0.00    +0.000 A 
DOCKED: ATOM     23  N   UNL     1      25.340 -13.303  -9.504 -0.27 -0.00    +0.000 N 
DOCKED: ATOM     24  C   UNL     1      24.353 -13.803 -10.267 -0.36 -0.00    +0.000 A 
DOCKED: ATOM     25  C   UNL     1      23.284 -12.945 -10.319 -0.31 -0.00    +0.000 A 
DOCKED: ATOM     26  C   UNL     1      22.146 -13.233 -11.073 -0.10 +0.00    +0.000 A 
DOCKED: ATOM     27  C   UNL     1      22.118 -14.448 -11.782 -0.30 +0.00    +0.000 A 
DOCKED: ATOM     28  C   UNL     1      23.217 -15.334 -11.725 -0.35 +0.00    +0.000 A 
DOCKED: ATOM     29  C   UNL     1      24.353 -15.013 -10.960 -0.35 +0.00    +0.000 A 
DOCKED: ATOM     30  C   UNL     1      25.690 -11.203  -8.173 -0.38 -0.00    +0.000 C 
DOCKED: ATOM     31  H   UNL     1      26.207 -13.724  -9.303 -0.63 -0.00    +0.000 HD
DOCKED: ENDBRANCH  20  21
DOCKED: ENDBRANCH  19  20
DOCKED: ENDBRANCH   1  19
DOCKED: TORSDOF 8
DOCKED: TER
DOCKED: ENDMDL
________________________________________________________________________________


	BEGINNING GENETIC ALGORITHM DOCKING 4 of 100
Run: 4 Seed: 1373068975 493481553 [ Run 4 of 100 GA/GALS ]
Beginning LAMARCKIAN GENETIC ALGORITHM (LGA), with a maximum of 2500000 energy evaluations.

Final-Value: -13.486


	FINAL GENETIC ALGORITHM DOCKED STATE
	_______________________________________________


Detailed state:  trans 11.929 -9.257 3.678 quatxyzw -0.608948 0.632359 0.476864 0.043661 center 0.698 0.076 -0.072 ntor 8 -13.6734 148.9435 95.9425 -74.8400 74.4691 70.0316 -179.3812 -72.4451
State:	 11.929  -9.257   3.678  -0.610  0.633  0.477 174.995    -13.67  148.94   95.94  -74.84   74.47   70.03 -179.38  -72.45

DOCKED: MODEL        4
DOCKED: USER    Run = 4
DOCKED: USER    DPF = ligand_dock.biased.dpf
DOCKED: USER  
DOCKED: USER    Estimated Free Energy of Binding    =   -9.47 kcal/mol  [=(1)+(2)+(3)-(4)]
DOCKED: USER    Estimated Inhibition Constant, Ki   =  114.19 nM (nanomolar)  [Temperature = 298.15 K]
DOCKED: USER    
DOCKED: USER    (1) Final Intermolecular Energy     =  -11.86 kcal/mol
DOCKED: USER        vdW + Hbond + desolv Energy     =  -11.86 kcal/mol
DOCKED: USER        Electrostatic Energy            =   +0.00 kcal/mol
DOCKED: USER    (2) Final Total Internal Energy     =   -1.63 kcal/mol
DOCKED: USER    (3) Torsional Free Energy           =   +2.39 kcal/mol
DOCKED: USER    (4) Unbound System's Energy  [=(2)] =   -1.63 kcal/mol
DOCKED: USER    
DOCKED: USER    
DOCKED: USER    NEWDPF move ligand.pdbqt
DOCKED: USER    NEWDPF about 0.698000 0.076000 -0.072000
DOCKED: USER    NEWDPF tran0 11.929266 -9.256613 3.677963
DOCKED: USER    NEWDPF quaternion0 -0.608948 0.632359 0.476864 0.043661
DOCKED: USER    NEWDPF axisangle0 -0.609529 0.632962 0.477319 174.995254
DOCKED: USER    NEWDPF quat0 -0.609529 0.632962 0.477319 174.995254
DOCKED: USER    NEWDPF dihe0 -13.67 148.94 95.94 -74.84 74.47 70.03 -179.38 -72.45 
DOCKED: USER  keepresnum = 1 
DOCKED: USER  
DOCKED: REMARK  Name = 
DOCKED: REMARK  9 active torsions:
DOCKED: REMARK  status: ('A' for Active; 'I' for Inactive)
DOCKED: REMARK    1  A    between atoms: C_2  and  C_3
DOCKED: REMARK    2  A    between atoms: C_4  and  C_5
DOCKED: REMARK    3  A    between atoms: C_8  and  C_9
DOCKED: REMARK    4  A    between atoms: C_9  and  N_10
DOCKED: REMARK    5  A    between atoms: N_10  and  C_11
DOCKED: REMARK    6  A    between atoms: C_11  and  C_12
DOCKED: REMARK    7  A    between atoms: C_12  and  C_13
DOCKED: REMARK    8  A    between atoms: C_14  and  C_22
DOCKED: REMARK    9  A    between atoms: N_25  and  O_26
DOCKED: REMARK                            x       y       z     vdW  Elec       q    Type
DOCKED: REMARK                         _______ _______ _______ _____ _____    ______ ____
DOCKED: USER                              x       y       z     vdW  Elec       q    Type
DOCKED: USER                           _______ _______ _______ _____ _____    ______ ____
DOCKED: ROOT
DOCKED: ATOM      1  N   UNL     1      11.907  -8.692   4.700 -0.27 +0.00    +0.000 N 
DOCKED: ATOM      2  H   UNL     1      12.677  -9.256   5.060 -0.02 +0.00    +0.000 HD
DOCKED: ATOM      3  H   UNL     1      11.011  -9.158   4.836 -0.01 +0.00    +0.000 HD
DOCKED: ENDROOT
DOCKED: BRANCH   1   4
DOCKED: ATOM      4  C   UNL     1      12.099  -8.497   3.257 -0.17 +0.00    +0.000 C 
DOCKED: BRANCH   4   8
DOCKED: ATOM      5  C   UNL     1      15.815 -10.284   1.952 -0.34 +0.00    +0.000 A 
DOCKED: ATOM      6  C   UNL     1      15.747  -8.908   2.249 -0.28 +0.00    +0.000 A 
DOCKED: ATOM      7  C   UNL     1      14.545  -8.335   2.677 -0.25 +0.00    +0.000 A 
DOCKED: ATOM      8  C   UNL     1      13.397  -9.125   2.835 -0.21 +0.00    +0.000 A 
DOCKED: ATOM      9  C   UNL     1      13.461 -10.496   2.543 -0.29 +0.00    +0.000 A 
DOCKED: ATOM     10  C   UNL     1      14.663 -11.070   2.118 -0.39 +0.00    +0.000 A 
DOCKED: BRANCH   5  12
DOCKED: ATOM     11  C   UNL     1      18.102 -11.204   2.321 -0.52 -0.00    +0.000 C 
DOCKED: ATOM     12  C   UNL     1      17.067 -10.946   1.508 -0.44 +0.00    +0.000 C 
DOCKED: BRANCH  11  14
DOCKED: ATOM     13  O   UNL     1      19.348 -12.450   0.761 -1.03 -0.00    +0.000 OA
DOCKED: ATOM     14  C   UNL     1      19.348 -11.860   1.873 -0.70 -0.00    +0.000 C 
DOCKED: ATOM     15  N   UNL     1      20.541 -11.870   2.671 -0.71 -0.00    +0.000 N 
DOCKED: ATOM     16  H   UNL     1      20.526 -11.497   3.581 -0.23 -0.00    +0.000 HD
DOCKED: BRANCH  15  17
DOCKED: ATOM     17  O   UNL     1      21.687 -12.392   2.173 -0.81 -0.00    +0.000 OA
DOCKED: ATOM     18  H   UNL     1      21.490 -12.902   1.372 -0.55 -0.00    +0.000 HD
DOCKED: ENDBRANCH  15  17
DOCKED: ENDBRANCH  11  14
DOCKED: ENDBRANCH   5  12
DOCKED: ENDBRANCH   4   8
DOCKED: ENDBRANCH   1   4
DOCKED: BRANCH   1  19
DOCKED: ATOM     19  C   UNL     1      11.871  -7.417   5.434 -0.25 +0.00    +0.000 C 
DOCKED: BRANCH  19  20
DOCKED: ATOM     20  C   UNL     1      12.211  -6.215   4.538 -0.21 +0.00    +0.000 C 
DOCKED: BRANCH  20  21
DOCKED: ATOM     21  C   UNL     1      13.628  -5.776   4.771 -0.28 +0.00    +0.000 A 
DOCKED: ATOM     22  C   UNL     1      14.651  -6.496   5.391 -0.41 +0.00    +0.000 A 
DOCKED: ATOM     23  N   UNL     1      15.776  -5.749   5.481 -0.39 +0.00    +0.000 N 
DOCKED: ATOM     24  C   UNL     1      15.468  -4.556   4.945 -0.45 +0.00    +0.000 A 
DOCKED: ATOM     25  C   UNL     1      14.167  -4.531   4.508 -0.31 +0.00    +0.000 A 
DOCKED: ATOM     26  C   UNL     1      13.607  -3.388   3.936 -0.29 -0.00    +0.000 A 
DOCKED: ATOM     27  C   UNL     1      14.423  -2.249   3.810 -0.36 -0.00    +0.000 A 
DOCKED: ATOM     28  C   UNL     1      15.763  -2.276   4.255 -0.41 -0.00    +0.000 A 
DOCKED: ATOM     29  C   UNL     1      16.299  -3.442   4.832 -0.47 -0.00    +0.000 A 
DOCKED: ATOM     30  C   UNL     1      14.556  -7.909   5.872 -0.21 +0.00    +0.000 C 
DOCKED: ATOM     31  H   UNL     1      16.642  -6.024   5.861 -0.61 -0.00    +0.000 HD
DOCKED: ENDBRANCH  20  21
DOCKED: ENDBRANCH  19  20
DOCKED: ENDBRANCH   1  19
DOCKED: TORSDOF 8
DOCKED: TER
DOCKED: ENDMDL
________________________________________________________________________________


	BEGINNING GENETIC ALGORITHM DOCKING 5 of 100
Run: 5 Seed: 1674815008 355078960 [ Run 5 of 100 GA/GALS ]
Beginning LAMARCKIAN GENETIC ALGORITHM (LGA), with a maximum of 2500000 energy evaluations.

Final-Value: -13.069


	FINAL GENETIC ALGORITHM DOCKED STATE
	_______________________________________________


Detailed state:  trans 12.539 -6.648 4.613 quatxyzw 0.318126 -0.301950 0.191427 0.878054 center 0.698 0.076 -0.072 ntor 8 -19.8296 172.2722 83.6575 -28.1488 -159.7006 169.5144 -25.7437 -3.3595
State:	 12.539  -6.648   4.613   0.665 -0.631  0.400 57.183    -19.83  172.27   83.66  -28.15 -159.70  169.51  -25.74   -3.36

DOCKED: MODEL        5
DOCKED: USER    Run = 5
DOCKED: USER    DPF = ligand_dock.biased.dpf
DOCKED: USER  
DOCKED: USER    Estimated Free Energy of Binding    =   -8.41 kcal/mol  [=(1)+(2)+(3)-(4)]
DOCKED: USER    Estimated Inhibition Constant, Ki   =  680.08 nM (nanomolar)  [Temperature = 298.15 K]
DOCKED: USER    
DOCKED: USER    (1) Final Intermolecular Energy     =  -10.80 kcal/mol
DOCKED: USER        vdW + Hbond + desolv Energy     =  -10.80 kcal/mol
DOCKED: USER        Electrostatic Energy            =   +0.00 kcal/mol
DOCKED: USER    (2) Final Total Internal Energy     =   -2.27 kcal/mol
DOCKED: USER    (3) Torsional Free Energy           =   +2.39 kcal/mol
DOCKED: USER    (4) Unbound System's Energy  [=(2)] =   -2.27 kcal/mol
DOCKED: USER    
DOCKED: USER    
DOCKED: USER    NEWDPF move ligand.pdbqt
DOCKED: USER    NEWDPF about 0.698000 0.076000 -0.072000
DOCKED: USER    NEWDPF tran0 12.538609 -6.647831 4.613265
DOCKED: USER    NEWDPF quaternion0 0.318126 -0.301950 0.191427 0.878054
DOCKED: USER    NEWDPF axisangle0 0.664753 -0.630952 0.400004 57.183101
DOCKED: USER    NEWDPF quat0 0.664753 -0.630952 0.400004 57.183101
DOCKED: USER    NEWDPF dihe0 -19.83 172.27 83.66 -28.15 -159.70 169.51 -25.74 -3.36 
DOCKED: USER  keepresnum = 1 
DOCKED: USER  
DOCKED: REMARK  Name = 
DOCKED: REMARK  9 active torsions:
DOCKED: REMARK  status: ('A' for Active; 'I' for Inactive)
DOCKED: REMARK    1  A    between atoms: C_2  and  C_3
DOCKED: REMARK    2  A    between atoms: C_4  and  C_5
DOCKED: REMARK    3  A    between atoms: C_8  and  C_9
DOCKED: REMARK    4  A    between atoms: C_9  and  N_10
DOCKED: REMARK    5  A    between atoms: N_10  and  C_11
DOCKED: REMARK    6  A    between atoms: C_11  and  C_12
DOCKED: REMARK    7  A    between atoms: C_12  and  C_13
DOCKED: REMARK    8  A    between atoms: C_14  and  C_22
DOCKED: REMARK    9  A    between atoms: N_25  and  O_26
DOCKED: REMARK                            x       y       z     vdW  Elec       q    Type
DOCKED: REMARK                         _______ _______ _______ _____ _____    ______ ____
DOCKED: USER                              x       y       z     vdW  Elec       q    Type
DOCKED: USER                           _______ _______ _______ _____ _____    ______ ____
DOCKED: ROOT
DOCKED: ATOM      1  N   UNL     1      11.735  -5.809   4.488 -0.18 +0.00    +0.000 N 
DOCKED: ATOM      2  H   UNL     1      11.110  -6.444   3.991 +0.01 +0.00    +0.000 HD
DOCKED: ATOM      3  H   UNL     1      12.410  -5.381   3.855 +0.01 +0.00    +0.000 HD
DOCKED: ENDROOT
DOCKED: BRANCH   1   4
DOCKED: ATOM      4  C   UNL     1      12.484  -6.575   5.494 -0.28 +0.00    +0.000 C 
DOCKED: BRANCH   4   8
DOCKED: ATOM      5  C   UNL     1      15.033  -9.399   3.435 -0.35 +0.00    +0.000 A 
DOCKED: ATOM      6  C   UNL     1      15.130  -8.018   3.169 -0.29 +0.00    +0.000 A 
DOCKED: ATOM      7  C   UNL     1      14.309  -7.108   3.841 -0.28 +0.00    +0.000 A 
DOCKED: ATOM      8  C   UNL     1      13.391  -7.554   4.803 -0.29 +0.00    +0.000 A 
DOCKED: ATOM      9  C   UNL     1      13.293  -8.927   5.073 -0.38 +0.00    +0.000 A 
DOCKED: ATOM     10  C   UNL     1      14.115  -9.838   4.404 -0.36 +0.00    +0.000 A 
DOCKED: BRANCH   5  12
DOCKED: ATOM     11  C   UNL     1      17.227 -10.427   2.852 -0.51 +0.00    +0.000 C 
DOCKED: ATOM     12  C   UNL     1      15.889 -10.406   2.761 -0.46 +0.00    +0.000 C 
DOCKED: BRANCH  11  14
DOCKED: ATOM     13  O   UNL     1      17.537 -12.214   1.353 -0.67 +0.00    +0.000 OA
DOCKED: ATOM     14  C   UNL     1      18.076 -11.431   2.177 -0.46 -0.00    +0.000 C 
DOCKED: ATOM     15  N   UNL     1      19.479 -11.558   2.447 -0.63 -0.00    +0.000 N 
DOCKED: ATOM     16  H   UNL     1      19.893 -11.017   3.159 -0.03 -0.00    +0.000 HD
DOCKED: BRANCH  15  17
DOCKED: ATOM     17  O   UNL     1      20.236 -12.420   1.727 -1.69 -0.00    +0.000 OA
DOCKED: ATOM     18  H   UNL     1      19.663 -13.080   1.307 -0.47 -0.00    +0.000 HD
DOCKED: ENDBRANCH  15  17
DOCKED: ENDBRANCH  11  14
DOCKED: ENDBRANCH   5  12
DOCKED: ENDBRANCH   4   8
DOCKED: ENDBRANCH   1   4
DOCKED: BRANCH   1  19
DOCKED: ATOM     19  C   UNL     1      10.935  -4.732   5.092 -0.32 +0.00    +0.000 C 
DOCKED: BRANCH  19  20
DOCKED: ATOM     20  C   UNL     1      11.693  -3.394   5.139 -0.41 +0.00    +0.000 C 
DOCKED: BRANCH  20  21
DOCKED: ATOM     21  C   UNL     1      12.758  -3.361   4.080 -0.29 +0.00    +0.000 A 
DOCKED: ATOM     22  C   UNL     1      12.583  -3.404   2.696 -0.17 -0.00    +0.000 A 
DOCKED: ATOM     23  N   UNL     1      13.778  -3.423   2.062 -0.19 -0.00    +0.000 N 
DOCKED: ATOM     24  C   UNL     1      14.708  -3.414   3.033 -0.28 -0.00    +0.000 A 
DOCKED: ATOM     25  C   UNL     1      14.126  -3.384   4.275 -0.32 -0.00    +0.000 A 
DOCKED: ATOM     26  C   UNL     1      14.888  -3.396   5.444 -0.22 -0.00    +0.000 A 
DOCKED: ATOM     27  C   UNL     1      16.289  -3.432   5.315 -0.47 -0.00    +0.000 A 
DOCKED: ATOM     28  C   UNL     1      16.888  -3.459   4.036 -0.37 -0.00    +0.000 A 
DOCKED: ATOM     29  C   UNL     1      16.093  -3.451   2.875 -0.29 -0.00    +0.000 A 
DOCKED: ATOM     30  C   UNL     1      11.268  -3.400   1.981 -0.15 -0.00    +0.000 C 
DOCKED: ATOM     31  H   UNL     1      13.935  -3.438   1.090 -0.00 -0.00    +0.000 HD
DOCKED: ENDBRANCH  20  21
DOCKED: ENDBRANCH  19  20
DOCKED: ENDBRANCH   1  19
DOCKED: TORSDOF 8
DOCKED: TER
DOCKED: ENDMDL
________________________________________________________________________________


	BEGINNING GENETIC ALGORITHM DOCKING 6 of 100
Run: 6 Seed: 1164381665 1585586722 [ Run 6 of 100 GA/GALS ]
Beginning LAMARCKIAN GENETIC ALGORITHM (LGA), with a maximum of 2500000 energy evaluations.

Final-Value: -14.644


	FINAL GENETIC ALGORITHM DOCKED STATE
	_______________________________________________


Detailed state:  trans 22.041 -10.118 -5.328 quatxyzw -0.632700 -0.558064 -0.307104 -0.440389 center 0.698 0.076 -0.072 ntor 8 35.6020 -117.1879 143.3662 -20.0461 -93.7314 164.7828 -175.7485 -40.3600
State:	 22.041 -10.118  -5.328  -0.705 -0.622 -0.342 -127.743     35.60 -117.19  143.37  -20.05  -93.73  164.78 -175.75  -40.36

DOCKED: MODEL        6
DOCKED: USER    Run = 6
DOCKED: USER    DPF = ligand_dock.biased.dpf
DOCKED: USER  
DOCKED: USER    Estimated Free Energy of Binding    =  -10.84 kcal/mol  [=(1)+(2)+(3)-(4)]
DOCKED: USER    Estimated Inhibition Constant, Ki   =   11.32 nM (nanomolar)  [Temperature = 298.15 K]
DOCKED: USER    
DOCKED: USER    (1) Final Intermolecular Energy     =  -13.23 kcal/mol
DOCKED: USER        vdW + Hbond + desolv Energy     =  -13.23 kcal/mol
DOCKED: USER        Electrostatic Energy            =   +0.00 kcal/mol
DOCKED: USER    (2) Final Total Internal Energy     =   -1.42 kcal/mol
DOCKED: USER    (3) Torsional Free Energy           =   +2.39 kcal/mol
DOCKED: USER    (4) Unbound System's Energy  [=(2)] =   -1.42 kcal/mol
DOCKED: USER    
DOCKED: USER    
DOCKED: USER    NEWDPF move ligand.pdbqt
DOCKED: USER    NEWDPF about 0.698000 0.076000 -0.072000
DOCKED: USER    NEWDPF tran0 22.040545 -10.118291 -5.327620
DOCKED: USER    NEWDPF quaternion0 -0.632700 -0.558064 -0.307104 -0.440389
DOCKED: USER    NEWDPF axisangle0 -0.704717 -0.621586 -0.342061 -127.742543
DOCKED: USER    NEWDPF quat0 -0.704717 -0.621586 -0.342061 -127.742543
DOCKED: USER    NEWDPF dihe0 35.60 -117.19 143.37 -20.05 -93.73 164.78 -175.75 -40.36 
DOCKED: USER  keepresnum = 1 
DOCKED: USER  
DOCKED: REMARK  Name = 
DOCKED: REMARK  9 active torsions:
DOCKED: REMARK  status: ('A' for Active; 'I' for Inactive)
DOCKED: REMARK    1  A    between atoms: C_2  and  C_3
DOCKED: REMARK    2  A    between atoms: C_4  and  C_5
DOCKED: REMARK    3  A    between atoms: C_8  and  C_9
DOCKED: REMARK    4  A    between atoms: C_9  and  N_10
DOCKED: REMARK    5  A    between atoms: N_10  and  C_11
DOCKED: REMARK    6  A    between atoms: C_11  and  C_12
DOCKED: REMARK    7  A    between atoms: C_12  and  C_13
DOCKED: REMARK    8  A    between atoms: C_14  and  C_22
DOCKED: REMARK    9  A    between atoms: N_25  and  O_26
DOCKED: REMARK                            x       y       z     vdW  Elec       q    Type
DOCKED: REMARK                         _______ _______ _______ _____ _____    ______ ____
DOCKED: USER                              x       y       z     vdW  Elec       q    Type
DOCKED: USER                           _______ _______ _______ _____ _____    ______ ____
DOCKED: ROOT
DOCKED: ATOM      1  N   UNL     1      22.440 -10.750  -6.226 -0.39 -0.00    +0.000 N 
DOCKED: ATOM      2  H   UNL     1      22.347 -11.616  -5.694 -0.06 -0.00    +0.000 HD
DOCKED: ATOM      3  H   UNL     1      23.331 -10.291  -6.035 -0.01 -0.00    +0.000 HD
DOCKED: ENDROOT
DOCKED: BRANCH   1   4
DOCKED: ATOM      4  C   UNL     1      21.366  -9.831  -5.824 -0.33 -0.00    +0.000 C 
DOCKED: BRANCH   4   8
DOCKED: ATOM      5  C   UNL     1      20.176 -10.567  -1.731 -0.46 -0.00    +0.000 A 
DOCKED: ATOM      6  C   UNL     1      19.502 -11.193  -2.798 -0.32 -0.00    +0.000 A 
DOCKED: ATOM      7  C   UNL     1      19.893 -10.958  -4.119 -0.42 -0.00    +0.000 A 
DOCKED: ATOM      8  C   UNL     1      20.975 -10.111  -4.400 -0.39 -0.00    +0.000 A 
DOCKED: ATOM      9  C   UNL     1      21.651  -9.487  -3.341 -0.33 -0.00    +0.000 A 
DOCKED: ATOM     10  C   UNL     1      21.262  -9.724  -2.020 -0.52 -0.00    +0.000 A 
DOCKED: BRANCH   5  12
DOCKED: ATOM     11  C   UNL     1      20.657 -11.283   0.607 -0.69 -0.00    +0.000 C 
DOCKED: ATOM     12  C   UNL     1      19.810 -10.791  -0.310 -0.58 -0.00    +0.000 C 
DOCKED: BRANCH  11  14
DOCKED: ATOM     13  O   UNL     1      19.620 -12.534   2.310 -1.43 -0.00    +0.000 OA
DOCKED: ATOM     14  C   UNL     1      20.288 -11.507   2.021 -0.78 -0.00    +0.000 C 
DOCKED: ATOM     15  N   UNL     1      20.641 -10.586   3.062 -0.64 -0.00    +0.000 N 
DOCKED: ATOM     16  H   UNL     1      21.077  -9.733   2.836 -0.59 -0.00    +0.000 HD
DOCKED: BRANCH  15  17
DOCKED: ATOM     17  O   UNL     1      20.373 -10.887   4.356 -0.72 -0.00    +0.000 OA
DOCKED: ATOM     18  H   UNL     1      20.489 -11.839   4.498 -0.34 -0.00    +0.000 HD
DOCKED: ENDBRANCH  15  17
DOCKED: ENDBRANCH  11  14
DOCKED: ENDBRANCH   5  12
DOCKED: ENDBRANCH   4   8
DOCKED: ENDBRANCH   1   4
DOCKED: BRANCH   1  19
DOCKED: ATOM     19  C   UNL     1      22.392 -11.067  -7.661 -0.36 -0.00    +0.000 C 
DOCKED: BRANCH  19  20
DOCKED: ATOM     20  C   UNL     1      23.175 -10.053  -8.513 -0.21 -0.00    +0.000 C 
DOCKED: BRANCH  20  21
DOCKED: ATOM     21  C   UNL     1      24.601 -10.495  -8.670 -0.25 -0.00    +0.000 A 
DOCKED: ATOM     22  C   UNL     1      25.083 -11.558  -9.437 -0.30 -0.00    +0.000 A 
DOCKED: ATOM     23  N   UNL     1      26.420 -11.695  -9.279 -0.30 -0.00    +0.000 N 
DOCKED: ATOM     24  C   UNL     1      26.785 -10.744  -8.402 -0.37 -0.00    +0.000 A 
DOCKED: ATOM     25  C   UNL     1      25.705  -9.998  -8.003 -0.32 -0.00    +0.000 A 
DOCKED: ATOM     26  C   UNL     1      25.829  -8.965  -7.073 -0.25 -0.00    +0.000 A 
DOCKED: ATOM     27  C   UNL     1      27.109  -8.698  -6.554 -0.38 -0.00    +0.000 A 
DOCKED: ATOM     28  C   UNL     1      28.222  -9.463  -6.968 -0.46 -0.00    +0.000 A 
DOCKED: ATOM     29  C   UNL     1      28.065 -10.502  -7.904 -0.42 -0.00    +0.000 A 
DOCKED: ATOM     30  C   UNL     1      24.265 -12.423 -10.342 -0.29 -0.00    +0.000 C 
DOCKED: ATOM     31  H   UNL     1      27.005 -12.355  -9.717 -0.30 -0.00    +0.000 HD
DOCKED: ENDBRANCH  20  21
DOCKED: ENDBRANCH  19  20
DOCKED: ENDBRANCH   1  19
DOCKED: TORSDOF 8
DOCKED: TER
DOCKED: ENDMDL
________________________________________________________________________________


	BEGINNING GENETIC ALGORITHM DOCKING 7 of 100
Run: 7 Seed: 1419279153 411646727 [ Run 7 of 100 GA/GALS ]
Beginning LAMARCKIAN GENETIC ALGORITHM (LGA), with a maximum of 2500000 energy evaluations.

Final-Value: -12.869


	FINAL GENETIC ALGORITHM DOCKED STATE
	_______________________________________________


Detailed state:  trans 15.183 -11.074 -3.976 quatxyzw -0.186319 -0.244910 0.853733 0.420052 center 0.698 0.076 -0.072 ntor 8 1.8469 97.1608 -75.2159 141.2915 18.0520 -132.4222 179.6306 162.6803
State:	 15.183 -11.074  -3.976  -0.205 -0.270  0.941 130.324      1.85   97.16  -75.22  141.29   18.05 -132.42  179.63  162.68

DOCKED: MODEL        7
DOCKED: USER    Run = 7
DOCKED: USER    DPF = ligand_dock.biased.dpf
DOCKED: USER  
DOCKED: USER    Estimated Free Energy of Binding    =   -8.27 kcal/mol  [=(1)+(2)+(3)-(4)]
DOCKED: USER    Estimated Inhibition Constant, Ki   =  865.76 nM (nanomolar)  [Temperature = 298.15 K]
DOCKED: USER    
DOCKED: USER    (1) Final Intermolecular Energy     =  -10.66 kcal/mol
DOCKED: USER        vdW + Hbond + desolv Energy     =  -10.66 kcal/mol
DOCKED: USER        Electrostatic Energy            =   +0.00 kcal/mol
DOCKED: USER    (2) Final Total Internal Energy     =   -2.21 kcal/mol
DOCKED: USER    (3) Torsional Free Energy           =   +2.39 kcal/mol
DOCKED: USER    (4) Unbound System's Energy  [=(2)] =   -2.21 kcal/mol
DOCKED: USER    
DOCKED: USER    
DOCKED: USER    NEWDPF move ligand.pdbqt
DOCKED: USER    NEWDPF about 0.698000 0.076000 -0.072000
DOCKED: USER    NEWDPF tran0 15.182703 -11.074032 -3.975710
DOCKED: USER    NEWDPF quaternion0 -0.186319 -0.244910 0.853733 0.420052
DOCKED: USER    NEWDPF axisangle0 -0.205310 -0.269873 0.940753 130.324197
DOCKED: USER    NEWDPF quat0 -0.205310 -0.269873 0.940753 130.324197
DOCKED: USER    NEWDPF dihe0 1.85 97.16 -75.22 141.29 18.05 -132.42 179.63 162.68 
DOCKED: USER  keepresnum = 1 
DOCKED: USER  
DOCKED: REMARK  Name = 
DOCKED: REMARK  9 active torsions:
DOCKED: REMARK  status: ('A' for Active; 'I' for Inactive)
DOCKED: REMARK    1  A    between atoms: C_2  and  C_3
DOCKED: REMARK    2  A    between atoms: C_4  and  C_5
DOCKED: REMARK    3  A    between atoms: C_8  and  C_9
DOCKED: REMARK    4  A    between atoms: C_9  and  N_10
DOCKED: REMARK    5  A    between atoms: N_10  and  C_11
DOCKED: REMARK    6  A    between atoms: C_11  and  C_12
DOCKED: REMARK    7  A    between atoms: C_12  and  C_13
DOCKED: REMARK    8  A    between atoms: C_14  and  C_22
DOCKED: REMARK    9  A    between atoms: N_25  and  O_26
DOCKED: REMARK                            x       y       z     vdW  Elec       q    Type
DOCKED: REMARK                         _______ _______ _______ _____ _____    ______ ____
DOCKED: USER                              x       y       z     vdW  Elec       q    Type
DOCKED: USER                           _______ _______ _______ _____ _____    ______ ____
DOCKED: ROOT
DOCKED: ATOM      1  N   UNL     1      16.246 -10.626  -3.793 -0.18 -0.00    +0.000 N 
DOCKED: ATOM      2  H   UNL     1      16.143  -9.987  -4.582 -0.00 -0.00    +0.000 HD
DOCKED: ATOM      3  H   UNL     1      16.584 -11.539  -4.097 +0.09 -0.00    +0.000 HD
DOCKED: ENDROOT
DOCKED: BRANCH   1   4
DOCKED: ATOM      4  C   UNL     1      14.932 -10.819  -3.166 -0.29 -0.00    +0.000 C 
DOCKED: BRANCH   4   8
DOCKED: ATOM      5  C   UNL     1      15.148 -10.083   1.091 -0.26 +0.00    +0.000 A 
DOCKED: ATOM      6  C   UNL     1      15.210 -11.397   0.586 -0.35 +0.00    +0.000 A 
DOCKED: ATOM      7  C   UNL     1      15.145 -11.631  -0.791 -0.35 +0.00    +0.000 A 
DOCKED: ATOM      8  C   UNL     1      15.040 -10.560  -1.690 -0.27 -0.00    +0.000 A 
DOCKED: ATOM      9  C   UNL     1      14.981  -9.249  -1.192 -0.22 -0.00    +0.000 A 
DOCKED: ATOM     10  C   UNL     1      15.047  -9.015   0.185 -0.23 -0.00    +0.000 A 
DOCKED: BRANCH   5  12
DOCKED: ATOM     11  C   UNL     1      14.150  -9.555   3.313 -0.35 +0.00    +0.000 C 
DOCKED: ATOM     12  C   UNL     1      15.225  -9.778   2.542 -0.37 +0.00    +0.000 C 
DOCKED: BRANCH  11  14
DOCKED: ATOM     13  O   UNL     1      14.647 -10.145   5.536 -0.51 +0.00    +0.000 OA
DOCKED: ATOM     14  C   UNL     1      14.231  -9.249   4.756 -0.46 +0.00    +0.000 C 
DOCKED: ATOM     15  N   UNL     1      13.829  -7.982   5.297 -0.39 +0.00    +0.000 N 
DOCKED: ATOM     16  H   UNL     1      13.412  -7.309   4.712 +0.00 +0.00    +0.000 HD
DOCKED: BRANCH  15  17
DOCKED: ATOM     17  O   UNL     1      14.021  -7.712   6.610 -0.53 +0.00    +0.000 OA
DOCKED: ATOM     18  H   UNL     1      14.465  -8.462   7.034 -0.06 +0.00    +0.000 HD
DOCKED: ENDBRANCH  15  17
DOCKED: ENDBRANCH  11  14
DOCKED: ENDBRANCH   5  12
DOCKED: ENDBRANCH   4   8
DOCKED: ENDBRANCH   1   4
DOCKED: BRANCH   1  19
DOCKED: ATOM     19  C   UNL     1      17.233 -10.067  -2.857 -0.22 -0.00    +0.000 C 
DOCKED: BRANCH  19  20
DOCKED: ATOM     20  C   UNL     1      18.669 -10.507  -3.186 -0.36 -0.00    +0.000 C 
DOCKED: BRANCH  20  21
DOCKED: ATOM     21  C   UNL     1      19.544 -10.385  -1.971 -0.39 -0.00    +0.000 A 
DOCKED: ATOM     22  C   UNL     1      20.761  -9.709  -1.863 -0.51 -0.00    +0.000 A 
DOCKED: ATOM     23  N   UNL     1      21.293  -9.877  -0.630 -0.65 -0.00    +0.000 N 
DOCKED: ATOM     24  C   UNL     1      20.436 -10.671   0.035 -0.59 -0.00    +0.000 A 
DOCKED: ATOM     25  C   UNL     1      19.362 -11.008  -0.751 -0.44 -0.00    +0.000 A 
DOCKED: ATOM     26  C   UNL     1      18.349 -11.848  -0.288 -0.46 -0.00    +0.000 A 
DOCKED: ATOM     27  C   UNL     1      18.452 -12.342   1.025 -0.50 -0.00    +0.000 A 
DOCKED: ATOM     28  C   UNL     1      19.555 -11.991   1.836 -0.65 -0.00    +0.000 A 
DOCKED: ATOM     29  C   UNL     1      20.565 -11.146   1.340 -0.65 -0.00    +0.000 A 
DOCKED: ATOM     30  C   UNL     1      21.397  -8.881  -2.933 -0.47 -0.00    +0.000 C 
DOCKED: ATOM     31  H   UNL     1      22.134  -9.495  -0.290 -0.06 -0.00    +0.000 HD
DOCKED: ENDBRANCH  20  21
DOCKED: ENDBRANCH  19  20
DOCKED: ENDBRANCH   1  19
DOCKED: TORSDOF 8
DOCKED: TER
DOCKED: ENDMDL
________________________________________________________________________________


	BEGINNING GENETIC ALGORITHM DOCKING 8 of 100
Run: 8 Seed: 1616815757 974607734 [ Run 8 of 100 GA/GALS ]
Beginning LAMARCKIAN GENETIC ALGORITHM (LGA), with a maximum of 2500000 energy evaluations.

Final-Value: -13.062


	FINAL GENETIC ALGORITHM DOCKED STATE
	_______________________________________________


Detailed state:  trans 21.619 -9.071 -2.133 quatxyzw 0.737896 0.364305 0.131534 -0.552712 center 0.698 0.076 -0.072 ntor 8 -1.4014 -111.0575 161.0266 116.4586 -67.7499 -135.8318 -23.3923 -138.6018
State:	 21.619  -9.071  -2.133   0.885  0.437  0.158 -112.893     -1.40 -111.06  161.03  116.46  -67.75 -135.83  -23.39 -138.60

DOCKED: MODEL        8
DOCKED: USER    Run = 8
DOCKED: USER    DPF = ligand_dock.biased.dpf
DOCKED: USER  
DOCKED: USER    Estimated Free Energy of Binding    =   -8.88 kcal/mol  [=(1)+(2)+(3)-(4)]
DOCKED: USER    Estimated Inhibition Constant, Ki   =  311.92 nM (nanomolar)  [Temperature = 298.15 K]
DOCKED: USER    
DOCKED: USER    (1) Final Intermolecular Energy     =  -11.26 kcal/mol
DOCKED: USER        vdW + Hbond + desolv Energy     =  -11.26 kcal/mol
DOCKED: USER        Electrostatic Energy            =   +0.00 kcal/mol
DOCKED: USER    (2) Final Total Internal Energy     =   -1.80 kcal/mol
DOCKED: USER    (3) Torsional Free Energy           =   +2.39 kcal/mol
DOCKED: USER    (4) Unbound System's Energy  [=(2)] =   -1.80 kcal/mol
DOCKED: USER    
DOCKED: USER    
DOCKED: USER    NEWDPF move ligand.pdbqt
DOCKED: USER    NEWDPF about 0.698000 0.076000 -0.072000
DOCKED: USER    NEWDPF tran0 21.618767 -9.070573 -2.133046
DOCKED: USER    NEWDPF quaternion0 0.737896 0.364305 0.131534 -0.552712
DOCKED: USER    NEWDPF axisangle0 0.885433 0.437146 0.157834 -112.893445
DOCKED: USER    NEWDPF quat0 0.885433 0.437146 0.157834 -112.893445
DOCKED: USER    NEWDPF dihe0 -1.40 -111.06 161.03 116.46 -67.75 -135.83 -23.39 -138.60 
DOCKED: USER  keepresnum = 1 
DOCKED: USER  
DOCKED: REMARK  Name = 
DOCKED: REMARK  9 active torsions:
DOCKED: REMARK  status: ('A' for Active; 'I' for Inactive)
DOCKED: REMARK    1  A    between atoms: C_2  and  C_3
DOCKED: REMARK    2  A    between atoms: C_4  and  C_5
DOCKED: REMARK    3  A    between atoms: C_8  and  C_9
DOCKED: REMARK    4  A    between atoms: C_9  and  N_10
DOCKED: REMARK    5  A    between atoms: N_10  and  C_11
DOCKED: REMARK    6  A    between atoms: C_11  and  C_12
DOCKED: REMARK    7  A    between atoms: C_12  and  C_13
DOCKED: REMARK    8  A    between atoms: C_14  and  C_22
DOCKED: REMARK    9  A    between atoms: N_25  and  O_26
DOCKED: REMARK                            x       y       z     vdW  Elec       q    Type
DOCKED: REMARK                         _______ _______ _______ _____ _____    ______ ____
DOCKED: USER                              x       y       z     vdW  Elec       q    Type
DOCKED: USER                           _______ _______ _______ _____ _____    ______ ____
DOCKED: ROOT
DOCKED: ATOM      1  N   UNL     1      21.015  -9.653  -1.320 -0.57 -0.00    +0.000 N 
DOCKED: ATOM      2  H   UNL     1      20.388  -8.861  -1.178 -0.03 -0.00    +0.000 HD
DOCKED: ATOM      3  H   UNL     1      21.860  -9.564  -0.757 -0.04 -0.00    +0.000 HD
DOCKED: ENDROOT
DOCKED: BRANCH   1   4
DOCKED: ATOM      4  C   UNL     1      21.417  -9.690  -2.733 -0.51 -0.00    +0.000 C 
DOCKED: BRANCH   4   8
DOCKED: ATOM      5  C   UNL     1      17.982 -10.840  -5.096 -0.26 -0.00    +0.000 A 
DOCKED: ATOM      6  C   UNL     1      17.945  -9.683  -4.292 -0.23 -0.00    +0.000 A 
DOCKED: ATOM      7  C   UNL     1      19.059  -9.311  -3.534 -0.20 -0.00    +0.000 A 
DOCKED: ATOM      8  C   UNL     1      20.236 -10.072  -3.579 -0.39 -0.00    +0.000 A 
DOCKED: ATOM      9  C   UNL     1      20.279 -11.223  -4.381 -0.45 -0.00    +0.000 A 
DOCKED: ATOM     10  C   UNL     1      19.166 -11.595  -5.140 -0.36 -0.00    +0.000 A 
DOCKED: BRANCH   5  12
DOCKED: ATOM     11  C   UNL     1      16.956 -11.744  -7.180 -0.37 -0.00    +0.000 C 
DOCKED: ATOM     12  C   UNL     1      16.833 -11.273  -5.930 -0.32 -0.00    +0.000 C 
DOCKED: BRANCH  11  14
DOCKED: ATOM     13  O   UNL     1      15.187 -11.299  -8.667 -0.20 -0.00    +0.000 OA
DOCKED: ATOM     14  C   UNL     1      15.808 -12.172  -8.007 -0.36 -0.00    +0.000 C 
DOCKED: ATOM     15  N   UNL     1      15.367 -13.536  -8.062 -0.50 +0.00    +0.000 N 
DOCKED: ATOM     16  H   UNL     1      15.782 -14.210  -7.477 -0.04 +0.00    +0.000 HD
DOCKED: BRANCH  15  17
DOCKED: ATOM     17  O   UNL     1      14.379 -13.897  -8.915 -0.41 +0.00    +0.000 OA
DOCKED: ATOM     18  H   UNL     1      14.066 -13.116  -9.398 -0.01 +0.00    +0.000 HD
DOCKED: ENDBRANCH  15  17
DOCKED: ENDBRANCH  11  14
DOCKED: ENDBRANCH   5  12
DOCKED: ENDBRANCH   4   8
DOCKED: ENDBRANCH   1   4
DOCKED: BRANCH   1  19
DOCKED: ATOM     19  C   UNL     1      20.324 -10.884  -0.907 -0.54 -0.00    +0.000 C 
DOCKED: BRANCH  19  20
DOCKED: ATOM     20  C   UNL     1      20.600 -11.247   0.562 -0.69 -0.00    +0.000 C 
DOCKED: BRANCH  20  21
DOCKED: ATOM     21  C   UNL     1      19.330 -11.188   1.361 -0.57 -0.00    +0.000 A 
DOCKED: ATOM     22  C   UNL     1      19.193 -10.911   2.723 -0.59 -0.00    +0.000 A 
DOCKED: ATOM     23  N   UNL     1      17.898 -11.015   3.104 -0.47 +0.00    +0.000 N 
DOCKED: ATOM     24  C   UNL     1      17.219 -11.378   2.003 -0.37 +0.00    +0.000 A 
DOCKED: ATOM     25  C   UNL     1      18.056 -11.500   0.923 -0.46 -0.00    +0.000 A 
DOCKED: ATOM     26  C   UNL     1      17.586 -11.894  -0.331 -0.41 -0.00    +0.000 A 
DOCKED: ATOM     27  C   UNL     1      16.210 -12.157  -0.463 -0.39 +0.00    +0.000 A 
DOCKED: ATOM     28  C   UNL     1      15.347 -12.026   0.648 -0.43 +0.00    +0.000 A 
DOCKED: ATOM     29  C   UNL     1      15.852 -11.632   1.901 -0.41 +0.00    +0.000 A 
DOCKED: ATOM     30  C   UNL     1      20.299 -10.519   3.650 -0.65 -0.00    +0.000 C 
DOCKED: ATOM     31  H   UNL     1      17.531 -10.856   4.004 -0.03 +0.00    +0.000 HD
DOCKED: ENDBRANCH  20  21
DOCKED: ENDBRANCH  19  20
DOCKED: ENDBRANCH   1  19
DOCKED: TORSDOF 8
DOCKED: TER
DOCKED: ENDMDL
________________________________________________________________________________


	BEGINNING GENETIC ALGORITHM DOCKING 9 of 100
Run: 9 Seed: 1013099660 1737732103 [ Run 9 of 100 GA/GALS ]
Beginning LAMARCKIAN GENETIC ALGORITHM (LGA), with a maximum of 2500000 energy evaluations.

Final-Value: -13.338


	FINAL GENETIC ALGORITHM DOCKED STATE
	_______________________________________________


Detailed state:  trans 15.913 -8.507 1.832 quatxyzw 0.293141 0.178964 -0.563523 0.751320 center 0.698 0.076 -0.072 ntor 8 -19.2784 -147.5549 94.9004 -173.6562 124.2913 18.7417 -116.6555 91.2383
State:	 15.913  -8.507   1.832   0.444  0.271 -0.854 82.590    -19.28 -147.55   94.90 -173.66  124.29   18.74 -116.66   91.24

DOCKED: MODEL        9
DOCKED: USER    Run = 9
DOCKED: USER    DPF = ligand_dock.biased.dpf
DOCKED: USER  
DOCKED: USER    Estimated Free Energy of Binding    =   -9.12 kcal/mol  [=(1)+(2)+(3)-(4)]
DOCKED: USER    Estimated Inhibition Constant, Ki   =  206.67 nM (nanomolar)  [Temperature = 298.15 K]
DOCKED: USER    
DOCKED: USER    (1) Final Intermolecular Energy     =  -11.51 kcal/mol
DOCKED: USER        vdW + Hbond + desolv Energy     =  -11.51 kcal/mol
DOCKED: USER        Electrostatic Energy            =   +0.00 kcal/mol
DOCKED: USER    (2) Final Total Internal Energy     =   -1.83 kcal/mol
DOCKED: USER    (3) Torsional Free Energy           =   +2.39 kcal/mol
DOCKED: USER    (4) Unbound System's Energy  [=(2)] =   -1.83 kcal/mol
DOCKED: USER    
DOCKED: USER    
DOCKED: USER    NEWDPF move ligand.pdbqt
DOCKED: USER    NEWDPF about 0.698000 0.076000 -0.072000
DOCKED: USER    NEWDPF tran0 15.912868 -8.507447 1.831847
DOCKED: USER    NEWDPF quaternion0 0.293141 0.178964 -0.563523 0.751320
DOCKED: USER    NEWDPF axisangle0 0.444195 0.271183 -0.853903 82.590214
DOCKED: USER    NEWDPF quat0 0.444195 0.271183 -0.853903 82.590214
DOCKED: USER    NEWDPF dihe0 -19.28 -147.55 94.90 -173.66 124.29 18.74 -116.66 91.24 
DOCKED: USER  keepresnum = 1 
DOCKED: USER  
DOCKED: REMARK  Name = 
DOCKED: REMARK  9 active torsions:
DOCKED: REMARK  status: ('A' for Active; 'I' for Inactive)
DOCKED: REMARK    1  A    between atoms: C_2  and  C_3
DOCKED: REMARK    2  A    between atoms: C_4  and  C_5
DOCKED: REMARK    3  A    between atoms: C_8  and  C_9
DOCKED: REMARK    4  A    between atoms: C_9  and  N_10
DOCKED: REMARK    5  A    between atoms: N_10  and  C_11
DOCKED: REMARK    6  A    between atoms: C_11  and  C_12
DOCKED: REMARK    7  A    between atoms: C_12  and  C_13
DOCKED: REMARK    8  A    between atoms: C_14  and  C_22
DOCKED: REMARK    9  A    between atoms: N_25  and  O_26
DOCKED: REMARK                            x       y       z     vdW  Elec       q    Type
DOCKED: REMARK                         _______ _______ _______ _____ _____    ______ ____
DOCKED: USER                              x       y       z     vdW  Elec       q    Type
DOCKED: USER                           _______ _______ _______ _____ _____    ______ ____
DOCKED: ROOT
DOCKED: ATOM      1  N   UNL     1      15.325  -9.393   1.348 -0.28 +0.00    +0.000 N 
DOCKED: ATOM      2  H   UNL     1      16.102  -9.603   0.721 -0.02 +0.00    +0.000 HD
DOCKED: ATOM      3  H   UNL     1      14.723  -8.666   0.963 -0.01 +0.00    +0.000 HD
DOCKED: ENDROOT
DOCKED: BRANCH   1   4
DOCKED: ATOM      4  C   UNL     1      15.866  -8.903   2.622 -0.34 +0.00    +0.000 C 
DOCKED: BRANCH   4   8
DOCKED: ATOM      5  C   UNL     1      12.841  -6.666   4.758 -0.23 +0.00    +0.000 A 
DOCKED: ATOM      6  C   UNL     1      12.893  -6.639   3.350 -0.12 +0.00    +0.000 A 
DOCKED: ATOM      7  C   UNL     1      13.868  -7.368   2.663 -0.19 +0.00    +0.000 A 
DOCKED: ATOM      8  C   UNL     1      14.795  -8.152   3.364 -0.30 +0.00    +0.000 A 
DOCKED: ATOM      9  C   UNL     1      14.746  -8.184   4.766 -0.31 +0.00    +0.000 A 
DOCKED: ATOM     10  C   UNL     1      13.770  -7.457   5.454 -0.39 +0.00    +0.000 A 
DOCKED: BRANCH   5  12
DOCKED: ATOM     11  C   UNL     1      10.527  -6.275   5.597 -0.24 +0.00    +0.000 C 
DOCKED: ATOM     12  C   UNL     1      11.820  -5.922   5.536 -0.22 +0.00    +0.000 C 
DOCKED: BRANCH  11  14
DOCKED: ATOM     13  O   UNL     1       9.456  -4.279   6.236 -0.96 +0.00    +0.000 OA
DOCKED: ATOM     14  C   UNL     1       9.513  -5.529   6.371 -0.36 +0.00    +0.000 C 
DOCKED: ATOM     15  N   UNL     1       8.615  -6.176   7.284 -0.46 +0.00    +0.000 N 
DOCKED: ATOM     16  H   UNL     1       8.713  -7.138   7.471 -0.02 +0.00    +0.000 HD
DOCKED: BRANCH  15  17
DOCKED: ATOM     17  O   UNL     1       7.634  -5.466   7.891 -0.75 +0.00    +0.000 OA
DOCKED: ATOM     18  H   UNL     1       7.847  -4.521   7.853 -0.01 +0.00    +0.000 HD
DOCKED: ENDBRANCH  15  17
DOCKED: ENDBRANCH  11  14
DOCKED: ENDBRANCH   5  12
DOCKED: ENDBRANCH   4   8
DOCKED: ENDBRANCH   1   4
DOCKED: BRANCH   1  19
DOCKED: ATOM     19  C   UNL     1      14.513 -10.608   1.519 -0.33 +0.00    +0.000 C 
DOCKED: BRANCH  19  20
DOCKED: ATOM     20  C   UNL     1      15.305 -11.756   2.167 -0.50 +0.00    +0.000 C 
DOCKED: BRANCH  20  21
DOCKED: ATOM     21  C   UNL     1      16.591 -11.986   1.427 -0.40 +0.00    +0.000 A 
DOCKED: ATOM     22  C   UNL     1      16.778 -12.719   0.253 -0.48 +0.00    +0.000 A 
DOCKED: ATOM     23  N   UNL     1      18.089 -12.761  -0.081 -0.45 -0.00    +0.000 N 
DOCKED: ATOM     24  C   UNL     1      18.735 -12.081   0.882 -0.54 -0.00    +0.000 A 
DOCKED: ATOM     25  C   UNL     1      17.858 -11.599   1.821 -0.41 +0.00    +0.000 A 
DOCKED: ATOM     26  C   UNL     1      18.296 -10.881   2.935 -0.48 -0.00    +0.000 A 
DOCKED: ATOM     27  C   UNL     1      19.678 -10.652   3.067 -0.61 -0.00    +0.000 A 
DOCKED: ATOM     28  C   UNL     1      20.580 -11.143   2.098 -0.63 -0.00    +0.000 A 
DOCKED: ATOM     29  C   UNL     1      20.110 -11.869   0.988 -0.59 -0.00    +0.000 A 
DOCKED: ATOM     30  C   UNL     1      15.697 -13.356  -0.560 -0.51 +0.00    +0.000 C 
DOCKED: ATOM     31  H   UNL     1      18.487 -13.199  -0.868 -0.37 -0.00    +0.000 HD
DOCKED: ENDBRANCH  20  21
DOCKED: ENDBRANCH  19  20
DOCKED: ENDBRANCH   1  19
DOCKED: TORSDOF 8
DOCKED: TER
DOCKED: ENDMDL
________________________________________________________________________________


	BEGINNING GENETIC ALGORITHM DOCKING 10 of 100
Run: 10 Seed: 356165993 234963279 [ Run 10 of 100 GA/GALS ]
Beginning LAMARCKIAN GENETIC ALGORITHM (LGA), with a maximum of 2500000 energy evaluations.

Final-Value: -13.447


	FINAL GENETIC ALGORITHM DOCKED STATE
	_______________________________________________


Detailed state:  trans 21.085 -9.345 -2.503 quatxyzw 0.699647 0.322939 -0.439126 -0.461922 center 0.698 0.076 -0.072 ntor 8 27.8670 -124.6275 -179.6625 -152.1782 32.6643 114.9746 177.9252 24.8076
State:	 21.085  -9.345  -2.503   0.789  0.364 -0.495 -124.978     27.87 -124.63 -179.66 -152.18   32.66  114.97  177.93   24.81

DOCKED: MODEL       10
DOCKED: USER    Run = 10
DOCKED: USER    DPF = ligand_dock.biased.dpf
DOCKED: USER  
DOCKED: USER    Estimated Free Energy of Binding    =   -9.62 kcal/mol  [=(1)+(2)+(3)-(4)]
DOCKED: USER    Estimated Inhibition Constant, Ki   =   89.34 nM (nanomolar)  [Temperature = 298.15 K]
DOCKED: USER    
DOCKED: USER    (1) Final Intermolecular Energy     =  -12.00 kcal/mol
DOCKED: USER        vdW + Hbond + desolv Energy     =  -12.00 kcal/mol
DOCKED: USER        Electrostatic Energy            =   +0.00 kcal/mol
DOCKED: USER    (2) Final Total Internal Energy     =   -1.44 kcal/mol
DOCKED: USER    (3) Torsional Free Energy           =   +2.39 kcal/mol
DOCKED: USER    (4) Unbound System's Energy  [=(2)] =   -1.44 kcal/mol
DOCKED: USER    
DOCKED: USER    
DOCKED: USER    NEWDPF move ligand.pdbqt
DOCKED: USER    NEWDPF about 0.698000 0.076000 -0.072000
DOCKED: USER    NEWDPF tran0 21.085410 -9.344800 -2.502798
DOCKED: USER    NEWDPF quaternion0 0.699647 0.322939 -0.439126 -0.461922
DOCKED: USER    NEWDPF axisangle0 0.788850 0.364113 -0.495113 -124.977604
DOCKED: USER    NEWDPF quat0 0.788850 0.364113 -0.495113 -124.977604
DOCKED: USER    NEWDPF dihe0 27.87 -124.63 -179.66 -152.18 32.66 114.97 177.93 24.81 
DOCKED: USER  keepresnum = 1 
DOCKED: USER  
DOCKED: REMARK  Name = 
DOCKED: REMARK  9 active torsions:
DOCKED: REMARK  status: ('A' for Active; 'I' for Inactive)
DOCKED: REMARK    1  A    between atoms: C_2  and  C_3
DOCKED: REMARK    2  A    between atoms: C_4  and  C_5
DOCKED: REMARK    3  A    between atoms: C_8  and  C_9
DOCKED: REMARK    4  A    between atoms: C_9  and  N_10
DOCKED: REMARK    5  A    between atoms: N_10  and  C_11
DOCKED: REMARK    6  A    between atoms: C_11  and  C_12
DOCKED: REMARK    7  A    between atoms: C_12  and  C_13
DOCKED: REMARK    8  A    between atoms: C_14  and  C_22
DOCKED: REMARK    9  A    between atoms: N_25  and  O_26
DOCKED: REMARK                            x       y       z     vdW  Elec       q    Type
DOCKED: REMARK                         _______ _______ _______ _____ _____    ______ ____
DOCKED: USER                              x       y       z     vdW  Elec       q    Type
DOCKED: USER                           _______ _______ _______ _____ _____    ______ ____
DOCKED: ROOT
DOCKED: ATOM      1  N   UNL     1      21.250  -9.388  -1.347 -0.58 -0.00    +0.000 N 
DOCKED: ATOM      2  H   UNL     1      21.411  -8.381  -1.305 -0.05 -0.00    +0.000 HD
DOCKED: ATOM      3  H   UNL     1      22.106  -9.890  -1.578 -0.04 -0.00    +0.000 HD
DOCKED: ENDROOT
DOCKED: BRANCH   1   4
DOCKED: ATOM      4  C   UNL     1      20.266  -9.665  -2.402 -0.47 -0.00    +0.000 C 
DOCKED: BRANCH   4   8
DOCKED: ATOM      5  C   UNL     1      22.248 -10.603  -6.131 -0.35 -0.00    +0.000 A 
DOCKED: ATOM      6  C   UNL     1      21.731  -9.313  -5.898 -0.26 -0.00    +0.000 A 
DOCKED: ATOM      7  C   UNL     1      21.096  -9.012  -4.689 -0.29 -0.00    +0.000 A 
DOCKED: ATOM      8  C   UNL     1      20.984  -9.983  -3.684 -0.43 -0.00    +0.000 A 
DOCKED: ATOM      9  C   UNL     1      21.500 -11.268  -3.910 -0.12 -0.00    +0.000 A 
DOCKED: ATOM     10  C   UNL     1      22.136 -11.569  -5.118 -0.42 -0.00    +0.000 A 
DOCKED: BRANCH   5  12
DOCKED: ATOM     11  C   UNL     1      23.801 -11.997  -7.493 -0.52 -0.00    +0.000 C 
DOCKED: ATOM     12  C   UNL     1      22.942 -10.973  -7.390 -0.41 -0.00    +0.000 C 
DOCKED: BRANCH  11  14
DOCKED: ATOM     13  O   UNL     1      25.403 -11.602  -9.172 -0.39 -0.00    +0.000 OA
DOCKED: ATOM     14  C   UNL     1      24.492 -12.360  -8.748 -0.46 -0.00    +0.000 C 
DOCKED: ATOM     15  N   UNL     1      24.142 -13.526  -9.508 -0.37 -0.00    +0.000 N 
DOCKED: ATOM     16  H   UNL     1      23.368 -14.073  -9.240 -0.04 -0.00    +0.000 HD
DOCKED: BRANCH  15  17
DOCKED: ATOM     17  O   UNL     1      24.872 -13.874 -10.594 -0.39 -0.00    +0.000 OA
DOCKED: ATOM     18  H   UNL     1      25.783 -13.558 -10.487 -0.52 -0.00    +0.000 HD
DOCKED: ENDBRANCH  15  17
DOCKED: ENDBRANCH  11  14
DOCKED: ENDBRANCH   5  12
DOCKED: ENDBRANCH   4   8
DOCKED: ENDBRANCH   1   4
DOCKED: BRANCH   1  19
DOCKED: ATOM     19  C   UNL     1      20.795  -9.851  -0.027 -0.66 -0.00    +0.000 C 
DOCKED: BRANCH  19  20
DOCKED: ATOM     20  C   UNL     1      20.036 -11.186  -0.104 -0.58 -0.00    +0.000 C 
DOCKED: BRANCH  20  21
DOCKED: ATOM     21  C   UNL     1      18.909 -11.203   0.889 -0.51 -0.00    +0.000 A 
DOCKED: ATOM     22  C   UNL     1      18.997 -11.083   2.278 -0.56 -0.00    +0.000 A 
DOCKED: ATOM     23  N   UNL     1      17.776 -11.212   2.847 -0.45 +0.00    +0.000 N 
DOCKED: ATOM     24  C   UNL     1      16.921 -11.436   1.835 -0.38 +0.00    +0.000 A 
DOCKED: ATOM     25  C   UNL     1      17.574 -11.444   0.628 -0.42 -0.00    +0.000 A 
DOCKED: ATOM     26  C   UNL     1      16.900 -11.684  -0.571 -0.34 +0.00    +0.000 A 
DOCKED: ATOM     27  C   UNL     1      15.513 -11.910  -0.510 -0.39 +0.00    +0.000 A 
DOCKED: ATOM     28  C   UNL     1      14.839 -11.896   0.732 -0.41 +0.00    +0.000 A 
DOCKED: ATOM     29  C   UNL     1      15.547 -11.657   1.924 -0.42 +0.00    +0.000 A 
DOCKED: ATOM     30  C   UNL     1      20.247 -10.817   3.054 -0.73 -0.00    +0.000 C 
DOCKED: ATOM     31  H   UNL     1      17.559 -11.153   3.806 -0.03 +0.00    +0.000 HD
DOCKED: ENDBRANCH  20  21
DOCKED: ENDBRANCH  19  20
DOCKED: ENDBRANCH   1  19
DOCKED: TORSDOF 8
DOCKED: TER
DOCKED: ENDMDL
________________________________________________________________________________


	BEGINNING GENETIC ALGORITHM DOCKING 11 of 100
Run: 11 Seed: 917001600 1624598597 [ Run 11 of 100 GA/GALS ]
Beginning LAMARCKIAN GENETIC ALGORITHM (LGA), with a maximum of 2500000 energy evaluations.

Final-Value: -13.496


	FINAL GENETIC ALGORITHM DOCKED STATE
	_______________________________________________


Detailed state:  trans 20.338 -7.219 -4.989 quatxyzw -0.400503 0.855447 -0.165350 -0.283669 center 0.698 0.076 -0.072 ntor 8 28.0902 151.9025 -128.3578 -39.3960 52.4072 45.2937 39.5578 -74.2486
State:	 20.338  -7.219  -4.989  -0.418  0.892 -0.172 -147.041     28.09  151.90 -128.36  -39.40   52.41   45.29   39.56  -74.25

DOCKED: MODEL       11
DOCKED: USER    Run = 11
DOCKED: USER    DPF = ligand_dock.biased.dpf
DOCKED: USER  
DOCKED: USER    Estimated Free Energy of Binding    =   -9.41 kcal/mol  [=(1)+(2)+(3)-(4)]
DOCKED: USER    Estimated Inhibition Constant, Ki   =  127.34 nM (nanomolar)  [Temperature = 298.15 K]
DOCKED: USER    
DOCKED: USER    (1) Final Intermolecular Energy     =  -11.79 kcal/mol
DOCKED: USER        vdW + Hbond + desolv Energy     =  -11.79 kcal/mol
DOCKED: USER        Electrostatic Energy            =   +0.00 kcal/mol
DOCKED: USER    (2) Final Total Internal Energy     =   -1.70 kcal/mol
DOCKED: USER    (3) Torsional Free Energy           =   +2.39 kcal/mol
DOCKED: USER    (4) Unbound System's Energy  [=(2)] =   -1.70 kcal/mol
DOCKED: USER    
DOCKED: USER    
DOCKED: USER    NEWDPF move ligand.pdbqt
DOCKED: USER    NEWDPF about 0.698000 0.076000 -0.072000
DOCKED: USER    NEWDPF tran0 20.337781 -7.218687 -4.989237
DOCKED: USER    NEWDPF quaternion0 -0.400503 0.855447 -0.165350 -0.283669
DOCKED: USER    NEWDPF axisangle0 -0.417659 0.892092 -0.172434 -147.041447
DOCKED: USER    NEWDPF quat0 -0.417659 0.892092 -0.172434 -147.041447
DOCKED: USER    NEWDPF dihe0 28.09 151.90 -128.36 -39.40 52.41 45.29 39.56 -74.25 
DOCKED: USER  keepresnum = 1 
DOCKED: USER  
DOCKED: REMARK  Name = 
DOCKED: REMARK  9 active torsions:
DOCKED: REMARK  status: ('A' for Active; 'I' for Inactive)
DOCKED: REMARK    1  A    between atoms: C_2  and  C_3
DOCKED: REMARK    2  A    between atoms: C_4  and  C_5
DOCKED: REMARK    3  A    between atoms: C_8  and  C_9
DOCKED: REMARK    4  A    between atoms: C_9  and  N_10
DOCKED: REMARK    5  A    between atoms: N_10  and  C_11
DOCKED: REMARK    6  A    between atoms: C_11  and  C_12
DOCKED: REMARK    7  A    between atoms: C_12  and  C_13
DOCKED: REMARK    8  A    between atoms: C_14  and  C_22
DOCKED: REMARK    9  A    between atoms: N_25  and  O_26
DOCKED: REMARK                            x       y       z     vdW  Elec       q    Type
DOCKED: REMARK                         _______ _______ _______ _____ _____    ______ ____
DOCKED: USER                              x       y       z     vdW  Elec       q    Type
DOCKED: USER                           _______ _______ _______ _____ _____    ______ ____
DOCKED: ROOT
DOCKED: ATOM      1  N   UNL     1      20.369  -6.075  -4.754 -0.14 -0.00    +0.000 N 
DOCKED: ATOM      2  H   UNL     1      19.843  -6.210  -3.890 -0.01 -0.00    +0.000 HD
DOCKED: ATOM      3  H   UNL     1      19.746  -5.984  -5.557 +0.00 -0.00    +0.000 HD
DOCKED: ENDROOT
DOCKED: BRANCH   1   4
DOCKED: ATOM      4  C   UNL     1      21.222  -7.250  -4.976 -0.22 -0.00    +0.000 C 
DOCKED: BRANCH   4   8
DOCKED: ATOM      5  C   UNL     1      20.824  -9.890  -1.573 -0.54 -0.00    +0.000 A 
DOCKED: ATOM      6  C   UNL     1      20.519 -10.343  -2.872 -0.46 -0.00    +0.000 A 
DOCKED: ATOM      7  C   UNL     1      20.654  -9.488  -3.970 -0.36 -0.00    +0.000 A 
DOCKED: ATOM      8  C   UNL     1      21.116  -8.176  -3.797 -0.33 -0.00    +0.000 A 
DOCKED: ATOM      9  C   UNL     1      21.424  -7.721  -2.506 -0.40 -0.00    +0.000 A 
DOCKED: ATOM     10  C   UNL     1      21.290  -8.575  -1.408 -0.46 -0.00    +0.000 A 
DOCKED: BRANCH   5  12
DOCKED: ATOM     11  C   UNL     1      20.440 -10.296   0.856 -0.63 -0.00    +0.000 C 
DOCKED: ATOM     12  C   UNL     1      20.710 -10.758  -0.375 -0.64 -0.00    +0.000 C 
DOCKED: BRANCH  11  14
DOCKED: ATOM     13  O   UNL     1      20.268 -12.410   1.877 -1.67 -0.00    +0.000 OA
DOCKED: ATOM     14  C   UNL     1      20.330 -11.164   2.047 -0.75 -0.00    +0.000 C 
DOCKED: ATOM     15  N   UNL     1      20.266 -10.636   3.379 -0.70 -0.00    +0.000 N 
DOCKED: ATOM     16  H   UNL     1      20.215  -9.663   3.519 -0.52 -0.00    +0.000 HD
DOCKED: BRANCH  15  17
DOCKED: ATOM     17  O   UNL     1      20.272 -11.474   4.444 -0.72 -0.00    +0.000 OA
DOCKED: ATOM     18  H   UNL     1      20.748 -12.286   4.214 -0.50 -0.00    +0.000 HD
DOCKED: ENDBRANCH  15  17
DOCKED: ENDBRANCH  11  14
DOCKED: ENDBRANCH   5  12
DOCKED: ENDBRANCH   4   8
DOCKED: ENDBRANCH   1   4
DOCKED: BRANCH   1  19
DOCKED: ATOM     19  C   UNL     1      21.149  -4.833  -4.644 -0.14 -0.00    +0.000 C 
DOCKED: BRANCH  19  20
DOCKED: ATOM     20  C   UNL     1      22.537  -5.065  -4.023 -0.20 -0.00    +0.000 C 
DOCKED: BRANCH  20  21
DOCKED: ATOM     21  C   UNL     1      22.718  -4.195  -2.812 -0.24 -0.00    +0.000 A 
DOCKED: ATOM     22  C   UNL     1      21.868  -4.083  -1.710 -0.34 +0.00    +0.000 A 
DOCKED: ATOM     23  N   UNL     1      22.326  -3.148  -0.846 -0.32 +0.00    +0.000 N 
DOCKED: ATOM     24  C   UNL     1      23.445  -2.652  -1.401 -0.26 -0.00    +0.000 A 
DOCKED: ATOM     25  C   UNL     1      23.713  -3.259  -2.602 -0.20 -0.00    +0.000 A 
DOCKED: ATOM     26  C   UNL     1      24.812  -2.894  -3.381 -0.12 -0.00    +0.000 A 
DOCKED: ATOM     27  C   UNL     1      25.655  -1.879  -2.893 -0.09 -0.00    +0.000 A 
DOCKED: ATOM     28  C   UNL     1      25.382  -1.257  -1.654 -0.15 -0.00    +0.000 A 
DOCKED: ATOM     29  C   UNL     1      24.263  -1.643  -0.893 -0.23 -0.00    +0.000 A 
DOCKED: ATOM     30  C   UNL     1      20.632  -4.891  -1.475 -0.44 -0.00    +0.000 C 
DOCKED: ATOM     31  H   UNL     1      21.922  -2.886   0.013 -0.03 +0.00    +0.000 HD
DOCKED: ENDBRANCH  20  21
DOCKED: ENDBRANCH  19  20
DOCKED: ENDBRANCH   1  19
DOCKED: TORSDOF 8
DOCKED: TER
DOCKED: ENDMDL
________________________________________________________________________________


	BEGINNING GENETIC ALGORITHM DOCKING 12 of 100
Run: 12 Seed: 1855631366 1854577067 [ Run 12 of 100 GA/GALS ]
Beginning LAMARCKIAN GENETIC ALGORITHM (LGA), with a maximum of 2500000 energy evaluations.

Final-Value: -14.442


	FINAL GENETIC ALGORITHM DOCKED STATE
	_______________________________________________


Detailed state:  trans 19.983 -9.873 -6.539 quatxyzw 0.444785 0.063933 0.893275 -0.011764 center 0.698 0.076 -0.072 ntor 8 29.8603 30.7446 -98.4020 169.5294 15.1802 170.0740 -23.6061 57.1175
State:	 19.983  -9.873  -6.539   0.445  0.064  0.893 -178.652     29.86   30.74  -98.40  169.53   15.18  170.07  -23.61   57.12

DOCKED: MODEL       12
DOCKED: USER    Run = 12
DOCKED: USER    DPF = ligand_dock.biased.dpf
DOCKED: USER  
DOCKED: USER    Estimated Free Energy of Binding    =  -10.42 kcal/mol  [=(1)+(2)+(3)-(4)]
DOCKED: USER    Estimated Inhibition Constant, Ki   =   23.02 nM (nanomolar)  [Temperature = 298.15 K]
DOCKED: USER    
DOCKED: USER    (1) Final Intermolecular Energy     =  -12.81 kcal/mol
DOCKED: USER        vdW + Hbond + desolv Energy     =  -12.81 kcal/mol
DOCKED: USER        Electrostatic Energy            =   +0.00 kcal/mol
DOCKED: USER    (2) Final Total Internal Energy     =   -1.64 kcal/mol
DOCKED: USER    (3) Torsional Free Energy           =   +2.39 kcal/mol
DOCKED: USER    (4) Unbound System's Energy  [=(2)] =   -1.64 kcal/mol
DOCKED: USER    
DOCKED: USER    
DOCKED: USER    NEWDPF move ligand.pdbqt
DOCKED: USER    NEWDPF about 0.698000 0.076000 -0.072000
DOCKED: USER    NEWDPF tran0 19.982932 -9.872674 -6.538802
DOCKED: USER    NEWDPF quaternion0 0.444785 0.063933 0.893275 -0.011764
DOCKED: USER    NEWDPF axisangle0 0.444816 0.063937 0.893337 -178.651933
DOCKED: USER    NEWDPF quat0 0.444816 0.063937 0.893337 -178.651933
DOCKED: USER    NEWDPF dihe0 29.86 30.74 -98.40 169.53 15.18 170.07 -23.61 57.12 
DOCKED: USER  keepresnum = 1 
DOCKED: USER  
DOCKED: REMARK  Name = 
DOCKED: REMARK  9 active torsions:
DOCKED: REMARK  status: ('A' for Active; 'I' for Inactive)
DOCKED: REMARK    1  A    between atoms: C_2  and  C_3
DOCKED: REMARK    2  A    between atoms: C_4  and  C_5
DOCKED: REMARK    3  A    between atoms: C_8  and  C_9
DOCKED: REMARK    4  A    between atoms: C_9  and  N_10
DOCKED: REMARK    5  A    between atoms: N_10  and  C_11
DOCKED: REMARK    6  A    between atoms: C_11  and  C_12
DOCKED: REMARK    7  A    between atoms: C_12  and  C_13
DOCKED: REMARK    8  A    between atoms: C_14  and  C_22
DOCKED: REMARK    9  A    between atoms: N_25  and  O_26
DOCKED: REMARK                            x       y       z     vdW  Elec       q    Type
DOCKED: REMARK                         _______ _______ _______ _____ _____    ______ ____
DOCKED: USER                              x       y       z     vdW  Elec       q    Type
DOCKED: USER                           _______ _______ _______ _____ _____    ______ ____
DOCKED: ROOT
DOCKED: ATOM      1  N   UNL     1      20.419 -10.545  -7.389 -0.27 -0.00    +0.000 N 
DOCKED: ATOM      2  H   UNL     1      19.575 -10.430  -7.951 -0.01 -0.00    +0.000 HD
DOCKED: ATOM      3  H   UNL     1      20.317 -11.305  -6.717 -0.17 -0.00    +0.000 HD
DOCKED: ENDROOT
DOCKED: BRANCH   1   4
DOCKED: ATOM      4  C   UNL     1      20.657  -9.307  -6.635 -0.20 -0.00    +0.000 C 
DOCKED: BRANCH   4   8
DOCKED: ATOM      5  C   UNL     1      20.996 -10.312  -2.441 -0.50 -0.00    +0.000 A 
DOCKED: ATOM      6  C   UNL     1      21.877 -10.873  -3.387 -0.18 -0.00    +0.000 A 
DOCKED: ATOM      7  C   UNL     1      21.768 -10.541  -4.741 -0.42 -0.00    +0.000 A 
DOCKED: ATOM      8  C   UNL     1      20.794  -9.630  -5.173 -0.29 -0.00    +0.000 A 
DOCKED: ATOM      9  C   UNL     1      19.916  -9.066  -4.235 -0.26 -0.00    +0.000 A 
DOCKED: ATOM     10  C   UNL     1      20.026  -9.396  -2.881 -0.33 -0.00    +0.000 A 
DOCKED: BRANCH   5  12
DOCKED: ATOM     11  C   UNL     1      20.068 -11.158  -0.289 -0.54 -0.00    +0.000 C 
DOCKED: ATOM     12  C   UNL     1      21.075 -10.619  -0.991 -0.62 -0.00    +0.000 C 
DOCKED: BRANCH  11  14
DOCKED: ATOM     13  O   UNL     1      19.750 -12.585   1.556 -1.56 -0.00    +0.000 OA
DOCKED: ATOM     14  C   UNL     1      20.150 -11.460   1.156 -0.73 -0.00    +0.000 C 
DOCKED: ATOM     15  N   UNL     1      20.643 -10.512   2.112 -0.59 -0.00    +0.000 N 
DOCKED: ATOM     16  H   UNL     1      20.868  -9.597   1.826 -0.52 -0.00    +0.000 HD
DOCKED: BRANCH  15  17
DOCKED: ATOM     17  O   UNL     1      20.799 -10.872   3.409 -0.76 -0.00    +0.000 OA
DOCKED: ATOM     18  H   UNL     1      21.001 -11.819   3.460 -0.56 -0.00    +0.000 HD
DOCKED: ENDBRANCH  15  17
DOCKED: ENDBRANCH  11  14
DOCKED: ENDBRANCH   5  12
DOCKED: ENDBRANCH   4   8
DOCKED: ENDBRANCH   1   4
DOCKED: BRANCH   1  19
DOCKED: ATOM     19  C   UNL     1      21.541 -10.876  -8.281 -0.27 -0.00    +0.000 C 
DOCKED: BRANCH  19  20
DOCKED: ATOM     20  C   UNL     1      22.558 -11.822  -7.618 -0.22 -0.00    +0.000 C 
DOCKED: BRANCH  20  21
DOCKED: ATOM     21  C   UNL     1      23.871 -11.766  -8.344 -0.40 -0.00    +0.000 A 
DOCKED: ATOM     22  C   UNL     1      24.352 -12.659  -9.304 -0.37 -0.00    +0.000 A 
DOCKED: ATOM     23  N   UNL     1      25.606 -12.323  -9.684 -0.31 -0.00    +0.000 N 
DOCKED: ATOM     24  C   UNL     1      25.932 -11.240  -8.959 -0.35 -0.00    +0.000 A 
DOCKED: ATOM     25  C   UNL     1      24.905 -10.874  -8.126 -0.35 -0.00    +0.000 A 
DOCKED: ATOM     26  C   UNL     1      25.016  -9.791  -7.253 -0.20 -0.00    +0.000 A 
DOCKED: ATOM     27  C   UNL     1      26.223  -9.068  -7.255 -0.32 -0.00    +0.000 A 
DOCKED: ATOM     28  C   UNL     1      27.279  -9.441  -8.116 -0.31 -0.00    +0.000 A 
DOCKED: ATOM     29  C   UNL     1      27.139 -10.541  -8.981 -0.33 -0.00    +0.000 A 
DOCKED: ATOM     30  C   UNL     1      23.597 -13.818  -9.873 -0.42 -0.00    +0.000 C 
DOCKED: ATOM     31  H   UNL     1      26.164 -12.778 -10.356 -0.47 -0.00    +0.000 HD
DOCKED: ENDBRANCH  20  21
DOCKED: ENDBRANCH  19  20
DOCKED: ENDBRANCH   1  19
DOCKED: TORSDOF 8
DOCKED: TER
DOCKED: ENDMDL
________________________________________________________________________________


	BEGINNING GENETIC ALGORITHM DOCKING 13 of 100
Run: 13 Seed: 38960164 1880536046 [ Run 13 of 100 GA/GALS ]
Beginning LAMARCKIAN GENETIC ALGORITHM (LGA), with a maximum of 2500000 energy evaluations.

Final-Value: -13.810


	FINAL GENETIC ALGORITHM DOCKED STATE
	_______________________________________________


Detailed state:  trans 13.133 -10.592 -1.338 quatxyzw -0.033552 -0.379652 -0.923564 0.042050 center 0.698 0.076 -0.072 ntor 8 -2.5493 161.0064 -177.8611 5.4497 45.9765 -142.8839 -143.8129 104.5023
State:	 13.133 -10.592  -1.338  -0.034 -0.380 -0.924 175.180     -2.55  161.01 -177.86    5.45   45.98 -142.88 -143.81  104.50

DOCKED: MODEL       13
DOCKED: USER    Run = 13
DOCKED: USER    DPF = ligand_dock.biased.dpf
DOCKED: USER  
DOCKED: USER    Estimated Free Energy of Binding    =   -8.97 kcal/mol  [=(1)+(2)+(3)-(4)]
DOCKED: USER    Estimated Inhibition Constant, Ki   =  264.61 nM (nanomolar)  [Temperature = 298.15 K]
DOCKED: USER    
DOCKED: USER    (1) Final Intermolecular Energy     =  -11.36 kcal/mol
DOCKED: USER        vdW + Hbond + desolv Energy     =  -11.36 kcal/mol
DOCKED: USER        Electrostatic Energy            =   +0.00 kcal/mol
DOCKED: USER    (2) Final Total Internal Energy     =   -2.45 kcal/mol
DOCKED: USER    (3) Torsional Free Energy           =   +2.39 kcal/mol
DOCKED: USER    (4) Unbound System's Energy  [=(2)] =   -2.45 kcal/mol
DOCKED: USER    
DOCKED: USER    
DOCKED: USER    NEWDPF move ligand.pdbqt
DOCKED: USER    NEWDPF about 0.698000 0.076000 -0.072000
DOCKED: USER    NEWDPF tran0 13.132631 -10.592470 -1.338472
DOCKED: USER    NEWDPF quaternion0 -0.033552 -0.379652 -0.923564 0.042050
DOCKED: USER    NEWDPF axisangle0 -0.033582 -0.379988 -0.924381 175.179970
DOCKED: USER    NEWDPF quat0 -0.033582 -0.379988 -0.924381 175.179970
DOCKED: USER    NEWDPF dihe0 -2.55 161.01 -177.86 5.45 45.98 -142.88 -143.81 104.50 
DOCKED: USER  keepresnum = 1 
DOCKED: USER  
DOCKED: REMARK  Name = 
DOCKED: REMARK  9 active torsions:
DOCKED: REMARK  status: ('A' for Active; 'I' for Inactive)
DOCKED: REMARK    1  A    between atoms: C_2  and  C_3
DOCKED: REMARK    2  A    between atoms: C_4  and  C_5
DOCKED: REMARK    3  A    between atoms: C_8  and  C_9
DOCKED: REMARK    4  A    between atoms: C_9  and  N_10
DOCKED: REMARK    5  A    between atoms: N_10  and  C_11
DOCKED: REMARK    6  A    between atoms: C_11  and  C_12
DOCKED: REMARK    7  A    between atoms: C_12  and  C_13
DOCKED: REMARK    8  A    between atoms: C_14  and  C_22
DOCKED: REMARK    9  A    between atoms: N_25  and  O_26
DOCKED: REMARK                            x       y       z     vdW  Elec       q    Type
DOCKED: REMARK                         _______ _______ _______ _____ _____    ______ ____
DOCKED: USER                              x       y       z     vdW  Elec       q    Type
DOCKED: USER                           _______ _______ _______ _____ _____    ______ ____
DOCKED: ROOT
DOCKED: ATOM      1  N   UNL     1      14.065 -11.262  -1.125 -0.33 +0.00    +0.000 N 
DOCKED: ATOM      2  H   UNL     1      13.910 -11.798  -1.980 -0.03 -0.00    +0.000 HD
DOCKED: ATOM      3  H   UNL     1      13.512 -11.630  -0.352 -0.02 +0.00    +0.000 HD
DOCKED: ENDROOT
DOCKED: BRANCH   1   4
DOCKED: ATOM      4  C   UNL     1      13.648  -9.873  -1.357 -0.24 -0.00    +0.000 C 
DOCKED: BRANCH   4   8
DOCKED: ATOM      5  C   UNL     1      13.792  -7.613   2.329 -0.19 +0.00    +0.000 A 
DOCKED: ATOM      6  C   UNL     1      12.947  -8.735   2.208 -0.15 +0.00    +0.000 A 
DOCKED: ATOM      7  C   UNL     1      12.908  -9.466   1.017 -0.15 +0.00    +0.000 A 
DOCKED: ATOM      8  C   UNL     1      13.723  -9.107  -0.066 -0.17 +0.00    +0.000 A 
DOCKED: ATOM      9  C   UNL     1      14.568  -7.993   0.051 -0.21 -0.00    +0.000 A 
DOCKED: ATOM     10  C   UNL     1      14.610  -7.262   1.242 -0.19 -0.00    +0.000 A 
DOCKED: BRANCH   5  12
DOCKED: ATOM     11  C   UNL     1      14.920  -6.013   3.871 -0.36 +0.00    +0.000 C 
DOCKED: ATOM     12  C   UNL     1      13.882  -6.809   3.573 -0.25 +0.00    +0.000 C 
DOCKED: BRANCH  11  14
DOCKED: ATOM     13  O   UNL     1      14.034  -5.243   5.911 -0.98 +0.00    +0.000 OA
DOCKED: ATOM     14  C   UNL     1      15.007  -5.216   5.113 -0.49 +0.00    +0.000 C 
DOCKED: ATOM     15  N   UNL     1      16.144  -4.398   5.423 -0.51 -0.00    +0.000 N 
DOCKED: ATOM     16  H   UNL     1      16.867  -4.293   4.764 -0.45 -0.00    +0.000 HD
DOCKED: BRANCH  15  17
DOCKED: ATOM     17  O   UNL     1      16.224  -3.770   6.621 -0.69 +0.00    +0.000 OA
DOCKED: ATOM     18  H   UNL     1      15.418  -3.945   7.132 -0.05 +0.00    +0.000 HD
DOCKED: ENDBRANCH  15  17
DOCKED: ENDBRANCH  11  14
DOCKED: ENDBRANCH   5  12
DOCKED: ENDBRANCH   4   8
DOCKED: ENDBRANCH   1   4
DOCKED: BRANCH   1  19
DOCKED: ATOM     19  C   UNL     1      15.485 -11.362  -0.754 -0.37 +0.00    +0.000 C 
DOCKED: BRANCH  19  20
DOCKED: ATOM     20  C   UNL     1      15.732 -12.407   0.347 -0.52 +0.00    +0.000 C 
DOCKED: BRANCH  20  21
DOCKED: ATOM     21  C   UNL     1      16.559 -11.816   1.452 -0.40 +0.00    +0.000 A 
DOCKED: ATOM     22  C   UNL     1      16.108 -11.276   2.658 -0.43 +0.00    +0.000 A 
DOCKED: ATOM     23  N   UNL     1      17.142 -10.776   3.375 -0.47 +0.00    +0.000 N 
DOCKED: ATOM     24  C   UNL     1      18.239 -10.973   2.624 -0.48 -0.00    +0.000 A 
DOCKED: ATOM     25  C   UNL     1      17.924 -11.597   1.442 -0.46 -0.00    +0.000 A 
DOCKED: ATOM     26  C   UNL     1      18.895 -11.885   0.483 -0.53 -0.00    +0.000 A 
DOCKED: ATOM     27  C   UNL     1      20.225 -11.522   0.765 -0.60 -0.00    +0.000 A 
DOCKED: ATOM     28  C   UNL     1      20.550 -10.885   1.983 -0.59 -0.00    +0.000 A 
DOCKED: ATOM     29  C   UNL     1      19.548 -10.602   2.929 -0.61 -0.00    +0.000 A 
DOCKED: ATOM     30  C   UNL     1      14.690 -11.267   3.134 -0.47 +0.00    +0.000 C 
DOCKED: ATOM     31  H   UNL     1      17.098 -10.355   4.264 +0.01 +0.00    +0.000 HD
DOCKED: ENDBRANCH  20  21
DOCKED: ENDBRANCH  19  20
DOCKED: ENDBRANCH   1  19
DOCKED: TORSDOF 8
DOCKED: TER
DOCKED: ENDMDL
________________________________________________________________________________


	BEGINNING GENETIC ALGORITHM DOCKING 14 of 100
Run: 14 Seed: 66364283 668574244 [ Run 14 of 100 GA/GALS ]
Beginning LAMARCKIAN GENETIC ALGORITHM (LGA), with a maximum of 2500000 energy evaluations.

Final-Value: -14.135


	FINAL GENETIC ALGORITHM DOCKED STATE
	_______________________________________________


Detailed state:  trans 21.109 -7.924 -6.272 quatxyzw 0.155431 -0.225110 -0.329395 0.903696 center 0.698 0.076 -0.072 ntor 8 19.8328 19.2796 140.6787 2.3680 14.3271 -11.5360 -161.8845 164.1896
State:	 21.109  -7.924  -6.272   0.363 -0.526 -0.769 50.704     19.83   19.28  140.68    2.37   14.33  -11.54 -161.88  164.19

DOCKED: MODEL       14
DOCKED: USER    Run = 14
DOCKED: USER    DPF = ligand_dock.biased.dpf
DOCKED: USER  
DOCKED: USER    Estimated Free Energy of Binding    =   -9.38 kcal/mol  [=(1)+(2)+(3)-(4)]
DOCKED: USER    Estimated Inhibition Constant, Ki   =  134.07 nM (nanomolar)  [Temperature = 298.15 K]
DOCKED: USER    
DOCKED: USER    (1) Final Intermolecular Energy     =  -11.76 kcal/mol
DOCKED: USER        vdW + Hbond + desolv Energy     =  -11.76 kcal/mol
DOCKED: USER        Electrostatic Energy            =   +0.00 kcal/mol
DOCKED: USER    (2) Final Total Internal Energy     =   -2.37 kcal/mol
DOCKED: USER    (3) Torsional Free Energy           =   +2.39 kcal/mol
DOCKED: USER    (4) Unbound System's Energy  [=(2)] =   -2.37 kcal/mol
DOCKED: USER    
DOCKED: USER    
DOCKED: USER    NEWDPF move ligand.pdbqt
DOCKED: USER    NEWDPF about 0.698000 0.076000 -0.072000
DOCKED: USER    NEWDPF tran0 21.109152 -7.924065 -6.271623
DOCKED: USER    NEWDPF quaternion0 0.155431 -0.225110 -0.329395 0.903696
DOCKED: USER    NEWDPF axisangle0 0.363007 -0.525743 -0.769298 50.703652
DOCKED: USER    NEWDPF quat0 0.363007 -0.525743 -0.769298 50.703652
DOCKED: USER    NEWDPF dihe0 19.83 19.28 140.68 2.37 14.33 -11.54 -161.88 164.19 
DOCKED: USER  keepresnum = 1 
DOCKED: USER  
DOCKED: REMARK  Name = 
DOCKED: REMARK  9 active torsions:
DOCKED: REMARK  status: ('A' for Active; 'I' for Inactive)
DOCKED: REMARK    1  A    between atoms: C_2  and  C_3
DOCKED: REMARK    2  A    between atoms: C_4  and  C_5
DOCKED: REMARK    3  A    between atoms: C_8  and  C_9
DOCKED: REMARK    4  A    between atoms: C_9  and  N_10
DOCKED: REMARK    5  A    between atoms: N_10  and  C_11
DOCKED: REMARK    6  A    between atoms: C_11  and  C_12
DOCKED: REMARK    7  A    between atoms: C_12  and  C_13
DOCKED: REMARK    8  A    between atoms: C_14  and  C_22
DOCKED: REMARK    9  A    between atoms: N_25  and  O_26
DOCKED: REMARK                            x       y       z     vdW  Elec       q    Type
DOCKED: REMARK                         _______ _______ _______ _____ _____    ______ ____
DOCKED: USER                              x       y       z     vdW  Elec       q    Type
DOCKED: USER                           _______ _______ _______ _____ _____    ______ ____
DOCKED: ROOT
DOCKED: ATOM      1  N   UNL     1      19.981  -8.119  -6.039 -0.11 -0.00    +0.000 N 
DOCKED: ATOM      2  H   UNL     1      19.871  -8.665  -6.893 +0.01 -0.00    +0.000 HD
DOCKED: ATOM      3  H   UNL     1      19.864  -7.122  -6.218 +0.00 -0.00    +0.000 HD
DOCKED: ENDROOT
DOCKED: BRANCH   1   4
DOCKED: ATOM      4  C   UNL     1      21.339  -8.327  -5.518 -0.24 -0.00    +0.000 C 
DOCKED: BRANCH   4   8
DOCKED: ATOM      5  C   UNL     1      21.212  -9.565  -1.375 -0.55 -0.00    +0.000 A 
DOCKED: ATOM      6  C   UNL     1      21.050  -8.209  -1.724 -0.42 -0.00    +0.000 A 
DOCKED: ATOM      7  C   UNL     1      21.086  -7.814  -3.064 -0.37 -0.00    +0.000 A 
DOCKED: ATOM      8  C   UNL     1      21.262  -8.763  -4.081 -0.33 -0.00    +0.000 A 
DOCKED: ATOM      9  C   UNL     1      21.421 -10.114  -3.739 -0.44 -0.00    +0.000 A 
DOCKED: ATOM     10  C   UNL     1      21.384 -10.511  -2.399 -0.49 -0.00    +0.000 A 
DOCKED: BRANCH   5  12
DOCKED: ATOM     11  C   UNL     1      20.256 -10.906   0.496 -0.68 -0.00    +0.000 C 
DOCKED: ATOM     12  C   UNL     1      21.170 -10.041   0.030 -0.69 -0.00    +0.000 C 
DOCKED: BRANCH  11  14
DOCKED: ATOM     13  O   UNL     1      19.865 -12.563   2.121 -1.61 -0.00    +0.000 OA
DOCKED: ATOM     14  C   UNL     1      20.217 -11.375   1.897 -0.76 -0.00    +0.000 C 
DOCKED: ATOM     15  N   UNL     1      20.539 -10.520   3.003 -0.64 -0.00    +0.000 N 
DOCKED: ATOM     16  H   UNL     1      20.722  -9.565   2.848 -0.58 -0.00    +0.000 HD
DOCKED: BRANCH  15  17
DOCKED: ATOM     17  O   UNL     1      20.591 -11.024   4.259 -0.70 -0.00    +0.000 OA
DOCKED: ATOM     18  H   UNL     1      20.702 -11.987   4.218 -0.50 -0.00    +0.000 HD
DOCKED: ENDBRANCH  15  17
DOCKED: ENDBRANCH  11  14
DOCKED: ENDBRANCH   5  12
DOCKED: ENDBRANCH   4   8
DOCKED: ENDBRANCH   1   4
DOCKED: BRANCH   1  19
DOCKED: ATOM     19  C   UNL     1      18.947  -8.531  -5.076 -0.19 -0.00    +0.000 C 
DOCKED: BRANCH  19  20
DOCKED: ATOM     20  C   UNL     1      18.571 -10.015  -5.218 -0.27 -0.00    +0.000 C 
DOCKED: BRANCH  20  21
DOCKED: ATOM     21  C   UNL     1      17.249 -10.283  -4.560 -0.22 -0.00    +0.000 A 
DOCKED: ATOM     22  C   UNL     1      15.986 -10.289  -5.157 -0.20 -0.00    +0.000 A 
DOCKED: ATOM     23  N   UNL     1      15.021 -10.504  -4.233 -0.23 -0.00    +0.000 N 
DOCKED: ATOM     24  C   UNL     1      15.658 -10.611  -3.054 -0.19 -0.00    +0.000 A 
DOCKED: ATOM     25  C   UNL     1      17.015 -10.475  -3.211 -0.10 -0.00    +0.000 A 
DOCKED: ATOM     26  C   UNL     1      17.888 -10.523  -2.124 -0.24 -0.00    +0.000 A 
DOCKED: ATOM     27  C   UNL     1      17.335 -10.726  -0.846 -0.28 -0.00    +0.000 A 
DOCKED: ATOM     28  C   UNL     1      15.940 -10.870  -0.685 -0.29 +0.00    +0.000 A 
DOCKED: ATOM     29  C   UNL     1      15.083 -10.812  -1.800 -0.28 -0.00    +0.000 A 
DOCKED: ATOM     30  C   UNL     1      15.710 -10.116  -6.617 -0.17 -0.00    +0.000 C 
DOCKED: ATOM     31  H   UNL     1      14.051 -10.569  -4.392 -0.01 -0.00    +0.000 HD
DOCKED: ENDBRANCH  20  21
DOCKED: ENDBRANCH  19  20
DOCKED: ENDBRANCH   1  19
DOCKED: TORSDOF 8
DOCKED: TER
DOCKED: ENDMDL
________________________________________________________________________________


	BEGINNING GENETIC ALGORITHM DOCKING 15 of 100
Run: 15 Seed: 1552733940 512605913 [ Run 15 of 100 GA/GALS ]
Beginning LAMARCKIAN GENETIC ALGORITHM (LGA), with a maximum of 2500000 energy evaluations.

Final-Value: -13.153


	FINAL GENETIC ALGORITHM DOCKED STATE
	_______________________________________________


Detailed state:  trans 18.361 -10.430 -2.844 quatxyzw 0.899371 -0.147457 -0.361943 -0.195921 center 0.698 0.076 -0.072 ntor 8 -18.6857 -85.7052 78.7317 26.8229 -97.6213 -142.2468 31.8782 -3.2190
State:	 18.361 -10.430  -2.844   0.917 -0.150 -0.369 -157.403    -18.69  -85.71   78.73   26.82  -97.62 -142.25   31.88   -3.22

DOCKED: MODEL       15
DOCKED: USER    Run = 15
DOCKED: USER    DPF = ligand_dock.biased.dpf
DOCKED: USER  
DOCKED: USER    Estimated Free Energy of Binding    =   -9.13 kcal/mol  [=(1)+(2)+(3)-(4)]
DOCKED: USER    Estimated Inhibition Constant, Ki   =  204.32 nM (nanomolar)  [Temperature = 298.15 K]
DOCKED: USER    
DOCKED: USER    (1) Final Intermolecular Energy     =  -11.51 kcal/mol
DOCKED: USER        vdW + Hbond + desolv Energy     =  -11.51 kcal/mol
DOCKED: USER        Electrostatic Energy            =   +0.00 kcal/mol
DOCKED: USER    (2) Final Total Internal Energy     =   -1.64 kcal/mol
DOCKED: USER    (3) Torsional Free Energy           =   +2.39 kcal/mol
DOCKED: USER    (4) Unbound System's Energy  [=(2)] =   -1.64 kcal/mol
DOCKED: USER    
DOCKED: USER    
DOCKED: USER    NEWDPF move ligand.pdbqt
DOCKED: USER    NEWDPF about 0.698000 0.076000 -0.072000
DOCKED: USER    NEWDPF tran0 18.361113 -10.430492 -2.843726
DOCKED: USER    NEWDPF quaternion0 0.899371 -0.147457 -0.361943 -0.195921
DOCKED: USER    NEWDPF axisangle0 0.917146 -0.150371 -0.369096 -157.402953
DOCKED: USER    NEWDPF quat0 0.917146 -0.150371 -0.369096 -157.402953
DOCKED: USER    NEWDPF dihe0 -18.69 -85.71 78.73 26.82 -97.62 -142.25 31.88 -3.22 
DOCKED: USER  keepresnum = 1 
DOCKED: USER  
DOCKED: REMARK  Name = 
DOCKED: REMARK  9 active torsions:
DOCKED: REMARK  status: ('A' for Active; 'I' for Inactive)
DOCKED: REMARK    1  A    between atoms: C_2  and  C_3
DOCKED: REMARK    2  A    between atoms: C_4  and  C_5
DOCKED: REMARK    3  A    between atoms: C_8  and  C_9
DOCKED: REMARK    4  A    between atoms: C_9  and  N_10
DOCKED: REMARK    5  A    between atoms: N_10  and  C_11
DOCKED: REMARK    6  A    between atoms: C_11  and  C_12
DOCKED: REMARK    7  A    between atoms: C_12  and  C_13
DOCKED: REMARK    8  A    between atoms: C_14  and  C_22
DOCKED: REMARK    9  A    between atoms: N_25  and  O_26
DOCKED: REMARK                            x       y       z     vdW  Elec       q    Type
DOCKED: REMARK                         _______ _______ _______ _____ _____    ______ ____
DOCKED: USER                              x       y       z     vdW  Elec       q    Type
DOCKED: USER                           _______ _______ _______ _____ _____    ______ ____
DOCKED: ROOT
DOCKED: ATOM      1  N   UNL     1      17.765 -10.478  -1.841 -0.29 -0.00    +0.000 N 
DOCKED: ATOM      2  H   UNL     1      18.547 -10.075  -1.324 -0.01 -0.00    +0.000 HD
DOCKED: ATOM      3  H   UNL     1      17.863 -11.488  -1.934 -0.00 -0.00    +0.000 HD
DOCKED: ENDROOT
DOCKED: BRANCH   1   4
DOCKED: ATOM      4  C   UNL     1      17.743  -9.901  -3.191 -0.23 -0.00    +0.000 C 
DOCKED: BRANCH   4   8
DOCKED: ATOM      5  C   UNL     1      21.274 -11.242  -5.300 -0.48 -0.00    +0.000 A 
DOCKED: ATOM      6  C   UNL     1      19.990 -11.645  -5.720 -0.22 -0.00    +0.000 A 
DOCKED: ATOM      7  C   UNL     1      18.851 -11.205  -5.040 -0.35 -0.00    +0.000 A 
DOCKED: ATOM      8  C   UNL     1      18.968 -10.340  -3.943 -0.31 -0.00    +0.000 A 
DOCKED: ATOM      9  C   UNL     1      20.243  -9.933  -3.522 -0.38 -0.00    +0.000 A 
DOCKED: ATOM     10  C   UNL     1      21.383 -10.371  -4.203 -0.44 -0.00    +0.000 A 
DOCKED: BRANCH   5  12
DOCKED: ATOM     11  C   UNL     1      22.744 -11.468  -7.300 -0.44 -0.00    +0.000 C 
DOCKED: ATOM     12  C   UNL     1      22.514 -11.669  -5.993 -0.50 -0.00    +0.000 C 
DOCKED: BRANCH  11  14
DOCKED: ATOM     13  O   UNL     1      23.908 -12.843  -8.814 -0.49 -0.00    +0.000 OA
DOCKED: ATOM     14  C   UNL     1      23.980 -11.897  -7.986 -0.50 -0.00    +0.000 C 
DOCKED: ATOM     15  N   UNL     1      25.254 -11.293  -7.723 -0.37 -0.00    +0.000 N 
DOCKED: ATOM     16  H   UNL     1      25.341 -10.620  -7.010 -0.04 -0.00    +0.000 HD
DOCKED: BRANCH  15  17
DOCKED: ATOM     17  O   UNL     1      26.339 -11.647  -8.453 -0.48 -0.00    +0.000 OA
DOCKED: ATOM     18  H   UNL     1      26.172 -12.497  -8.890 -0.31 -0.00    +0.000 HD
DOCKED: ENDBRANCH  15  17
DOCKED: ENDBRANCH  11  14
DOCKED: ENDBRANCH   5  12
DOCKED: ENDBRANCH   4   8
DOCKED: ENDBRANCH   1   4
DOCKED: BRANCH   1  19
DOCKED: ATOM     19  C   UNL     1      16.521 -10.211  -1.101 -0.22 -0.00    +0.000 C 
DOCKED: BRANCH  19  20
DOCKED: ATOM     20  C   UNL     1      16.069 -11.416  -0.259 -0.39 +0.00    +0.000 C 
DOCKED: BRANCH  20  21
DOCKED: ATOM     21  C   UNL     1      16.738 -11.392   1.086 -0.39 +0.00    +0.000 A 
DOCKED: ATOM     22  C   UNL     1      16.128 -11.298   2.338 -0.41 +0.00    +0.000 A 
DOCKED: ATOM     23  N   UNL     1      17.058 -11.237   3.320 -0.40 +0.00    +0.000 N 
DOCKED: ATOM     24  C   UNL     1      18.249 -11.268   2.699 -0.41 -0.00    +0.000 A 
DOCKED: ATOM     25  C   UNL     1      18.097 -11.355   1.338 -0.46 -0.00    +0.000 A 
DOCKED: ATOM     26  C   UNL     1      19.193 -11.376   0.476 -0.52 -0.00    +0.000 A 
DOCKED: ATOM     27  C   UNL     1      20.478 -11.313   1.045 -0.65 -0.00    +0.000 A 
DOCKED: ATOM     28  C   UNL     1      20.636 -11.228   2.447 -0.62 -0.00    +0.000 A 
DOCKED: ATOM     29  C   UNL     1      19.511 -11.204   3.291 -0.62 -0.00    +0.000 A 
DOCKED: ATOM     30  C   UNL     1      14.654 -11.295   2.593 -0.48 +0.00    +0.000 C 
DOCKED: ATOM     31  H   UNL     1      16.894 -11.182   4.289 -0.07 +0.00    +0.000 HD
DOCKED: ENDBRANCH  20  21
DOCKED: ENDBRANCH  19  20
DOCKED: ENDBRANCH   1  19
DOCKED: TORSDOF 8
DOCKED: TER
DOCKED: ENDMDL
________________________________________________________________________________


	BEGINNING GENETIC ALGORITHM DOCKING 16 of 100
Run: 16 Seed: 629222523 1030464295 [ Run 16 of 100 GA/GALS ]
Beginning LAMARCKIAN GENETIC ALGORITHM (LGA), with a maximum of 2500000 energy evaluations.

Final-Value: -13.867


	FINAL GENETIC ALGORITHM DOCKED STATE
	_______________________________________________


Detailed state:  trans 16.124 -9.083 3.485 quatxyzw 0.247618 0.697413 -0.350914 0.573725 center 0.698 0.076 -0.072 ntor 8 16.3235 153.8601 85.3651 24.9684 89.1782 4.0716 -73.0380 42.4547
State:	 16.124  -9.083   3.485   0.302  0.851 -0.428 109.979     16.32  153.86   85.37   24.97   89.18    4.07  -73.04   42.45

DOCKED: MODEL       16
DOCKED: USER    Run = 16
DOCKED: USER    DPF = ligand_dock.biased.dpf
DOCKED: USER  
DOCKED: USER    Estimated Free Energy of Binding    =  -10.07 kcal/mol  [=(1)+(2)+(3)-(4)]
DOCKED: USER    Estimated Inhibition Constant, Ki   =   41.68 nM (nanomolar)  [Temperature = 298.15 K]
DOCKED: USER    
DOCKED: USER    (1) Final Intermolecular Energy     =  -12.45 kcal/mol
DOCKED: USER        vdW + Hbond + desolv Energy     =  -12.45 kcal/mol
DOCKED: USER        Electrostatic Energy            =   +0.00 kcal/mol
DOCKED: USER    (2) Final Total Internal Energy     =   -1.41 kcal/mol
DOCKED: USER    (3) Torsional Free Energy           =   +2.39 kcal/mol
DOCKED: USER    (4) Unbound System's Energy  [=(2)] =   -1.41 kcal/mol
DOCKED: USER    
DOCKED: USER    
DOCKED: USER    NEWDPF move ligand.pdbqt
DOCKED: USER    NEWDPF about 0.698000 0.076000 -0.072000
DOCKED: USER    NEWDPF tran0 16.124127 -9.083146 3.485111
DOCKED: USER    NEWDPF quaternion0 0.247618 0.697413 -0.350914 0.573725
DOCKED: USER    NEWDPF axisangle0 0.302324 0.851492 -0.428441 109.979264
DOCKED: USER    NEWDPF quat0 0.302324 0.851492 -0.428441 109.979264
DOCKED: USER    NEWDPF dihe0 16.32 153.86 85.37 24.97 89.18 4.07 -73.04 42.45 
DOCKED: USER  keepresnum = 1 
DOCKED: USER  
DOCKED: REMARK  Name = 
DOCKED: REMARK  9 active torsions:
DOCKED: REMARK  status: ('A' for Active; 'I' for Inactive)
DOCKED: REMARK    1  A    between atoms: C_2  and  C_3
DOCKED: REMARK    2  A    between atoms: C_4  and  C_5
DOCKED: REMARK    3  A    between atoms: C_8  and  C_9
DOCKED: REMARK    4  A    between atoms: C_9  and  N_10
DOCKED: REMARK    5  A    between atoms: N_10  and  C_11
DOCKED: REMARK    6  A    between atoms: C_11  and  C_12
DOCKED: REMARK    7  A    between atoms: C_12  and  C_13
DOCKED: REMARK    8  A    between atoms: C_14  and  C_22
DOCKED: REMARK    9  A    between atoms: N_25  and  O_26
DOCKED: REMARK                            x       y       z     vdW  Elec       q    Type
DOCKED: REMARK                         _______ _______ _______ _____ _____    ______ ____
DOCKED: USER                              x       y       z     vdW  Elec       q    Type
DOCKED: USER                           _______ _______ _______ _____ _____    ______ ____
DOCKED: ROOT
DOCKED: ATOM      1  N   UNL     1      16.531  -9.413   2.441 -0.39 +0.00    +0.000 N 
DOCKED: ATOM      2  H   UNL     1      17.496  -9.289   2.747 -0.04 -0.00    +0.000 HD
DOCKED: ATOM      3  H   UNL     1      16.132  -8.536   2.108 -0.03 +0.00    +0.000 HD
DOCKED: ENDROOT
DOCKED: BRANCH   1   4
DOCKED: ATOM      4  C   UNL     1      15.728  -9.868   3.583 -0.47 +0.00    +0.000 C 
DOCKED: BRANCH   4   8
DOCKED: ATOM      5  C   UNL     1      13.039  -6.700   4.783 -0.25 +0.00    +0.000 A 
DOCKED: ATOM      6  C   UNL     1      13.773  -6.602   3.584 -0.20 +0.00    +0.000 A 
DOCKED: ATOM      7  C   UNL     1      14.636  -7.631   3.196 -0.28 +0.00    +0.000 A 
DOCKED: ATOM      8  C   UNL     1      14.769  -8.783   3.985 -0.34 +0.00    +0.000 A 
DOCKED: ATOM      9  C   UNL     1      14.038  -8.886   5.178 -0.42 +0.00    +0.000 A 
DOCKED: ATOM     10  C   UNL     1      13.172  -7.859   5.565 -0.35 +0.00    +0.000 A 
DOCKED: BRANCH   5  12
DOCKED: ATOM     11  C   UNL     1      10.999  -5.285   4.555 -0.21 +0.00    +0.000 C 
DOCKED: ATOM     12  C   UNL     1      12.099  -5.643   5.234 -0.27 +0.00    +0.000 C 
DOCKED: BRANCH  11  14
DOCKED: ATOM     13  O   UNL     1      10.204  -3.770   6.170 -1.00 +0.00    +0.000 OA
DOCKED: ATOM     14  C   UNL     1      10.067  -4.231   5.007 -0.35 +0.00    +0.000 C 
DOCKED: ATOM     15  N   UNL     1       9.004  -3.739   4.179 -0.29 +0.00    +0.000 N 
DOCKED: ATOM     16  H   UNL     1       8.827  -4.158   3.307 -0.00 +0.00    +0.000 HD
DOCKED: BRANCH  15  17
DOCKED: ATOM     17  O   UNL     1       8.243  -2.699   4.597 -0.52 +0.00    +0.000 OA
DOCKED: ATOM     18  H   UNL     1       8.690  -2.243   5.327 -0.47 +0.00    +0.000 HD
DOCKED: ENDBRANCH  15  17
DOCKED: ENDBRANCH  11  14
DOCKED: ENDBRANCH   5  12
DOCKED: ENDBRANCH   4   8
DOCKED: ENDBRANCH   1   4
DOCKED: BRANCH   1  19
DOCKED: ATOM     19  C   UNL     1      16.507 -10.373   1.326 -0.37 +0.00    +0.000 C 
DOCKED: BRANCH  19  20
DOCKED: ATOM     20  C   UNL     1      17.337 -11.634   1.620 -0.46 +0.00    +0.000 C 
DOCKED: BRANCH  20  21
DOCKED: ATOM     21  C   UNL     1      18.771 -11.415   1.231 -0.52 -0.00    +0.000 A 
DOCKED: ATOM     22  C   UNL     1      19.889 -11.414   2.068 -0.66 -0.00    +0.000 A 
DOCKED: ATOM     23  N   UNL     1      21.009 -11.114   1.369 -0.63 -0.00    +0.000 N 
DOCKED: ATOM     24  C   UNL     1      20.608 -10.904   0.104 -0.60 -0.00    +0.000 A 
DOCKED: ATOM     25  C   UNL     1      19.251 -11.071  -0.019 -0.49 -0.00    +0.000 A 
DOCKED: ATOM     26  C   UNL     1      18.595 -10.880  -1.235 -0.37 -0.00    +0.000 A 
DOCKED: ATOM     27  C   UNL     1      19.371 -10.516  -2.351 -0.38 -0.00    +0.000 A 
DOCKED: ATOM     28  C   UNL     1      20.768 -10.349  -2.225 -0.50 -0.00    +0.000 A 
DOCKED: ATOM     29  C   UNL     1      21.402 -10.543  -0.984 -0.59 -0.00    +0.000 A 
DOCKED: ATOM     30  C   UNL     1      19.885 -11.726   3.530 -0.72 -0.00    +0.000 C 
DOCKED: ATOM     31  H   UNL     1      21.929 -11.062   1.717 -0.28 -0.00    +0.000 HD
DOCKED: ENDBRANCH  20  21
DOCKED: ENDBRANCH  19  20
DOCKED: ENDBRANCH   1  19
DOCKED: TORSDOF 8
DOCKED: TER
DOCKED: ENDMDL
________________________________________________________________________________


	BEGINNING GENETIC ALGORITHM DOCKING 17 of 100
Run: 17 Seed: 516367577 1320888643 [ Run 17 of 100 GA/GALS ]
Beginning LAMARCKIAN GENETIC ALGORITHM (LGA), with a maximum of 2500000 energy evaluations.

Final-Value: -14.067


	FINAL GENETIC ALGORITHM DOCKED STATE
	_______________________________________________


Detailed state:  trans 20.727 -10.384 2.976 quatxyzw -0.568697 0.041970 -0.152533 0.807190 center 0.698 0.076 -0.072 ntor 8 -0.6249 180.0000 58.6804 9.2495 -18.1715 -63.1695 21.2504 -112.5811
State:	 20.727 -10.384   2.976  -0.963  0.071 -0.258 72.355     -0.62  180.00   58.68    9.25  -18.17  -63.17   21.25 -112.58

DOCKED: MODEL       17
DOCKED: USER    Run = 17
DOCKED: USER    DPF = ligand_dock.biased.dpf
DOCKED: USER  
DOCKED: USER    Estimated Free Energy of Binding    =   -9.73 kcal/mol  [=(1)+(2)+(3)-(4)]
DOCKED: USER    Estimated Inhibition Constant, Ki   =   73.86 nM (nanomolar)  [Temperature = 298.15 K]
DOCKED: USER    
DOCKED: USER    (1) Final Intermolecular Energy     =  -12.12 kcal/mol
DOCKED: USER        vdW + Hbond + desolv Energy     =  -12.12 kcal/mol
DOCKED: USER        Electrostatic Energy            =   +0.00 kcal/mol
DOCKED: USER    (2) Final Total Internal Energy     =   -1.95 kcal/mol
DOCKED: USER    (3) Torsional Free Energy           =   +2.39 kcal/mol
DOCKED: USER    (4) Unbound System's Energy  [=(2)] =   -1.95 kcal/mol
DOCKED: USER    
DOCKED: USER    
DOCKED: USER    NEWDPF move ligand.pdbqt
DOCKED: USER    NEWDPF about 0.698000 0.076000 -0.072000
DOCKED: USER    NEWDPF tran0 20.726743 -10.384427 2.976053
DOCKED: USER    NEWDPF quaternion0 -0.568697 0.041970 -0.152533 0.807190
DOCKED: USER    NEWDPF axisangle0 -0.963417 0.071101 -0.258402 72.355329
DOCKED: USER    NEWDPF quat0 -0.963417 0.071101 -0.258402 72.355329
DOCKED: USER    NEWDPF dihe0 -0.62 180.00 58.68 9.25 -18.17 -63.17 21.25 -112.58 
DOCKED: USER  keepresnum = 1 
DOCKED: USER  
DOCKED: REMARK  Name = 
DOCKED: REMARK  9 active torsions:
DOCKED: REMARK  status: ('A' for Active; 'I' for Inactive)
DOCKED: REMARK    1  A    between atoms: C_2  and  C_3
DOCKED: REMARK    2  A    between atoms: C_4  and  C_5
DOCKED: REMARK    3  A    between atoms: C_8  and  C_9
DOCKED: REMARK    4  A    between atoms: C_9  and  N_10
DOCKED: REMARK    5  A    between atoms: N_10  and  C_11
DOCKED: REMARK    6  A    between atoms: C_11  and  C_12
DOCKED: REMARK    7  A    between atoms: C_12  and  C_13
DOCKED: REMARK    8  A    between atoms: C_14  and  C_22
DOCKED: REMARK    9  A    between atoms: N_25  and  O_26
DOCKED: REMARK                            x       y       z     vdW  Elec       q    Type
DOCKED: REMARK                         _______ _______ _______ _____ _____    ______ ____
DOCKED: USER                              x       y       z     vdW  Elec       q    Type
DOCKED: USER                           _______ _______ _______ _____ _____    ______ ____
DOCKED: ROOT
DOCKED: ATOM      1  N   UNL     1      19.593 -10.191   3.179 -0.61 -0.00    +0.000 N 
DOCKED: ATOM      2  H   UNL     1      19.620  -9.316   2.655 -0.52 -0.00    +0.000 HD
DOCKED: ATOM      3  H   UNL     1      19.881 -10.053   4.147 -0.09 -0.00    +0.000 HD
DOCKED: ENDROOT
DOCKED: BRANCH   1   4
DOCKED: ATOM      4  C   UNL     1      20.528 -11.141   2.561 -0.71 -0.00    +0.000 C 
DOCKED: BRANCH   4   8
DOCKED: ATOM      5  C   UNL     1      20.072 -10.891  -1.733 -0.38 -0.00    +0.000 A 
DOCKED: ATOM      6  C   UNL     1      21.176 -10.294  -1.093 -0.59 -0.00    +0.000 A 
DOCKED: ATOM      7  C   UNL     1      21.324 -10.382   0.294 -0.55 -0.00    +0.000 A 
DOCKED: ATOM      8  C   UNL     1      20.386 -11.083   1.066 -0.64 -0.00    +0.000 A 
DOCKED: ATOM      9  C   UNL     1      19.286 -11.681   0.433 -0.54 -0.00    +0.000 A 
DOCKED: ATOM     10  C   UNL     1      19.139 -11.596  -0.954 -0.31 -0.00    +0.000 A 
DOCKED: BRANCH   5  12
DOCKED: ATOM     11  C   UNL     1      20.877 -10.896  -4.092 -0.52 -0.00    +0.000 C 
DOCKED: ATOM     12  C   UNL     1      19.874 -10.839  -3.203 -0.47 -0.00    +0.000 C 
DOCKED: BRANCH  11  14
DOCKED: ATOM     13  O   UNL     1      19.568 -10.433  -5.992 -0.30 -0.00    +0.000 OA
DOCKED: ATOM     14  C   UNL     1      20.675 -10.841  -5.555 -0.44 -0.00    +0.000 C 
DOCKED: ATOM     15  N   UNL     1      21.684 -11.259  -6.485 -0.38 -0.00    +0.000 N 
DOCKED: ATOM     16  H   UNL     1      22.516 -11.670  -6.156 -0.07 -0.00    +0.000 HD
DOCKED: BRANCH  15  17
DOCKED: ATOM     17  O   UNL     1      21.493 -11.091  -7.816 -0.32 -0.00    +0.000 OA
DOCKED: ATOM     18  H   UNL     1      20.626 -10.686  -7.970 -0.04 -0.00    +0.000 HD
DOCKED: ENDBRANCH  15  17
DOCKED: ENDBRANCH  11  14
DOCKED: ENDBRANCH   5  12
DOCKED: ENDBRANCH   4   8
DOCKED: ENDBRANCH   1   4
DOCKED: BRANCH   1  19
DOCKED: ATOM     19  C   UNL     1      18.211 -10.697   3.186 -0.44 -0.00    +0.000 C 
DOCKED: BRANCH  19  20
DOCKED: ATOM     20  C   UNL     1      17.183  -9.597   2.870 -0.43 +0.00    +0.000 C 
DOCKED: BRANCH  20  21
DOCKED: ATOM     21  C   UNL     1      15.849 -10.208   2.548 -0.37 +0.00    +0.000 A 
DOCKED: ATOM     22  C   UNL     1      14.738 -10.316   3.387 -0.39 +0.00    +0.000 A 
DOCKED: ATOM     23  N   UNL     1      13.738 -10.988   2.771 -0.37 +0.00    +0.000 N 
DOCKED: ATOM     24  C   UNL     1      14.213 -11.326   1.560 -0.38 +0.00    +0.000 A 
DOCKED: ATOM     25  C   UNL     1      15.498 -10.875   1.389 -0.32 +0.00    +0.000 A 
DOCKED: ATOM     26  C   UNL     1      16.215 -11.126   0.219 -0.33 +0.00    +0.000 A 
DOCKED: ATOM     27  C   UNL     1      15.576 -11.856  -0.799 -0.35 +0.00    +0.000 A 
DOCKED: ATOM     28  C   UNL     1      14.251 -12.316  -0.626 -0.37 +0.00    +0.000 A 
DOCKED: ATOM     29  C   UNL     1      13.555 -12.052   0.568 -0.39 +0.00    +0.000 A 
DOCKED: ATOM     30  C   UNL     1      14.628  -9.751   4.767 -0.46 +0.00    +0.000 C 
DOCKED: ATOM     31  H   UNL     1      12.845 -11.188   3.136 -0.03 +0.00    +0.000 HD
DOCKED: ENDBRANCH  20  21
DOCKED: ENDBRANCH  19  20
DOCKED: ENDBRANCH   1  19
DOCKED: TORSDOF 8
DOCKED: TER
DOCKED: ENDMDL
________________________________________________________________________________


	BEGINNING GENETIC ALGORITHM DOCKING 18 of 100
Run: 18 Seed: 974866645 1375732317 [ Run 18 of 100 GA/GALS ]
Beginning LAMARCKIAN GENETIC ALGORITHM (LGA), with a maximum of 2500000 energy evaluations.

Final-Value: -14.653


	FINAL GENETIC ALGORITHM DOCKED STATE
	_______________________________________________


Detailed state:  trans 20.427 -10.968 -6.082 quatxyzw -0.305109 -0.290031 -0.871450 -0.251727 center 0.698 0.076 -0.072 ntor 8 15.9460 -34.6478 -98.5219 149.3328 -14.1609 -122.7380 12.1492 54.6737
State:	 20.427 -10.968  -6.082  -0.315 -0.300 -0.900 -150.841     15.95  -34.65  -98.52  149.33  -14.16 -122.74   12.15   54.67

DOCKED: MODEL       18
DOCKED: USER    Run = 18
DOCKED: USER    DPF = ligand_dock.biased.dpf
DOCKED: USER  
DOCKED: USER    Estimated Free Energy of Binding    =  -10.80 kcal/mol  [=(1)+(2)+(3)-(4)]
DOCKED: USER    Estimated Inhibition Constant, Ki   =   12.18 nM (nanomolar)  [Temperature = 298.15 K]
DOCKED: USER    
DOCKED: USER    (1) Final Intermolecular Energy     =  -13.18 kcal/mol
DOCKED: USER        vdW + Hbond + desolv Energy     =  -13.18 kcal/mol
DOCKED: USER        Electrostatic Energy            =   +0.00 kcal/mol
DOCKED: USER    (2) Final Total Internal Energy     =   -1.47 kcal/mol
DOCKED: USER    (3) Torsional Free Energy           =   +2.39 kcal/mol
DOCKED: USER    (4) Unbound System's Energy  [=(2)] =   -1.47 kcal/mol
DOCKED: USER    
DOCKED: USER    
DOCKED: USER    NEWDPF move ligand.pdbqt
DOCKED: USER    NEWDPF about 0.698000 0.076000 -0.072000
DOCKED: USER    NEWDPF tran0 20.427142 -10.967522 -6.081646
DOCKED: USER    NEWDPF quaternion0 -0.305109 -0.290031 -0.871450 -0.251727
DOCKED: USER    NEWDPF axisangle0 -0.315261 -0.299681 -0.900445 -150.840556
DOCKED: USER    NEWDPF quat0 -0.315261 -0.299681 -0.900445 -150.840556
DOCKED: USER    NEWDPF dihe0 15.95 -34.65 -98.52 149.33 -14.16 -122.74 12.15 54.67 
DOCKED: USER  keepresnum = 1 
DOCKED: USER  
DOCKED: REMARK  Name = 
DOCKED: REMARK  9 active torsions:
DOCKED: REMARK  status: ('A' for Active; 'I' for Inactive)
DOCKED: REMARK    1  A    between atoms: C_2  and  C_3
DOCKED: REMARK    2  A    between atoms: C_4  and  C_5
DOCKED: REMARK    3  A    between atoms: C_8  and  C_9
DOCKED: REMARK    4  A    between atoms: C_9  and  N_10
DOCKED: REMARK    5  A    between atoms: N_10  and  C_11
DOCKED: REMARK    6  A    between atoms: C_11  and  C_12
DOCKED: REMARK    7  A    between atoms: C_12  and  C_13
DOCKED: REMARK    8  A    between atoms: C_14  and  C_22
DOCKED: REMARK    9  A    between atoms: N_25  and  O_26
DOCKED: REMARK                            x       y       z     vdW  Elec       q    Type
DOCKED: REMARK                         _______ _______ _______ _____ _____    ______ ____
DOCKED: USER                              x       y       z     vdW  Elec       q    Type
DOCKED: USER                           _______ _______ _______ _____ _____    ______ ____
DOCKED: ROOT
DOCKED: ATOM      1  N   UNL     1      21.374 -11.265  -6.698 -0.28 -0.00    +0.000 N 
DOCKED: ATOM      2  H   UNL     1      20.808 -11.789  -7.366 -0.36 -0.00    +0.000 HD
DOCKED: ATOM      3  H   UNL     1      21.612 -11.835  -5.887 -0.25 -0.00    +0.000 HD
DOCKED: ENDROOT
DOCKED: BRANCH   1   4
DOCKED: ATOM      4  C   UNL     1      20.598 -10.111  -6.225 -0.30 -0.00    +0.000 C 
DOCKED: BRANCH   4   8
DOCKED: ATOM      5  C   UNL     1      20.386 -10.303  -1.909 -0.48 -0.00    +0.000 A 
DOCKED: ATOM      6  C   UNL     1      21.384  -9.538  -2.545 -0.47 -0.00    +0.000 A 
DOCKED: ATOM      7  C   UNL     1      21.446  -9.474  -3.940 -0.37 -0.00    +0.000 A 
DOCKED: ATOM      8  C   UNL     1      20.503 -10.152  -4.726 -0.35 -0.00    +0.000 A 
DOCKED: ATOM      9  C   UNL     1      19.506 -10.913  -4.097 -0.40 -0.00    +0.000 A 
DOCKED: ATOM     10  C   UNL     1      19.442 -10.976  -2.702 -0.37 -0.00    +0.000 A 
DOCKED: BRANCH   5  12
DOCKED: ATOM     11  C   UNL     1      20.330 -11.550   0.248 -0.42 -0.00    +0.000 C 
DOCKED: ATOM     12  C   UNL     1      20.267 -10.396  -0.432 -0.62 -0.00    +0.000 C 
DOCKED: BRANCH  11  14
DOCKED: ATOM     13  O   UNL     1      19.927 -12.753   2.231 -1.44 -0.00    +0.000 OA
DOCKED: ATOM     14  C   UNL     1      20.209 -11.638   1.718 -0.77 -0.00    +0.000 C 
DOCKED: ATOM     15  N   UNL     1      20.374 -10.498   2.573 -0.61 -0.00    +0.000 N 
DOCKED: ATOM     16  H   UNL     1      20.498  -9.604   2.179 -0.51 -0.00    +0.000 HD
DOCKED: BRANCH  15  17
DOCKED: ATOM     17  O   UNL     1      20.358 -10.648   3.919 -0.80 -0.00    +0.000 OA
DOCKED: ATOM     18  H   UNL     1      20.481 -11.584   4.142 -0.31 -0.00    +0.000 HD
DOCKED: ENDBRANCH  15  17
DOCKED: ENDBRANCH  11  14
DOCKED: ENDBRANCH   5  12
DOCKED: ENDBRANCH   4   8
DOCKED: ENDBRANCH   1   4
DOCKED: BRANCH   1  19
DOCKED: ATOM     19  C   UNL     1      22.628 -10.862  -7.352 -0.39 -0.00    +0.000 C 
DOCKED: BRANCH  19  20
DOCKED: ATOM     20  C   UNL     1      23.653 -12.008  -7.413 -0.54 -0.00    +0.000 C 
DOCKED: BRANCH  20  21
DOCKED: ATOM     21  C   UNL     1      24.804 -11.631  -8.299 -0.40 -0.00    +0.000 A 
DOCKED: ATOM     22  C   UNL     1      25.221 -12.268  -9.470 -0.34 -0.00    +0.000 A 
DOCKED: ATOM     23  N   UNL     1      26.339 -11.684  -9.961 -0.23 -0.00    +0.000 N 
DOCKED: ATOM     24  C   UNL     1      26.647 -10.699  -9.100 -0.31 -0.00    +0.000 A 
DOCKED: ATOM     25  C   UNL     1      25.740 -10.640  -8.071 -0.35 -0.00    +0.000 A 
DOCKED: ATOM     26  C   UNL     1      25.863  -9.713  -7.035 -0.04 -0.00    +0.000 A 
DOCKED: ATOM     27  C   UNL     1      26.952  -8.822  -7.078 -0.35 -0.00    +0.000 A 
DOCKED: ATOM     28  C   UNL     1      27.882  -8.879  -8.139 -0.24 -0.00    +0.000 A 
DOCKED: ATOM     29  C   UNL     1      27.735  -9.829  -9.166 -0.26 -0.00    +0.000 A 
DOCKED: ATOM     30  C   UNL     1      24.530 -13.418 -10.131 -0.39 -0.00    +0.000 C 
DOCKED: ATOM     31  H   UNL     1      26.826 -11.930 -10.780 -0.22 -0.00    +0.000 HD
DOCKED: ENDBRANCH  20  21
DOCKED: ENDBRANCH  19  20
DOCKED: ENDBRANCH   1  19
DOCKED: TORSDOF 8
DOCKED: TER
DOCKED: ENDMDL
________________________________________________________________________________


	BEGINNING GENETIC ALGORITHM DOCKING 19 of 100
Run: 19 Seed: 276077949 1538596819 [ Run 19 of 100 GA/GALS ]
Beginning LAMARCKIAN GENETIC ALGORITHM (LGA), with a maximum of 2500000 energy evaluations.

Final-Value: -13.565


	FINAL GENETIC ALGORITHM DOCKED STATE
	_______________________________________________


Detailed state:  trans 18.638 -10.427 1.563 quatxyzw -0.005712 -0.436165 -0.285662 0.853302 center 0.698 0.076 -0.072 ntor 8 -6.9710 -127.8191 -113.3330 175.7285 154.4153 -62.1474 -122.6240 -22.4618
State:	 18.638 -10.427   1.563  -0.011 -0.837 -0.548 62.855     -6.97 -127.82 -113.33  175.73  154.42  -62.15 -122.62  -22.46

DOCKED: MODEL       19
DOCKED: USER    Run = 19
DOCKED: USER    DPF = ligand_dock.biased.dpf
DOCKED: USER  
DOCKED: USER    Estimated Free Energy of Binding    =   -8.97 kcal/mol  [=(1)+(2)+(3)-(4)]
DOCKED: USER    Estimated Inhibition Constant, Ki   =  266.53 nM (nanomolar)  [Temperature = 298.15 K]
DOCKED: USER    
DOCKED: USER    (1) Final Intermolecular Energy     =  -11.36 kcal/mol
DOCKED: USER        vdW + Hbond + desolv Energy     =  -11.36 kcal/mol
DOCKED: USER        Electrostatic Energy            =   +0.00 kcal/mol
DOCKED: USER    (2) Final Total Internal Energy     =   -2.21 kcal/mol
DOCKED: USER    (3) Torsional Free Energy           =   +2.39 kcal/mol
DOCKED: USER    (4) Unbound System's Energy  [=(2)] =   -2.21 kcal/mol
DOCKED: USER    
DOCKED: USER    
DOCKED: USER    NEWDPF move ligand.pdbqt
DOCKED: USER    NEWDPF about 0.698000 0.076000 -0.072000
DOCKED: USER    NEWDPF tran0 18.637799 -10.426627 1.563019
DOCKED: USER    NEWDPF quaternion0 -0.005712 -0.436165 -0.285662 0.853302
DOCKED: USER    NEWDPF axisangle0 -0.010956 -0.836500 -0.547857 62.854659
DOCKED: USER    NEWDPF quat0 -0.010956 -0.836500 -0.547857 62.854659
DOCKED: USER    NEWDPF dihe0 -6.97 -127.82 -113.33 175.73 154.42 -62.15 -122.62 -22.46 
DOCKED: USER  keepresnum = 1 
DOCKED: USER  
DOCKED: REMARK  Name = 
DOCKED: REMARK  9 active torsions:
DOCKED: REMARK  status: ('A' for Active; 'I' for Inactive)
DOCKED: REMARK    1  A    between atoms: C_2  and  C_3
DOCKED: REMARK    2  A    between atoms: C_4  and  C_5
DOCKED: REMARK    3  A    between atoms: C_8  and  C_9
DOCKED: REMARK    4  A    between atoms: C_9  and  N_10
DOCKED: REMARK    5  A    between atoms: N_10  and  C_11
DOCKED: REMARK    6  A    between atoms: C_11  and  C_12
DOCKED: REMARK    7  A    between atoms: C_12  and  C_13
DOCKED: REMARK    8  A    between atoms: C_14  and  C_22
DOCKED: REMARK    9  A    between atoms: N_25  and  O_26
DOCKED: REMARK                            x       y       z     vdW  Elec       q    Type
DOCKED: REMARK                         _______ _______ _______ _____ _____    ______ ____
DOCKED: USER                              x       y       z     vdW  Elec       q    Type
DOCKED: USER                           _______ _______ _______ _____ _____    ______ ____
DOCKED: ROOT
DOCKED: ATOM      1  N   UNL     1      17.737 -10.487   2.304 -0.46 -0.00    +0.000 N 
DOCKED: ATOM      2  H   UNL     1      17.130 -10.868   1.578 -0.00 +0.00    +0.000 HD
DOCKED: ATOM      3  H   UNL     1      17.758  -9.468   2.272 -0.04 -0.00    +0.000 HD
DOCKED: ENDROOT
DOCKED: BRANCH   1   4
DOCKED: ATOM      4  C   UNL     1      19.105 -10.973   2.079 -0.63 -0.00    +0.000 C 
DOCKED: BRANCH   4   8
DOCKED: ATOM      5  C   UNL     1      20.157 -10.598  -2.100 -0.43 -0.00    +0.000 A 
DOCKED: ATOM      6  C   UNL     1      18.865 -11.014  -1.720 -0.37 -0.00    +0.000 A 
DOCKED: ATOM      7  C   UNL     1      18.526 -11.128  -0.368 -0.42 -0.00    +0.000 A 
DOCKED: ATOM      8  C   UNL     1      19.461 -10.811   0.628 -0.53 -0.00    +0.000 A 
DOCKED: ATOM      9  C   UNL     1      20.748 -10.395   0.255 -0.61 -0.00    +0.000 A 
DOCKED: ATOM     10  C   UNL     1      21.086 -10.278  -1.096 -0.59 -0.00    +0.000 A 
DOCKED: BRANCH   5  12
DOCKED: ATOM     11  C   UNL     1      21.737 -10.882  -4.006 -0.48 -0.00    +0.000 C 
DOCKED: ATOM     12  C   UNL     1      20.564 -10.448  -3.519 -0.50 -0.00    +0.000 C 
DOCKED: BRANCH  11  14
DOCKED: ATOM     13  O   UNL     1      22.376  -9.570  -5.852 -0.35 -0.00    +0.000 OA
DOCKED: ATOM     14  C   UNL     1      22.140 -10.728  -5.420 -0.41 -0.00    +0.000 C 
DOCKED: ATOM     15  N   UNL     1      22.244 -11.844  -6.315 -0.43 -0.00    +0.000 N 
DOCKED: ATOM     16  H   UNL     1      21.969 -12.741  -6.016 -0.57 -0.00    +0.000 HD
DOCKED: BRANCH  15  17
DOCKED: ATOM     17  O   UNL     1      22.719 -11.667  -7.571 -0.47 -0.00    +0.000 OA
DOCKED: ATOM     18  H   UNL     1      22.839 -10.720  -7.741 -0.01 -0.00    +0.000 HD
DOCKED: ENDBRANCH  15  17
DOCKED: ENDBRANCH  11  14
DOCKED: ENDBRANCH   5  12
DOCKED: ENDBRANCH   4   8
DOCKED: ENDBRANCH   1   4
DOCKED: BRANCH   1  19
DOCKED: ATOM     19  C   UNL     1      17.213 -10.888   3.619 -0.35 +0.00    +0.000 C 
DOCKED: BRANCH  19  20
DOCKED: ATOM     20  C   UNL     1      15.740 -11.325   3.555 -0.52 +0.00    +0.000 C 
DOCKED: BRANCH  20  21
DOCKED: ATOM     21  C   UNL     1      15.078 -10.751   2.336 -0.37 +0.00    +0.000 A 
DOCKED: ATOM     22  C   UNL     1      14.370  -9.551   2.237 -0.25 +0.00    +0.000 A 
DOCKED: ATOM     23  N   UNL     1      13.859  -9.398   0.993 -0.18 +0.00    +0.000 N 
DOCKED: ATOM     24  C   UNL     1      14.217 -10.500   0.311 -0.24 +0.00    +0.000 A 
DOCKED: ATOM     25  C   UNL     1      14.954 -11.350   1.096 -0.36 +0.00    +0.000 A 
DOCKED: ATOM     26  C   UNL     1      15.419 -12.575   0.617 -0.42 +0.00    +0.000 A 
DOCKED: ATOM     27  C   UNL     1      15.116 -12.918  -0.714 -0.45 +0.00    +0.000 A 
DOCKED: ATOM     28  C   UNL     1      14.361 -12.041  -1.524 -0.34 +0.00    +0.000 A 
DOCKED: ATOM     29  C   UNL     1      13.901 -10.814  -1.010 -0.28 +0.00    +0.000 A 
DOCKED: ATOM     30  C   UNL     1      14.209  -8.540   3.327 -0.30 +0.00    +0.000 C 
DOCKED: ATOM     31  H   UNL     1      13.333  -8.636   0.657 +0.00 +0.00    +0.000 HD
DOCKED: ENDBRANCH  20  21
DOCKED: ENDBRANCH  19  20
DOCKED: ENDBRANCH   1  19
DOCKED: TORSDOF 8
DOCKED: TER
DOCKED: ENDMDL
________________________________________________________________________________


	BEGINNING GENETIC ALGORITHM DOCKING 20 of 100
Run: 20 Seed: 893508791 1549757389 [ Run 20 of 100 GA/GALS ]
Beginning LAMARCKIAN GENETIC ALGORITHM (LGA), with a maximum of 2500000 energy evaluations.

Final-Value: -14.211


	FINAL GENETIC ALGORITHM DOCKED STATE
	_______________________________________________


Detailed state:  trans 14.763 -10.566 -2.250 quatxyzw 0.724127 -0.234481 -0.584686 0.280716 center 0.698 0.076 -0.072 ntor 8 -15.7180 -166.8839 -117.6486 180.0000 -160.2010 -51.4943 50.5252 -45.2192
State:	 14.763 -10.566  -2.250   0.754 -0.244 -0.609 147.394    -15.72 -166.88 -117.65  180.00 -160.20  -51.49   50.53  -45.22

DOCKED: MODEL       20
DOCKED: USER    Run = 20
DOCKED: USER    DPF = ligand_dock.biased.dpf
DOCKED: USER  
DOCKED: USER    Estimated Free Energy of Binding    =   -9.40 kcal/mol  [=(1)+(2)+(3)-(4)]
DOCKED: USER    Estimated Inhibition Constant, Ki   =  129.23 nM (nanomolar)  [Temperature = 298.15 K]
DOCKED: USER    
DOCKED: USER    (1) Final Intermolecular Energy     =  -11.78 kcal/mol
DOCKED: USER        vdW + Hbond + desolv Energy     =  -11.78 kcal/mol
DOCKED: USER        Electrostatic Energy            =   +0.00 kcal/mol
DOCKED: USER    (2) Final Total Internal Energy     =   -2.43 kcal/mol
DOCKED: USER    (3) Torsional Free Energy           =   +2.39 kcal/mol
DOCKED: USER    (4) Unbound System's Energy  [=(2)] =   -2.43 kcal/mol
DOCKED: USER    
DOCKED: USER    
DOCKED: USER    NEWDPF move ligand.pdbqt
DOCKED: USER    NEWDPF about 0.698000 0.076000 -0.072000
DOCKED: USER    NEWDPF tran0 14.762754 -10.565608 -2.250489
DOCKED: USER    NEWDPF quaternion0 0.724127 -0.234481 -0.584686 0.280716
DOCKED: USER    NEWDPF axisangle0 0.754463 -0.244305 -0.609181 147.394066
DOCKED: USER    NEWDPF quat0 0.754463 -0.244305 -0.609181 147.394066
DOCKED: USER    NEWDPF dihe0 -15.72 -166.88 -117.65 180.00 -160.20 -51.49 50.53 -45.22 
DOCKED: USER  keepresnum = 1 
DOCKED: USER  
DOCKED: REMARK  Name = 
DOCKED: REMARK  9 active torsions:
DOCKED: REMARK  status: ('A' for Active; 'I' for Inactive)
DOCKED: REMARK    1  A    between atoms: C_2  and  C_3
DOCKED: REMARK    2  A    between atoms: C_4  and  C_5
DOCKED: REMARK    3  A    between atoms: C_8  and  C_9
DOCKED: REMARK    4  A    between atoms: C_9  and  N_10
DOCKED: REMARK    5  A    between atoms: N_10  and  C_11
DOCKED: REMARK    6  A    between atoms: C_11  and  C_12
DOCKED: REMARK    7  A    between atoms: C_12  and  C_13
DOCKED: REMARK    8  A    between atoms: C_14  and  C_22
DOCKED: REMARK    9  A    between atoms: N_25  and  O_26
DOCKED: REMARK                            x       y       z     vdW  Elec       q    Type
DOCKED: REMARK                         _______ _______ _______ _____ _____    ______ ____
DOCKED: USER                              x       y       z     vdW  Elec       q    Type
DOCKED: USER                           _______ _______ _______ _____ _____    ______ ____
DOCKED: ROOT
DOCKED: ATOM      1  N   UNL     1      14.338 -11.132  -1.322 -0.31 +0.00    +0.000 N 
DOCKED: ATOM      2  H   UNL     1      15.207 -11.654  -1.207 -0.01 +0.00    +0.000 HD
DOCKED: ATOM      3  H   UNL     1      13.719 -11.586  -1.994 -0.03 -0.00    +0.000 HD
DOCKED: ENDROOT
DOCKED: BRANCH   1   4
DOCKED: ATOM      4  C   UNL     1      14.654  -9.792  -1.834 -0.26 -0.00    +0.000 C 
DOCKED: BRANCH   4   8
DOCKED: ATOM      5  C   UNL     1      18.434  -9.977  -3.930 -0.26 -0.00    +0.000 A 
DOCKED: ATOM      6  C   UNL     1      17.323  -9.330  -4.508 -0.19 -0.00    +0.000 A 
DOCKED: ATOM      7  C   UNL     1      16.105  -9.267  -3.825 -0.18 -0.00    +0.000 A 
DOCKED: ATOM      8  C   UNL     1      15.977  -9.829  -2.547 -0.22 -0.00    +0.000 A 
DOCKED: ATOM      9  C   UNL     1      17.080 -10.472  -1.965 -0.21 -0.00    +0.000 A 
DOCKED: ATOM     10  C   UNL     1      18.299 -10.533  -2.647 -0.27 -0.00    +0.000 A 
DOCKED: BRANCH   5  12
DOCKED: ATOM     11  C   UNL     1      20.532 -11.154  -4.581 -0.52 -0.00    +0.000 C 
DOCKED: ATOM     12  C   UNL     1      19.753 -10.062  -4.605 -0.34 -0.00    +0.000 C 
DOCKED: BRANCH  11  14
DOCKED: ATOM     13  O   UNL     1      22.515 -10.175  -5.388 -0.36 -0.00    +0.000 OA
DOCKED: ATOM     14  C   UNL     1      21.846 -11.233  -5.252 -0.54 -0.00    +0.000 C 
DOCKED: ATOM     15  N   UNL     1      22.369 -12.462  -5.775 -0.57 -0.00    +0.000 N 
DOCKED: ATOM     16  H   UNL     1      21.815 -13.276  -5.762 -0.63 -0.00    +0.000 HD
DOCKED: BRANCH  15  17
DOCKED: ATOM     17  O   UNL     1      23.622 -12.505  -6.287 -1.10 -0.00    +0.000 OA
DOCKED: ATOM     18  H   UNL     1      23.935 -11.603  -6.455 -0.03 +0.00    +0.000 HD
DOCKED: ENDBRANCH  15  17
DOCKED: ENDBRANCH  11  14
DOCKED: ENDBRANCH   5  12
DOCKED: ENDBRANCH   4   8
DOCKED: ENDBRANCH   1   4
DOCKED: BRANCH   1  19
DOCKED: ATOM     19  C   UNL     1      13.640 -11.083  -0.027 -0.35 +0.00    +0.000 C 
DOCKED: BRANCH  19  20
DOCKED: ATOM     20  C   UNL     1      14.306 -11.976   1.032 -0.48 +0.00    +0.000 C 
DOCKED: BRANCH  20  21
DOCKED: ATOM     21  C   UNL     1      15.751 -12.202   0.691 -0.43 +0.00    +0.000 A 
DOCKED: ATOM     22  C   UNL     1      16.288 -13.209  -0.114 -0.46 +0.00    +0.000 A 
DOCKED: ATOM     23  N   UNL     1      17.639 -13.134  -0.137 -0.40 +0.00    +0.000 N 
DOCKED: ATOM     24  C   UNL     1      17.963 -12.103   0.663 -0.49 -0.00    +0.000 A 
DOCKED: ATOM     25  C   UNL     1      16.841 -11.515   1.191 -0.40 +0.00    +0.000 A 
DOCKED: ATOM     26  C   UNL     1      16.923 -10.438   2.074 -0.39 +0.00    +0.000 A 
DOCKED: ATOM     27  C   UNL     1      18.203  -9.958   2.407 -0.43 -0.00    +0.000 A 
DOCKED: ATOM     28  C   UNL     1      19.358 -10.560   1.860 -0.55 -0.00    +0.000 A 
DOCKED: ATOM     29  C   UNL     1      19.244 -11.649   0.976 -0.57 -0.00    +0.000 A 
DOCKED: ATOM     30  C   UNL     1      15.503 -14.226  -0.880 -0.40 +0.00    +0.000 C 
DOCKED: ATOM     31  H   UNL     1      18.257 -13.715  -0.637 -0.41 -0.00    +0.000 HD
DOCKED: ENDBRANCH  20  21
DOCKED: ENDBRANCH  19  20
DOCKED: ENDBRANCH   1  19
DOCKED: TORSDOF 8
DOCKED: TER
DOCKED: ENDMDL
________________________________________________________________________________


	BEGINNING GENETIC ALGORITHM DOCKING 21 of 100
Run: 21 Seed: 708015031 790715436 [ Run 21 of 100 GA/GALS ]
Beginning LAMARCKIAN GENETIC ALGORITHM (LGA), with a maximum of 2500000 energy evaluations.

Final-Value: -14.448


	FINAL GENETIC ALGORITHM DOCKED STATE
	_______________________________________________


Detailed state:  trans 19.351 -8.496 -5.770 quatxyzw 0.291097 0.017539 0.244739 -0.924693 center 0.698 0.076 -0.072 ntor 8 3.0697 46.4798 158.5146 -138.2553 32.7114 177.7877 -158.9005 93.9163
State:	 19.351  -8.496  -5.770   0.765  0.046  0.643 -44.756      3.07   46.48  158.51 -138.26   32.71  177.79 -158.90   93.92

DOCKED: MODEL       21
DOCKED: USER    Run = 21
DOCKED: USER    DPF = ligand_dock.biased.dpf
DOCKED: USER  
DOCKED: USER    Estimated Free Energy of Binding    =   -9.34 kcal/mol  [=(1)+(2)+(3)-(4)]
DOCKED: USER    Estimated Inhibition Constant, Ki   =  141.93 nM (nanomolar)  [Temperature = 298.15 K]
DOCKED: USER    
DOCKED: USER    (1) Final Intermolecular Energy     =  -11.73 kcal/mol
DOCKED: USER        vdW + Hbond + desolv Energy     =  -11.73 kcal/mol
DOCKED: USER        Electrostatic Energy            =   +0.00 kcal/mol
DOCKED: USER    (2) Final Total Internal Energy     =   -2.72 kcal/mol
DOCKED: USER    (3) Torsional Free Energy           =   +2.39 kcal/mol
DOCKED: USER    (4) Unbound System's Energy  [=(2)] =   -2.72 kcal/mol
DOCKED: USER    
DOCKED: USER    
DOCKED: USER    NEWDPF move ligand.pdbqt
DOCKED: USER    NEWDPF about 0.698000 0.076000 -0.072000
DOCKED: USER    NEWDPF tran0 19.350601 -8.495691 -5.770002
DOCKED: USER    NEWDPF quaternion0 0.291097 0.017539 0.244739 -0.924693
DOCKED: USER    NEWDPF axisangle0 0.764611 0.046070 0.642843 -44.755697
DOCKED: USER    NEWDPF quat0 0.764611 0.046070 0.642843 -44.755697
DOCKED: USER    NEWDPF dihe0 3.07 46.48 158.51 -138.26 32.71 177.79 -158.90 93.92 
DOCKED: USER  keepresnum = 1 
DOCKED: USER  
DOCKED: REMARK  Name = 
DOCKED: REMARK  9 active torsions:
DOCKED: REMARK  status: ('A' for Active; 'I' for Inactive)
DOCKED: REMARK    1  A    between atoms: C_2  and  C_3
DOCKED: REMARK    2  A    between atoms: C_4  and  C_5
DOCKED: REMARK    3  A    between atoms: C_8  and  C_9
DOCKED: REMARK    4  A    between atoms: C_9  and  N_10
DOCKED: REMARK    5  A    between atoms: N_10  and  C_11
DOCKED: REMARK    6  A    between atoms: C_11  and  C_12
DOCKED: REMARK    7  A    between atoms: C_12  and  C_13
DOCKED: REMARK    8  A    between atoms: C_14  and  C_22
DOCKED: REMARK    9  A    between atoms: N_25  and  O_26
DOCKED: REMARK                            x       y       z     vdW  Elec       q    Type
DOCKED: REMARK                         _______ _______ _______ _____ _____    ______ ____
DOCKED: USER                              x       y       z     vdW  Elec       q    Type
DOCKED: USER                           _______ _______ _______ _____ _____    ______ ____
DOCKED: ROOT
DOCKED: ATOM      1  N   UNL     1      18.185  -8.423  -5.754 -0.12 -0.00    +0.000 N 
DOCKED: ATOM      2  H   UNL     1      18.170  -8.014  -6.689 +0.00 -0.00    +0.000 HD
DOCKED: ATOM      3  H   UNL     1      18.329  -7.710  -5.040 -0.00 -0.00    +0.000 HD
DOCKED: ENDROOT
DOCKED: BRANCH   1   4
DOCKED: ATOM      4  C   UNL     1      19.301  -9.374  -5.672 -0.20 -0.00    +0.000 C 
DOCKED: BRANCH   4   8
DOCKED: ATOM      5  C   UNL     1      20.249 -10.263  -1.546 -0.49 -0.00    +0.000 A 
DOCKED: ATOM      6  C   UNL     1      20.644  -9.041  -2.125 -0.42 -0.00    +0.000 A 
DOCKED: ATOM      7  C   UNL     1      20.331  -8.754  -3.458 -0.32 -0.00    +0.000 A 
DOCKED: ATOM      8  C   UNL     1      19.601  -9.670  -4.230 -0.28 -0.00    +0.000 A 
DOCKED: ATOM      9  C   UNL     1      19.203 -10.888  -3.656 -0.36 -0.00    +0.000 A 
DOCKED: ATOM     10  C   UNL     1      19.514 -11.174  -2.324 -0.28 -0.00    +0.000 A 
DOCKED: BRANCH   5  12
DOCKED: ATOM     11  C   UNL     1      19.650 -11.170   0.697 -0.65 -0.00    +0.000 C 
DOCKED: ATOM     12  C   UNL     1      20.544 -10.612  -0.134 -0.67 -0.00    +0.000 C 
DOCKED: BRANCH  11  14
DOCKED: ATOM     13  O   UNL     1      19.888 -12.722   2.450 -1.37 -0.00    +0.000 OA
DOCKED: ATOM     14  C   UNL     1      19.947 -11.513   2.103 -0.76 -0.00    +0.000 C 
DOCKED: ATOM     15  N   UNL     1      20.273 -10.519   3.085 -0.68 -0.00    +0.000 N 
DOCKED: ATOM     16  H   UNL     1      20.227  -9.564   2.850 -0.55 -0.00    +0.000 HD
DOCKED: BRANCH  15  17
DOCKED: ATOM     17  O   UNL     1      20.641 -10.892   4.334 -0.75 -0.00    +0.000 OA
DOCKED: ATOM     18  H   UNL     1      20.681 -11.860   4.385 -0.45 -0.00    +0.000 HD
DOCKED: ENDBRANCH  15  17
DOCKED: ENDBRANCH  11  14
DOCKED: ENDBRANCH   5  12
DOCKED: ENDBRANCH   4   8
DOCKED: ENDBRANCH   1   4
DOCKED: BRANCH   1  19
DOCKED: ATOM     19  C   UNL     1      16.887  -9.066  -5.497 -0.15 -0.00    +0.000 C 
DOCKED: BRANCH  19  20
DOCKED: ATOM     20  C   UNL     1      16.381  -8.814  -4.066 -0.18 -0.00    +0.000 C 
DOCKED: BRANCH  20  21
DOCKED: ATOM     21  C   UNL     1      15.679 -10.033  -3.539 -0.22 -0.00    +0.000 A 
DOCKED: ATOM     22  C   UNL     1      14.721 -10.812  -4.192 -0.25 -0.00    +0.000 A 
DOCKED: ATOM     23  N   UNL     1      14.265 -11.790  -3.376 -0.29 -0.00    +0.000 N 
DOCKED: ATOM     24  C   UNL     1      14.907 -11.624  -2.207 -0.21 -0.00    +0.000 A 
DOCKED: ATOM     25  C   UNL     1      15.771 -10.560  -2.265 -0.24 -0.00    +0.000 A 
DOCKED: ATOM     26  C   UNL     1      16.534 -10.172  -1.162 -0.16 -0.00    +0.000 A 
DOCKED: ATOM     27  C   UNL     1      16.398 -10.916   0.024 -0.31 +0.00    +0.000 A 
DOCKED: ATOM     28  C   UNL     1      15.512 -12.014   0.083 -0.42 +0.00    +0.000 A 
DOCKED: ATOM     29  C   UNL     1      14.752 -12.378  -1.044 -0.40 +0.00    +0.000 A 
DOCKED: ATOM     30  C   UNL     1      14.266 -10.634  -5.605 -0.22 -0.00    +0.000 C 
DOCKED: ATOM     31  H   UNL     1      13.599 -12.482  -3.595 -0.33 -0.00    +0.000 HD
DOCKED: ENDBRANCH  20  21
DOCKED: ENDBRANCH  19  20
DOCKED: ENDBRANCH   1  19
DOCKED: TORSDOF 8
DOCKED: TER
DOCKED: ENDMDL
________________________________________________________________________________


	BEGINNING GENETIC ALGORITHM DOCKING 22 of 100
Run: 22 Seed: 1491617364 1046117146 [ Run 22 of 100 GA/GALS ]
Beginning LAMARCKIAN GENETIC ALGORITHM (LGA), with a maximum of 2500000 energy evaluations.

Final-Value: -13.303


	FINAL GENETIC ALGORITHM DOCKED STATE
	_______________________________________________


Detailed state:  trans 19.580 -8.730 -6.735 quatxyzw 0.027395 -0.248074 -0.422027 0.871551 center 0.698 0.076 -0.072 ntor 8 22.7829 49.5632 -27.5145 178.8787 -18.6500 -178.8869 9.1416 142.4485
State:	 19.580  -8.730  -6.735   0.056 -0.506 -0.861 58.721     22.78   49.56  -27.51  178.88  -18.65 -178.89    9.14  142.45

DOCKED: MODEL       22
DOCKED: USER    Run = 22
DOCKED: USER    DPF = ligand_dock.biased.dpf
DOCKED: USER  
DOCKED: USER    Estimated Free Energy of Binding    =   -8.59 kcal/mol  [=(1)+(2)+(3)-(4)]
DOCKED: USER    Estimated Inhibition Constant, Ki   =  501.31 nM (nanomolar)  [Temperature = 298.15 K]
DOCKED: USER    
DOCKED: USER    (1) Final Intermolecular Energy     =  -10.98 kcal/mol
DOCKED: USER        vdW + Hbond + desolv Energy     =  -10.98 kcal/mol
DOCKED: USER        Electrostatic Energy            =   +0.00 kcal/mol
DOCKED: USER    (2) Final Total Internal Energy     =   -2.32 kcal/mol
DOCKED: USER    (3) Torsional Free Energy           =   +2.39 kcal/mol
DOCKED: USER    (4) Unbound System's Energy  [=(2)] =   -2.32 kcal/mol
DOCKED: USER    
DOCKED: USER    
DOCKED: USER    NEWDPF move ligand.pdbqt
DOCKED: USER    NEWDPF about 0.698000 0.076000 -0.072000
DOCKED: USER    NEWDPF tran0 19.579798 -8.729950 -6.734803
DOCKED: USER    NEWDPF quaternion0 0.027395 -0.248074 -0.422027 0.871551
DOCKED: USER    NEWDPF axisangle0 0.055873 -0.505959 -0.860746 58.721163
DOCKED: USER    NEWDPF quat0 0.055873 -0.505959 -0.860746 58.721163
DOCKED: USER    NEWDPF dihe0 22.78 49.56 -27.51 178.88 -18.65 -178.89 9.14 142.45 
DOCKED: USER  keepresnum = 1 
DOCKED: USER  
DOCKED: REMARK  Name = 
DOCKED: REMARK  9 active torsions:
DOCKED: REMARK  status: ('A' for Active; 'I' for Inactive)
DOCKED: REMARK    1  A    between atoms: C_2  and  C_3
DOCKED: REMARK    2  A    between atoms: C_4  and  C_5
DOCKED: REMARK    3  A    between atoms: C_8  and  C_9
DOCKED: REMARK    4  A    between atoms: C_9  and  N_10
DOCKED: REMARK    5  A    between atoms: N_10  and  C_11
DOCKED: REMARK    6  A    between atoms: C_11  and  C_12
DOCKED: REMARK    7  A    between atoms: C_12  and  C_13
DOCKED: REMARK    8  A    between atoms: C_14  and  C_22
DOCKED: REMARK    9  A    between atoms: N_25  and  O_26
DOCKED: REMARK                            x       y       z     vdW  Elec       q    Type
DOCKED: REMARK                         _______ _______ _______ _____ _____    ______ ____
DOCKED: USER                              x       y       z     vdW  Elec       q    Type
DOCKED: USER                           _______ _______ _______ _____ _____    ______ ____
DOCKED: ROOT
DOCKED: ATOM      1  N   UNL     1      18.539  -9.134  -6.391 -0.12 -0.00    +0.000 N 
DOCKED: ATOM      2  H   UNL     1      18.330  -9.474  -7.330 +0.00 -0.00    +0.000 HD
DOCKED: ATOM      3  H   UNL     1      18.291  -8.150  -6.290 +0.00 -0.00    +0.000 HD
DOCKED: ENDROOT
DOCKED: BRANCH   1   4
DOCKED: ATOM      4  C   UNL     1      19.983  -9.261  -6.153 -0.19 -0.00    +0.000 C 
DOCKED: BRANCH   4   8
DOCKED: ATOM      5  C   UNL     1      20.592 -10.030  -1.939 -0.50 -0.00    +0.000 A 
DOCKED: ATOM      6  C   UNL     1      20.455 -11.096  -2.851 -0.12 -0.00    +0.000 A 
DOCKED: ATOM      7  C   UNL     1      20.264 -10.844  -4.213 -0.43 -0.00    +0.000 A 
DOCKED: ATOM      8  C   UNL     1      20.227  -9.527  -4.694 -0.27 -0.00    +0.000 A 
DOCKED: ATOM      9  C   UNL     1      20.366  -8.462  -3.791 -0.29 -0.00    +0.000 A 
DOCKED: ATOM     10  C   UNL     1      20.559  -8.713  -2.429 -0.32 -0.00    +0.000 A 
DOCKED: BRANCH   5  12
DOCKED: ATOM     11  C   UNL     1      20.054 -11.053   0.268 -0.64 -0.00    +0.000 C 
DOCKED: ATOM     12  C   UNL     1      20.809 -10.241  -0.487 -0.68 -0.00    +0.000 C 
DOCKED: BRANCH  11  14
DOCKED: ATOM     13  O   UNL     1      20.630 -12.398   2.112 -1.42 -0.00    +0.000 OA
DOCKED: ATOM     14  C   UNL     1      20.272 -11.258   1.716 -0.76 -0.00    +0.000 C 
DOCKED: ATOM     15  N   UNL     1      20.065 -10.215   2.679 -0.51 -0.00    +0.000 N 
DOCKED: ATOM     16  H   UNL     1      19.693  -9.350   2.394 -0.47 -0.00    +0.000 HD
DOCKED: BRANCH  15  17
DOCKED: ATOM     17  O   UNL     1      20.379 -10.420   3.981 -0.77 -0.00    +0.000 OA
DOCKED: ATOM     18  H   UNL     1      21.037 -11.130   4.047 -0.41 -0.00    +0.000 HD
DOCKED: ENDBRANCH  15  17
DOCKED: ENDBRANCH  11  14
DOCKED: ENDBRANCH   5  12
DOCKED: ENDBRANCH   4   8
DOCKED: ENDBRANCH   1   4
DOCKED: BRANCH   1  19
DOCKED: ATOM     19  C   UNL     1      17.745  -9.903  -5.420 -0.23 -0.00    +0.000 C 
DOCKED: BRANCH  19  20
DOCKED: ATOM     20  C   UNL     1      17.095  -9.006  -4.353 -0.20 -0.00    +0.000 C 
DOCKED: BRANCH  20  21
DOCKED: ATOM     21  C   UNL     1      16.028  -9.763  -3.616 -0.21 -0.00    +0.000 A 
DOCKED: ATOM     22  C   UNL     1      14.674  -9.863  -3.946 -0.19 -0.00    +0.000 A 
DOCKED: ATOM     23  N   UNL     1      14.005 -10.574  -3.009 -0.26 -0.00    +0.000 N 
DOCKED: ATOM     24  C   UNL     1      14.917 -10.906  -2.079 -0.29 -0.00    +0.000 A 
DOCKED: ATOM     25  C   UNL     1      16.158 -10.424  -2.409 -0.23 -0.00    +0.000 A 
DOCKED: ATOM     26  C   UNL     1      17.266 -10.618  -1.583 -0.23 -0.00    +0.000 A 
DOCKED: ATOM     27  C   UNL     1      17.076 -11.339  -0.389 -0.35 -0.00    +0.000 A 
DOCKED: ATOM     28  C   UNL     1      15.799 -11.839  -0.051 -0.39 +0.00    +0.000 A 
DOCKED: ATOM     29  C   UNL     1      14.699 -11.622  -0.903 -0.35 +0.00    +0.000 A 
DOCKED: ATOM     30  C   UNL     1      14.031  -9.299  -5.173 -0.12 -0.00    +0.000 C 
DOCKED: ATOM     31  H   UNL     1      13.047 -10.802  -3.010 -0.02 -0.00    +0.000 HD
DOCKED: ENDBRANCH  20  21
DOCKED: ENDBRANCH  19  20
DOCKED: ENDBRANCH   1  19
DOCKED: TORSDOF 8
DOCKED: TER
DOCKED: ENDMDL
________________________________________________________________________________


	BEGINNING GENETIC ALGORITHM DOCKING 23 of 100
Run: 23 Seed: 1650750759 1921733409 [ Run 23 of 100 GA/GALS ]
Beginning LAMARCKIAN GENETIC ALGORITHM (LGA), with a maximum of 2500000 energy evaluations.

Final-Value: -14.149


	FINAL GENETIC ALGORITHM DOCKED STATE
	_______________________________________________


Detailed state:  trans 18.953 -8.435 -5.481 quatxyzw 0.376397 -0.086516 0.268801 -0.882375 center 0.698 0.076 -0.072 ntor 8 -0.7215 38.3424 -168.3041 -146.3515 54.3127 -163.4193 178.6991 75.1239
State:	 18.953  -8.435  -5.481   0.800 -0.184  0.571 -56.140     -0.72   38.34 -168.30 -146.35   54.31 -163.42  178.70   75.12

DOCKED: MODEL       23
DOCKED: USER    Run = 23
DOCKED: USER    DPF = ligand_dock.biased.dpf
DOCKED: USER  
DOCKED: USER    Estimated Free Energy of Binding    =   -9.12 kcal/mol  [=(1)+(2)+(3)-(4)]
DOCKED: USER    Estimated Inhibition Constant, Ki   =  207.79 nM (nanomolar)  [Temperature = 298.15 K]
DOCKED: USER    
DOCKED: USER    (1) Final Intermolecular Energy     =  -11.50 kcal/mol
DOCKED: USER        vdW + Hbond + desolv Energy     =  -11.50 kcal/mol
DOCKED: USER        Electrostatic Energy            =   +0.00 kcal/mol
DOCKED: USER    (2) Final Total Internal Energy     =   -2.65 kcal/mol
DOCKED: USER    (3) Torsional Free Energy           =   +2.39 kcal/mol
DOCKED: USER    (4) Unbound System's Energy  [=(2)] =   -2.65 kcal/mol
DOCKED: USER    
DOCKED: USER    
DOCKED: USER    NEWDPF move ligand.pdbqt
DOCKED: USER    NEWDPF about 0.698000 0.076000 -0.072000
DOCKED: USER    NEWDPF tran0 18.952611 -8.434700 -5.481011
DOCKED: USER    NEWDPF quaternion0 0.376397 -0.086516 0.268801 -0.882375
DOCKED: USER    NEWDPF axisangle0 0.799915 -0.183864 0.571254 -56.139560
DOCKED: USER    NEWDPF quat0 0.799915 -0.183864 0.571254 -56.139560
DOCKED: USER    NEWDPF dihe0 -0.72 38.34 -168.30 -146.35 54.31 -163.42 178.70 75.12 
DOCKED: USER  keepresnum = 1 
DOCKED: USER  
DOCKED: REMARK  Name = 
DOCKED: REMARK  9 active torsions:
DOCKED: REMARK  status: ('A' for Active; 'I' for Inactive)
DOCKED: REMARK    1  A    between atoms: C_2  and  C_3
DOCKED: REMARK    2  A    between atoms: C_4  and  C_5
DOCKED: REMARK    3  A    between atoms: C_8  and  C_9
DOCKED: REMARK    4  A    between atoms: C_9  and  N_10
DOCKED: REMARK    5  A    between atoms: N_10  and  C_11
DOCKED: REMARK    6  A    between atoms: C_11  and  C_12
DOCKED: REMARK    7  A    between atoms: C_12  and  C_13
DOCKED: REMARK    8  A    between atoms: C_14  and  C_22
DOCKED: REMARK    9  A    between atoms: N_25  and  O_26
DOCKED: REMARK                            x       y       z     vdW  Elec       q    Type
DOCKED: REMARK                         _______ _______ _______ _____ _____    ______ ____
DOCKED: USER                              x       y       z     vdW  Elec       q    Type
DOCKED: USER                           _______ _______ _______ _____ _____    ______ ____
DOCKED: ROOT
DOCKED: ATOM      1  N   UNL     1      17.798  -8.348  -5.637 -0.12 -0.00    +0.000 N 
DOCKED: ATOM      2  H   UNL     1      17.926  -7.733  -6.442 +0.00 -0.00    +0.000 HD
DOCKED: ATOM      3  H   UNL     1      17.810  -7.822  -4.764 -0.01 -0.00    +0.000 HD
DOCKED: ENDROOT
DOCKED: BRANCH   1   4
DOCKED: ATOM      4  C   UNL     1      18.907  -9.311  -5.599 -0.20 -0.00    +0.000 C 
DOCKED: BRANCH   4   8
DOCKED: ATOM      5  C   UNL     1      20.027 -10.187  -1.513 -0.45 -0.00    +0.000 A 
DOCKED: ATOM      6  C   UNL     1      20.760  -9.254  -2.274 -0.46 -0.00    +0.000 A 
DOCKED: ATOM      7  C   UNL     1      20.391  -8.969  -3.592 -0.33 -0.00    +0.000 A 
DOCKED: ATOM      8  C   UNL     1      19.275  -9.592  -4.169 -0.26 -0.00    +0.000 A 
DOCKED: ATOM      9  C   UNL     1      18.541 -10.520  -3.415 -0.29 -0.00    +0.000 A 
DOCKED: ATOM     10  C   UNL     1      18.908 -10.804  -2.096 -0.36 -0.00    +0.000 A 
DOCKED: BRANCH   5  12
DOCKED: ATOM     11  C   UNL     1      19.572 -11.233   0.702 -0.64 -0.00    +0.000 C 
DOCKED: ATOM     12  C   UNL     1      20.367 -10.518  -0.107 -0.65 -0.00    +0.000 C 
DOCKED: BRANCH  11  14
DOCKED: ATOM     13  O   UNL     1      19.899 -12.765   2.459 -1.34 -0.00    +0.000 OA
DOCKED: ATOM     14  C   UNL     1      19.914 -11.558   2.103 -0.76 -0.00    +0.000 C 
DOCKED: ATOM     15  N   UNL     1      20.234 -10.547   3.070 -0.68 -0.00    +0.000 N 
DOCKED: ATOM     16  H   UNL     1      20.154  -9.596   2.830 -0.54 -0.00    +0.000 HD
DOCKED: BRANCH  15  17
DOCKED: ATOM     17  O   UNL     1      20.643 -10.899   4.312 -0.75 -0.00    +0.000 OA
DOCKED: ATOM     18  H   UNL     1      20.655 -11.866   4.387 -0.45 -0.00    +0.000 HD
DOCKED: ENDBRANCH  15  17
DOCKED: ENDBRANCH  11  14
DOCKED: ENDBRANCH   5  12
DOCKED: ENDBRANCH   4   8
DOCKED: ENDBRANCH   1   4
DOCKED: BRANCH   1  19
DOCKED: ATOM     19  C   UNL     1      16.489  -9.010  -5.749 -0.13 -0.00    +0.000 C 
DOCKED: BRANCH  19  20
DOCKED: ATOM     20  C   UNL     1      15.568  -8.693  -4.559 -0.16 -0.00    +0.000 C 
DOCKED: BRANCH  20  21
DOCKED: ATOM     21  C   UNL     1      15.156  -9.960  -3.867 -0.20 -0.00    +0.000 A 
DOCKED: ATOM     22  C   UNL     1      14.547 -11.081  -4.436 -0.26 -0.00    +0.000 A 
DOCKED: ATOM     23  N   UNL     1      14.262 -12.003  -3.487 -0.21 -0.00    +0.000 N 
DOCKED: ATOM     24  C   UNL     1      14.664 -11.468  -2.322 -0.29 -0.00    +0.000 A 
DOCKED: ATOM     25  C   UNL     1      15.207 -10.222  -2.511 -0.25 -0.00    +0.000 A 
DOCKED: ATOM     26  C   UNL     1      15.672  -9.454  -1.443 -0.12 -0.00    +0.000 A 
DOCKED: ATOM     27  C   UNL     1      15.577 -10.000  -0.150 -0.25 +0.00    +0.000 A 
DOCKED: ATOM     28  C   UNL     1      15.023 -11.285   0.044 -0.32 +0.00    +0.000 A 
DOCKED: ATOM     29  C   UNL     1      14.557 -12.034  -1.052 -0.39 +0.00    +0.000 A 
DOCKED: ATOM     30  C   UNL     1      14.264 -11.277  -5.891 -0.27 -0.00    +0.000 C 
DOCKED: ATOM     31  H   UNL     1      13.846 -12.886  -3.624 -0.37 -0.00    +0.000 HD
DOCKED: ENDBRANCH  20  21
DOCKED: ENDBRANCH  19  20
DOCKED: ENDBRANCH   1  19
DOCKED: TORSDOF 8
DOCKED: TER
DOCKED: ENDMDL
________________________________________________________________________________


	BEGINNING GENETIC ALGORITHM DOCKING 24 of 100
Run: 24 Seed: 417283173 2099186862 [ Run 24 of 100 GA/GALS ]
Beginning LAMARCKIAN GENETIC ALGORITHM (LGA), with a maximum of 2500000 energy evaluations.

Final-Value: -13.903


	FINAL GENETIC ALGORITHM DOCKED STATE
	_______________________________________________


Detailed state:  trans 19.559 -9.295 -7.691 quatxyzw 0.298286 0.008903 0.950380 -0.087891 center 0.698 0.076 -0.072 ntor 8 -100.9499 -99.8078 130.0014 -179.7815 9.0141 151.1358 49.4602 80.6203
State:	 19.559  -9.295  -7.691   0.299  0.009  0.954 -169.915   -100.95  -99.81  130.00 -179.78    9.01  151.14   49.46   80.62

DOCKED: MODEL       24
DOCKED: USER    Run = 24
DOCKED: USER    DPF = ligand_dock.biased.dpf
DOCKED: USER  
DOCKED: USER    Estimated Free Energy of Binding    =  -10.06 kcal/mol  [=(1)+(2)+(3)-(4)]
DOCKED: USER    Estimated Inhibition Constant, Ki   =   42.29 nM (nanomolar)  [Temperature = 298.15 K]
DOCKED: USER    
DOCKED: USER    (1) Final Intermolecular Energy     =  -12.45 kcal/mol
DOCKED: USER        vdW + Hbond + desolv Energy     =  -12.45 kcal/mol
DOCKED: USER        Electrostatic Energy            =   +0.00 kcal/mol
DOCKED: USER    (2) Final Total Internal Energy     =   -1.46 kcal/mol
DOCKED: USER    (3) Torsional Free Energy           =   +2.39 kcal/mol
DOCKED: USER    (4) Unbound System's Energy  [=(2)] =   -1.46 kcal/mol
DOCKED: USER    
DOCKED: USER    
DOCKED: USER    NEWDPF move ligand.pdbqt
DOCKED: USER    NEWDPF about 0.698000 0.076000 -0.072000
DOCKED: USER    NEWDPF tran0 19.558926 -9.294531 -7.691444
DOCKED: USER    NEWDPF quaternion0 0.298286 0.008903 0.950380 -0.087891
DOCKED: USER    NEWDPF axisangle0 0.299445 0.008937 0.954072 -169.915408
DOCKED: USER    NEWDPF quat0 0.299445 0.008937 0.954072 -169.915408
DOCKED: USER    NEWDPF dihe0 -100.95 -99.81 130.00 -179.78 9.01 151.14 49.46 80.62 
DOCKED: USER  keepresnum = 1 
DOCKED: USER  
DOCKED: REMARK  Name = 
DOCKED: REMARK  9 active torsions:
DOCKED: REMARK  status: ('A' for Active; 'I' for Inactive)
DOCKED: REMARK    1  A    between atoms: C_2  and  C_3
DOCKED: REMARK    2  A    between atoms: C_4  and  C_5
DOCKED: REMARK    3  A    between atoms: C_8  and  C_9
DOCKED: REMARK    4  A    between atoms: C_9  and  N_10
DOCKED: REMARK    5  A    between atoms: N_10  and  C_11
DOCKED: REMARK    6  A    between atoms: C_11  and  C_12
DOCKED: REMARK    7  A    between atoms: C_12  and  C_13
DOCKED: REMARK    8  A    between atoms: C_14  and  C_22
DOCKED: REMARK    9  A    between atoms: N_25  and  O_26
DOCKED: REMARK                            x       y       z     vdW  Elec       q    Type
DOCKED: REMARK                         _______ _______ _______ _____ _____    ______ ____
DOCKED: USER                              x       y       z     vdW  Elec       q    Type
DOCKED: USER                           _______ _______ _______ _____ _____    ______ ____
DOCKED: ROOT
DOCKED: ATOM      1  N   UNL     1      20.134 -10.024  -8.399 -0.20 -0.00    +0.000 N 
DOCKED: ATOM      2  H   UNL     1      19.544  -9.765  -9.191 -0.01 -0.00    +0.000 HD
DOCKED: ATOM      3  H   UNL     1      19.704 -10.761  -7.842 -0.03 -0.00    +0.000 HD
DOCKED: ENDROOT
DOCKED: BRANCH   1   4
DOCKED: ATOM      4  C   UNL     1      20.308  -8.849  -7.536 -0.13 -0.00    +0.000 C 
DOCKED: BRANCH   4   8
DOCKED: ATOM      5  C   UNL     1      20.880 -10.205  -3.468 -0.45 -0.00    +0.000 A 
DOCKED: ATOM      6  C   UNL     1      21.744  -9.246  -4.033 -0.30 -0.00    +0.000 A 
DOCKED: ATOM      7  C   UNL     1      21.553  -8.806  -5.346 -0.25 -0.00    +0.000 A 
DOCKED: ATOM      8  C   UNL     1      20.486  -9.297  -6.112 -0.18 -0.00    +0.000 A 
DOCKED: ATOM      9  C   UNL     1      19.621 -10.249  -5.553 -0.28 -0.00    +0.000 A 
DOCKED: ATOM     10  C   UNL     1      19.810 -10.689  -4.240 -0.39 -0.00    +0.000 A 
DOCKED: BRANCH   5  12
DOCKED: ATOM     11  C   UNL     1      20.203 -10.362  -1.075 -0.57 -0.00    +0.000 C 
DOCKED: ATOM     12  C   UNL     1      21.030 -10.697  -2.076 -0.48 -0.00    +0.000 C 
DOCKED: BRANCH  11  14
DOCKED: ATOM     13  O   UNL     1      20.958 -10.122   1.142 -0.69 -0.00    +0.000 OA
DOCKED: ATOM     14  C   UNL     1      20.357 -10.853   0.311 -0.67 -0.00    +0.000 C 
DOCKED: ATOM     15  N   UNL     1      19.872 -12.136   0.730 -0.58 -0.00    +0.000 N 
DOCKED: ATOM     16  H   UNL     1      19.488 -12.756   0.068 -0.38 -0.00    +0.000 HD
DOCKED: BRANCH  15  17
DOCKED: ATOM     17  O   UNL     1      19.943 -12.498   2.033 -1.65 -0.00    +0.000 OA
DOCKED: ATOM     18  H   UNL     1      20.700 -13.090   2.165 -0.60 -0.00    +0.000 HD
DOCKED: ENDBRANCH  15  17
DOCKED: ENDBRANCH  11  14
DOCKED: ENDBRANCH   5  12
DOCKED: ENDBRANCH   4   8
DOCKED: ENDBRANCH   1   4
DOCKED: BRANCH   1  19
DOCKED: ATOM     19  C   UNL     1      21.416 -10.533  -8.911 -0.23 -0.00    +0.000 C 
DOCKED: BRANCH  19  20
DOCKED: ATOM     20  C   UNL     1      22.226 -11.273  -7.832 -0.33 -0.00    +0.000 C 
DOCKED: BRANCH  20  21
DOCKED: ATOM     21  C   UNL     1      23.636 -11.494  -8.299 -0.37 -0.00    +0.000 A 
DOCKED: ATOM     22  C   UNL     1      24.129 -12.572  -9.037 -0.38 -0.00    +0.000 A 
DOCKED: ATOM     23  N   UNL     1      25.466 -12.460  -9.212 -0.41 -0.00    +0.000 N 
DOCKED: ATOM     24  C   UNL     1      25.827 -11.335  -8.573 -0.36 -0.00    +0.000 A 
DOCKED: ATOM     25  C   UNL     1      24.742 -10.722  -7.998 -0.34 -0.00    +0.000 A 
DOCKED: ATOM     26  C   UNL     1      24.870  -9.547  -7.256 -0.22 -0.00    +0.000 A 
DOCKED: ATOM     27  C   UNL     1      26.156  -8.994  -7.117 -0.30 -0.00    +0.000 A 
DOCKED: ATOM     28  C   UNL     1      27.273  -9.622  -7.713 -0.38 -0.00    +0.000 A 
DOCKED: ATOM     29  C   UNL     1      27.113 -10.809  -8.451 -0.36 -0.00    +0.000 A 
DOCKED: ATOM     30  C   UNL     1      23.312 -13.693  -9.596 -0.36 -0.00    +0.000 C 
DOCKED: ATOM     31  H   UNL     1      26.053 -13.077  -9.707 -0.56 -0.00    +0.000 HD
DOCKED: ENDBRANCH  20  21
DOCKED: ENDBRANCH  19  20
DOCKED: ENDBRANCH   1  19
DOCKED: TORSDOF 8
DOCKED: TER
DOCKED: ENDMDL
________________________________________________________________________________


	BEGINNING GENETIC ALGORITHM DOCKING 25 of 100
Run: 25 Seed: 954768323 1580589520 [ Run 25 of 100 GA/GALS ]
Beginning LAMARCKIAN GENETIC ALGORITHM (LGA), with a maximum of 2500000 energy evaluations.

Final-Value: -13.327


	FINAL GENETIC ALGORITHM DOCKED STATE
	_______________________________________________


Detailed state:  trans 21.634 -9.687 -2.354 quatxyzw 0.807001 -0.090344 -0.578043 -0.080327 center 0.698 0.076 -0.072 ntor 8 -165.4400 -179.8098 -47.1245 -175.7264 19.6822 -151.0206 -47.5924 15.5031
State:	 21.634  -9.687  -2.354   0.810 -0.091 -0.580 -170.785   -165.44 -179.81  -47.12 -175.73   19.68 -151.02  -47.59   15.50

DOCKED: MODEL       25
DOCKED: USER    Run = 25
DOCKED: USER    DPF = ligand_dock.biased.dpf
DOCKED: USER  
DOCKED: USER    Estimated Free Energy of Binding    =  -10.01 kcal/mol  [=(1)+(2)+(3)-(4)]
DOCKED: USER    Estimated Inhibition Constant, Ki   =   46.08 nM (nanomolar)  [Temperature = 298.15 K]
DOCKED: USER    
DOCKED: USER    (1) Final Intermolecular Energy     =  -12.40 kcal/mol
DOCKED: USER        vdW + Hbond + desolv Energy     =  -12.40 kcal/mol
DOCKED: USER        Electrostatic Energy            =   +0.00 kcal/mol
DOCKED: USER    (2) Final Total Internal Energy     =   -0.93 kcal/mol
DOCKED: USER    (3) Torsional Free Energy           =   +2.39 kcal/mol
DOCKED: USER    (4) Unbound System's Energy  [=(2)] =   -0.93 kcal/mol
DOCKED: USER    
DOCKED: USER    
DOCKED: USER    NEWDPF move ligand.pdbqt
DOCKED: USER    NEWDPF about 0.698000 0.076000 -0.072000
DOCKED: USER    NEWDPF tran0 21.634016 -9.687395 -2.354483
DOCKED: USER    NEWDPF quaternion0 0.807001 -0.090344 -0.578043 -0.080327
DOCKED: USER    NEWDPF axisangle0 0.809618 -0.090637 -0.579917 -170.785275
DOCKED: USER    NEWDPF quat0 0.809618 -0.090637 -0.579917 -170.785275
DOCKED: USER    NEWDPF dihe0 -165.44 -179.81 -47.12 -175.73 19.68 -151.02 -47.59 15.50 
DOCKED: USER  keepresnum = 1 
DOCKED: USER  
DOCKED: REMARK  Name = 
DOCKED: REMARK  9 active torsions:
DOCKED: REMARK  status: ('A' for Active; 'I' for Inactive)
DOCKED: REMARK    1  A    between atoms: C_2  and  C_3
DOCKED: REMARK    2  A    between atoms: C_4  and  C_5
DOCKED: REMARK    3  A    between atoms: C_8  and  C_9
DOCKED: REMARK    4  A    between atoms: C_9  and  N_10
DOCKED: REMARK    5  A    between atoms: N_10  and  C_11
DOCKED: REMARK    6  A    between atoms: C_11  and  C_12
DOCKED: REMARK    7  A    between atoms: C_12  and  C_13
DOCKED: REMARK    8  A    between atoms: C_14  and  C_22
DOCKED: REMARK    9  A    between atoms: N_25  and  O_26
DOCKED: REMARK                            x       y       z     vdW  Elec       q    Type
DOCKED: REMARK                         _______ _______ _______ _____ _____    ______ ____
DOCKED: USER                              x       y       z     vdW  Elec       q    Type
DOCKED: USER                           _______ _______ _______ _____ _____    ______ ____
DOCKED: ROOT
DOCKED: ATOM      1  N   UNL     1      21.508 -10.004  -1.237 -0.61 -0.00    +0.000 N 
DOCKED: ATOM      2  H   UNL     1      22.485  -9.789  -1.037 -0.01 -0.00    +0.000 HD
DOCKED: ATOM      3  H   UNL     1      21.405 -10.948  -1.610 -0.05 -0.00    +0.000 HD
DOCKED: ENDROOT
DOCKED: BRANCH   1   4
DOCKED: ATOM      4  C   UNL     1      21.015  -9.063  -2.251 -0.53 -0.00    +0.000 C 
DOCKED: BRANCH   4   8
DOCKED: ATOM      5  C   UNL     1      22.126 -10.534  -6.164 -0.36 -0.00    +0.000 A 
DOCKED: ATOM      6  C   UNL     1      21.776 -11.430  -5.134 -0.49 -0.00    +0.000 A 
DOCKED: ATOM      7  C   UNL     1      21.412 -10.951  -3.872 -0.40 -0.00    +0.000 A 
DOCKED: ATOM      8  C   UNL     1      21.370  -9.572  -3.620 -0.41 -0.00    +0.000 A 
DOCKED: ATOM      9  C   UNL     1      21.715  -8.676  -4.644 -0.27 -0.00    +0.000 A 
DOCKED: ATOM     10  C   UNL     1      22.077  -9.154  -5.906 -0.25 -0.00    +0.000 A 
DOCKED: BRANCH   5  12
DOCKED: ATOM     11  C   UNL     1      23.653 -11.632  -7.800 -0.48 -0.00    +0.000 C 
DOCKED: ATOM     12  C   UNL     1      22.509 -10.989  -7.525 -0.38 -0.00    +0.000 C 
DOCKED: BRANCH  11  14
DOCKED: ATOM     13  O   UNL     1      23.417 -11.592 -10.142 -0.21 -0.00    +0.000 OA
DOCKED: ATOM     14  C   UNL     1      24.031 -12.080  -9.157 -0.39 -0.00    +0.000 C 
DOCKED: ATOM     15  N   UNL     1      25.049 -13.065  -9.385 -0.40 -0.00    +0.000 N 
DOCKED: ATOM     16  H   UNL     1      25.468 -13.523  -8.622 -0.16 -0.00    +0.000 HD
DOCKED: BRANCH  15  17
DOCKED: ATOM     17  O   UNL     1      25.433 -13.365 -10.649 -0.29 -0.00    +0.000 OA
DOCKED: ATOM     18  H   UNL     1      25.944 -14.190 -10.645 -0.58 -0.00    +0.000 HD
DOCKED: ENDBRANCH  15  17
DOCKED: ENDBRANCH  11  14
DOCKED: ENDBRANCH   5  12
DOCKED: ENDBRANCH   4   8
DOCKED: ENDBRANCH   1   4
DOCKED: BRANCH   1  19
DOCKED: ATOM     19  C   UNL     1      20.740  -9.926   0.015 -0.66 -0.00    +0.000 C 
DOCKED: BRANCH  19  20
DOCKED: ATOM     20  C   UNL     1      20.317 -11.312   0.531 -0.67 -0.00    +0.000 C 
DOCKED: BRANCH  20  21
DOCKED: ATOM     21  C   UNL     1      19.112 -11.192   1.419 -0.55 -0.00    +0.000 A 
DOCKED: ATOM     22  C   UNL     1      19.086 -10.885   2.781 -0.58 -0.00    +0.000 A 
DOCKED: ATOM     23  N   UNL     1      17.821 -10.934   3.259 -0.48 +0.00    +0.000 N 
DOCKED: ATOM     24  C   UNL     1      17.049 -11.291   2.218 -0.38 +0.00    +0.000 A 
DOCKED: ATOM     25  C   UNL     1      17.800 -11.465   1.082 -0.44 -0.00    +0.000 A 
DOCKED: ATOM     26  C   UNL     1      17.224 -11.864  -0.125 -0.42 +0.00    +0.000 A 
DOCKED: ATOM     27  C   UNL     1      15.833 -12.078  -0.150 -0.42 +0.00    +0.000 A 
DOCKED: ATOM     28  C   UNL     1      15.060 -11.894   1.018 -0.42 +0.00    +0.000 A 
DOCKED: ATOM     29  C   UNL     1      15.670 -11.497   2.222 -0.43 +0.00    +0.000 A 
DOCKED: ATOM     30  C   UNL     1      20.272 -10.518   3.616 -0.67 -0.00    +0.000 C 
DOCKED: ATOM     31  H   UNL     1      17.527 -10.745   4.179 -0.01 +0.00    +0.000 HD
DOCKED: ENDBRANCH  20  21
DOCKED: ENDBRANCH  19  20
DOCKED: ENDBRANCH   1  19
DOCKED: TORSDOF 8
DOCKED: TER
DOCKED: ENDMDL
________________________________________________________________________________


	BEGINNING GENETIC ALGORITHM DOCKING 26 of 100
Run: 26 Seed: 1087660006 139685395 [ Run 26 of 100 GA/GALS ]
Beginning LAMARCKIAN GENETIC ALGORITHM (LGA), with a maximum of 2500000 energy evaluations.

Final-Value: -13.017


	FINAL GENETIC ALGORITHM DOCKED STATE
	_______________________________________________


Detailed state:  trans 17.101 -10.541 -7.096 quatxyzw -0.025918 0.520885 -0.574971 -0.630409 center 0.698 0.076 -0.072 ntor 8 11.8394 -1.4905 -65.7489 -170.5570 90.1628 -157.2257 -172.2899 162.9333
State:	 17.101 -10.541  -7.096  -0.033  0.671 -0.741 -101.839     11.84   -1.49  -65.75 -170.56   90.16 -157.23 -172.29  162.93

DOCKED: MODEL       26
DOCKED: USER    Run = 26
DOCKED: USER    DPF = ligand_dock.biased.dpf
DOCKED: USER  
DOCKED: USER    Estimated Free Energy of Binding    =   -8.10 kcal/mol  [=(1)+(2)+(3)-(4)]
DOCKED: USER    Estimated Inhibition Constant, Ki   =    1.16 uM (micromolar)  [Temperature = 298.15 K]
DOCKED: USER    
DOCKED: USER    (1) Final Intermolecular Energy     =  -10.48 kcal/mol
DOCKED: USER        vdW + Hbond + desolv Energy     =  -10.48 kcal/mol
DOCKED: USER        Electrostatic Energy            =   +0.00 kcal/mol
DOCKED: USER    (2) Final Total Internal Energy     =   -2.53 kcal/mol
DOCKED: USER    (3) Torsional Free Energy           =   +2.39 kcal/mol
DOCKED: USER    (4) Unbound System's Energy  [=(2)] =   -2.53 kcal/mol
DOCKED: USER    
DOCKED: USER    
DOCKED: USER    NEWDPF move ligand.pdbqt
DOCKED: USER    NEWDPF about 0.698000 0.076000 -0.072000
DOCKED: USER    NEWDPF tran0 17.100743 -10.540622 -7.096259
DOCKED: USER    NEWDPF quaternion0 -0.025918 0.520885 -0.574971 -0.630409
DOCKED: USER    NEWDPF axisangle0 -0.033388 0.671017 -0.740690 -101.839395
DOCKED: USER    NEWDPF quat0 -0.033388 0.671017 -0.740690 -101.839395
DOCKED: USER    NEWDPF dihe0 11.84 -1.49 -65.75 -170.56 90.16 -157.23 -172.29 162.93 
DOCKED: USER  keepresnum = 1 
DOCKED: USER  
DOCKED: REMARK  Name = 
DOCKED: REMARK  9 active torsions:
DOCKED: REMARK  status: ('A' for Active; 'I' for Inactive)
DOCKED: REMARK    1  A    between atoms: C_2  and  C_3
DOCKED: REMARK    2  A    between atoms: C_4  and  C_5
DOCKED: REMARK    3  A    between atoms: C_8  and  C_9
DOCKED: REMARK    4  A    between atoms: C_9  and  N_10
DOCKED: REMARK    5  A    between atoms: N_10  and  C_11
DOCKED: REMARK    6  A    between atoms: C_11  and  C_12
DOCKED: REMARK    7  A    between atoms: C_12  and  C_13
DOCKED: REMARK    8  A    between atoms: C_14  and  C_22
DOCKED: REMARK    9  A    between atoms: N_25  and  O_26
DOCKED: REMARK                            x       y       z     vdW  Elec       q    Type
DOCKED: REMARK                         _______ _______ _______ _____ _____    ______ ____
DOCKED: USER                              x       y       z     vdW  Elec       q    Type
DOCKED: USER                           _______ _______ _______ _____ _____    ______ ____
DOCKED: ROOT
DOCKED: ATOM      1  N   UNL     1      17.547  -9.472  -6.944 -0.12 -0.00    +0.000 N 
DOCKED: ATOM      2  H   UNL     1      16.700  -9.036  -7.308 +0.00 -0.00    +0.000 HD
DOCKED: ATOM      3  H   UNL     1      18.185  -9.729  -7.697 +0.00 -0.00    +0.000 HD
DOCKED: ENDROOT
DOCKED: BRANCH   1   4
DOCKED: ATOM      4  C   UNL     1      17.176 -10.700  -6.229 -0.30 -0.00    +0.000 C 
DOCKED: BRANCH   4   8
DOCKED: ATOM      5  C   UNL     1      18.883 -10.730  -2.254 -0.35 -0.00    +0.000 A 
DOCKED: ATOM      6  C   UNL     1      19.594 -11.270  -3.344 -0.36 -0.00    +0.000 A 
DOCKED: ATOM      7  C   UNL     1      19.042 -11.253  -4.629 -0.35 -0.00    +0.000 A 
DOCKED: ATOM      8  C   UNL     1      17.782 -10.681  -4.853 -0.22 -0.00    +0.000 A 
DOCKED: ATOM      9  C   UNL     1      17.070 -10.140  -3.772 -0.23 -0.00    +0.000 A 
DOCKED: ATOM     10  C   UNL     1      17.623 -10.154  -2.487 -0.14 -0.00    +0.000 A 
DOCKED: BRANCH   5  12
DOCKED: ATOM     11  C   UNL     1      19.266 -11.713   0.004 -0.55 -0.00    +0.000 C 
DOCKED: ATOM     12  C   UNL     1      19.427 -10.711  -0.873 -0.50 -0.00    +0.000 C 
DOCKED: BRANCH  11  14
DOCKED: ATOM     13  O   UNL     1      19.850 -12.767   2.026 -1.51 -0.00    +0.000 OA
DOCKED: ATOM     14  C   UNL     1      19.807 -11.688   1.379 -0.73 -0.00    +0.000 C 
DOCKED: ATOM     15  N   UNL     1      20.259 -10.479   2.005 -0.60 -0.00    +0.000 N 
DOCKED: ATOM     16  H   UNL     1      20.142  -9.616   1.547 -0.35 -0.00    +0.000 HD
DOCKED: BRANCH  15  17
DOCKED: ATOM     17  O   UNL     1      20.845 -10.523   3.226 -0.69 -0.00    +0.000 OA
DOCKED: ATOM     18  H   UNL     1      21.052 -11.443   3.452 -0.46 -0.00    +0.000 HD
DOCKED: ENDBRANCH  15  17
DOCKED: ENDBRANCH  11  14
DOCKED: ENDBRANCH   5  12
DOCKED: ENDBRANCH   4   8
DOCKED: ENDBRANCH   1   4
DOCKED: BRANCH   1  19
DOCKED: ATOM     19  C   UNL     1      18.239  -8.509  -6.073 -0.13 -0.00    +0.000 C 
DOCKED: BRANCH  19  20
DOCKED: ATOM     20  C   UNL     1      19.596  -8.068  -6.648 -0.10 -0.00    +0.000 C 
DOCKED: BRANCH  20  21
DOCKED: ATOM     21  C   UNL     1      20.671  -9.038  -6.250 -0.17 -0.00    +0.000 A 
DOCKED: ATOM     22  C   UNL     1      21.327  -9.125  -5.020 -0.28 -0.00    +0.000 A 
DOCKED: ATOM     23  N   UNL     1      22.285 -10.080  -5.055 -0.25 -0.00    +0.000 N 
DOCKED: ATOM     24  C   UNL     1      22.257 -10.583  -6.301 -0.35 -0.00    +0.000 A 
DOCKED: ATOM     25  C   UNL     1      21.293  -9.970  -7.061 -0.23 -0.00    +0.000 A 
DOCKED: ATOM     26  C   UNL     1      21.090 -10.304  -8.400 -0.20 -0.00    +0.000 A 
DOCKED: ATOM     27  C   UNL     1      21.905 -11.307  -8.958 -0.22 -0.00    +0.000 A 
DOCKED: ATOM     28  C   UNL     1      22.894 -11.941  -8.174 -0.36 -0.00    +0.000 A 
DOCKED: ATOM     29  C   UNL     1      23.079 -11.578  -6.828 -0.42 -0.00    +0.000 A 
DOCKED: ATOM     30  C   UNL     1      21.015  -8.309  -3.806 -0.37 -0.00    +0.000 C 
DOCKED: ATOM     31  H   UNL     1      22.880 -10.350  -4.318 +0.04 -0.00    +0.000 HD
DOCKED: ENDBRANCH  20  21
DOCKED: ENDBRANCH  19  20
DOCKED: ENDBRANCH   1  19
DOCKED: TORSDOF 8
DOCKED: TER
DOCKED: ENDMDL
________________________________________________________________________________


	BEGINNING GENETIC ALGORITHM DOCKING 27 of 100
Run: 27 Seed: 2008707472 1284449238 [ Run 27 of 100 GA/GALS ]
Beginning LAMARCKIAN GENETIC ALGORITHM (LGA), with a maximum of 2500000 energy evaluations.

Final-Value: -13.827


	FINAL GENETIC ALGORITHM DOCKED STATE
	_______________________________________________


Detailed state:  trans 18.385 -9.904 -0.921 quatxyzw -0.238632 -0.173795 -0.673551 0.677628 center 0.698 0.076 -0.072 ntor 8 -0.4089 -67.0689 -92.4880 156.4488 -166.4993 142.8824 -75.8485 -103.3576
State:	 18.385  -9.904  -0.921  -0.324 -0.236 -0.916 94.683     -0.41  -67.07  -92.49  156.45 -166.50  142.88  -75.85 -103.36

DOCKED: MODEL       27
DOCKED: USER    Run = 27
DOCKED: USER    DPF = ligand_dock.biased.dpf
DOCKED: USER  
DOCKED: USER    Estimated Free Energy of Binding    =   -9.75 kcal/mol  [=(1)+(2)+(3)-(4)]
DOCKED: USER    Estimated Inhibition Constant, Ki   =   71.67 nM (nanomolar)  [Temperature = 298.15 K]
DOCKED: USER    
DOCKED: USER    (1) Final Intermolecular Energy     =  -12.13 kcal/mol
DOCKED: USER        vdW + Hbond + desolv Energy     =  -12.13 kcal/mol
DOCKED: USER        Electrostatic Energy            =   +0.00 kcal/mol
DOCKED: USER    (2) Final Total Internal Energy     =   -1.69 kcal/mol
DOCKED: USER    (3) Torsional Free Energy           =   +2.39 kcal/mol
DOCKED: USER    (4) Unbound System's Energy  [=(2)] =   -1.69 kcal/mol
DOCKED: USER    
DOCKED: USER    
DOCKED: USER    NEWDPF move ligand.pdbqt
DOCKED: USER    NEWDPF about 0.698000 0.076000 -0.072000
DOCKED: USER    NEWDPF tran0 18.384972 -9.904357 -0.920655
DOCKED: USER    NEWDPF quaternion0 -0.238632 -0.173795 -0.673551 0.677628
DOCKED: USER    NEWDPF axisangle0 -0.324490 -0.236325 -0.915891 94.682943
DOCKED: USER    NEWDPF quat0 -0.324490 -0.236325 -0.915891 94.682943
DOCKED: USER    NEWDPF dihe0 -0.41 -67.07 -92.49 156.45 -166.50 142.88 -75.85 -103.36 
DOCKED: USER  keepresnum = 1 
DOCKED: USER  
DOCKED: REMARK  Name = 
DOCKED: REMARK  9 active torsions:
DOCKED: REMARK  status: ('A' for Active; 'I' for Inactive)
DOCKED: REMARK    1  A    between atoms: C_2  and  C_3
DOCKED: REMARK    2  A    between atoms: C_4  and  C_5
DOCKED: REMARK    3  A    between atoms: C_8  and  C_9
DOCKED: REMARK    4  A    between atoms: C_9  and  N_10
DOCKED: REMARK    5  A    between atoms: N_10  and  C_11
DOCKED: REMARK    6  A    between atoms: C_11  and  C_12
DOCKED: REMARK    7  A    between atoms: C_12  and  C_13
DOCKED: REMARK    8  A    between atoms: C_14  and  C_22
DOCKED: REMARK    9  A    between atoms: N_25  and  O_26
DOCKED: REMARK                            x       y       z     vdW  Elec       q    Type
DOCKED: REMARK                         _______ _______ _______ _____ _____    ______ ____
DOCKED: USER                              x       y       z     vdW  Elec       q    Type
DOCKED: USER                           _______ _______ _______ _____ _____    ______ ____
DOCKED: ROOT
DOCKED: ATOM      1  N   UNL     1      17.747 -10.882  -0.874 -0.35 -0.00    +0.000 N 
DOCKED: ATOM      2  H   UNL     1      17.373 -10.716  -1.808 -0.01 -0.00    +0.000 HD
DOCKED: ATOM      3  H   UNL     1      17.206 -10.388  -0.165 -0.01 -0.00    +0.000 HD
DOCKED: ENDROOT
DOCKED: BRANCH   1   4
DOCKED: ATOM      4  C   UNL     1      19.126 -10.378  -0.820 -0.32 -0.00    +0.000 C 
DOCKED: BRANCH   4   8
DOCKED: ATOM      5  C   UNL     1      21.039 -11.050  -4.641 -0.47 -0.00    +0.000 A 
DOCKED: ATOM      6  C   UNL     1      19.663 -11.307  -4.473 -0.43 -0.00    +0.000 A 
DOCKED: ATOM      7  C   UNL     1      19.047 -11.082  -3.238 -0.24 -0.00    +0.000 A 
DOCKED: ATOM      8  C   UNL     1      19.785 -10.580  -2.156 -0.42 -0.00    +0.000 A 
DOCKED: ATOM      9  C   UNL     1      21.154 -10.321  -2.320 -0.51 -0.00    +0.000 A 
DOCKED: ATOM     10  C   UNL     1      21.770 -10.543  -3.555 -0.39 -0.00    +0.000 A 
DOCKED: BRANCH   5  12
DOCKED: ATOM     11  C   UNL     1      22.708 -12.169  -6.116 -0.48 -0.00    +0.000 C 
DOCKED: ATOM     12  C   UNL     1      21.740 -11.259  -5.933 -0.50 -0.00    +0.000 C 
DOCKED: BRANCH  11  14
DOCKED: ATOM     13  O   UNL     1      24.664 -12.375  -7.409 -0.95 +0.00    +0.000 OA
DOCKED: ATOM     14  C   UNL     1      23.405 -12.371  -7.403 -0.48 -0.00    +0.000 C 
DOCKED: ATOM     15  N   UNL     1      22.699 -12.536  -8.641 -0.32 -0.00    +0.000 N 
DOCKED: ATOM     16  H   UNL     1      21.720 -12.438  -8.665 -0.58 -0.00    +0.000 HD
DOCKED: BRANCH  15  17
DOCKED: ATOM     17  O   UNL     1      23.378 -12.824  -9.778 -0.39 -0.00    +0.000 OA
DOCKED: ATOM     18  H   UNL     1      24.326 -12.879  -9.584 -0.02 -0.00    +0.000 HD
DOCKED: ENDBRANCH  15  17
DOCKED: ENDBRANCH  11  14
DOCKED: ENDBRANCH   5  12
DOCKED: ENDBRANCH   4   8
DOCKED: ENDBRANCH   1   4
DOCKED: BRANCH   1  19
DOCKED: ATOM     19  C   UNL     1      17.670 -12.322  -0.581 -0.34 -0.00    +0.000 C 
DOCKED: BRANCH  19  20
DOCKED: ATOM     20  C   UNL     1      18.070 -12.648   0.868 -0.40 -0.00    +0.000 C 
DOCKED: BRANCH  20  21
DOCKED: ATOM     21  C   UNL     1      18.025 -11.408   1.713 -0.45 -0.00    +0.000 A 
DOCKED: ATOM     22  C   UNL     1      19.103 -10.733   2.291 -0.56 -0.00    +0.000 A 
DOCKED: ATOM     23  N   UNL     1      18.669  -9.693   3.041 -0.44 -0.00    +0.000 N 
DOCKED: ATOM     24  C   UNL     1      17.327  -9.718   2.962 -0.33 +0.00    +0.000 A 
DOCKED: ATOM     25  C   UNL     1      16.897 -10.752   2.168 -0.41 +0.00    +0.000 A 
DOCKED: ATOM     26  C   UNL     1      15.541 -10.999   1.955 -0.37 +0.00    +0.000 A 
DOCKED: ATOM     27  C   UNL     1      14.612 -10.144   2.576 -0.32 +0.00    +0.000 A 
DOCKED: ATOM     28  C   UNL     1      15.054  -9.077   3.389 -0.34 +0.00    +0.000 A 
DOCKED: ATOM     29  C   UNL     1      16.429  -8.856   3.591 -0.12 +0.00    +0.000 A 
DOCKED: ATOM     30  C   UNL     1      20.547 -11.069   2.100 -0.71 -0.00    +0.000 C 
DOCKED: ATOM     31  H   UNL     1      19.223  -9.051   3.542 -0.49 -0.00    +0.000 HD
DOCKED: ENDBRANCH  20  21
DOCKED: ENDBRANCH  19  20
DOCKED: ENDBRANCH   1  19
DOCKED: TORSDOF 8
DOCKED: TER
DOCKED: ENDMDL
________________________________________________________________________________


	BEGINNING GENETIC ALGORITHM DOCKING 28 of 100
Run: 28 Seed: 2005734355 2135267699 [ Run 28 of 100 GA/GALS ]
Beginning LAMARCKIAN GENETIC ALGORITHM (LGA), with a maximum of 2500000 energy evaluations.

Final-Value: -13.984


	FINAL GENETIC ALGORITHM DOCKED STATE
	_______________________________________________


Detailed state:  trans 21.075 -10.907 1.820 quatxyzw -0.023329 -0.748762 0.168409 -0.640663 center 0.698 0.076 -0.072 ntor 8 -0.0610 179.8442 -129.3458 158.1179 -44.7657 -174.9891 -167.1128 85.5923
State:	 21.075 -10.907   1.820  -0.030 -0.975  0.219 -100.317     -0.06  179.84 -129.35  158.12  -44.77 -174.99 -167.11   85.59

DOCKED: MODEL       28
DOCKED: USER    Run = 28
DOCKED: USER    DPF = ligand_dock.biased.dpf
DOCKED: USER  
DOCKED: USER    Estimated Free Energy of Binding    =   -9.90 kcal/mol  [=(1)+(2)+(3)-(4)]
DOCKED: USER    Estimated Inhibition Constant, Ki   =   55.42 nM (nanomolar)  [Temperature = 298.15 K]
DOCKED: USER    
DOCKED: USER    (1) Final Intermolecular Energy     =  -12.29 kcal/mol
DOCKED: USER        vdW + Hbond + desolv Energy     =  -12.29 kcal/mol
DOCKED: USER        Electrostatic Energy            =   +0.00 kcal/mol
DOCKED: USER    (2) Final Total Internal Energy     =   -1.70 kcal/mol
DOCKED: USER    (3) Torsional Free Energy           =   +2.39 kcal/mol
DOCKED: USER    (4) Unbound System's Energy  [=(2)] =   -1.70 kcal/mol
DOCKED: USER    
DOCKED: USER    
DOCKED: USER    NEWDPF move ligand.pdbqt
DOCKED: USER    NEWDPF about 0.698000 0.076000 -0.072000
DOCKED: USER    NEWDPF tran0 21.075416 -10.906504 1.820123
DOCKED: USER    NEWDPF quaternion0 -0.023329 -0.748762 0.168409 -0.640663
DOCKED: USER    NEWDPF axisangle0 -0.030384 -0.975177 0.219333 -100.317451
DOCKED: USER    NEWDPF quat0 -0.030384 -0.975177 0.219333 -100.317451
DOCKED: USER    NEWDPF dihe0 -0.06 179.84 -129.35 158.12 -44.77 -174.99 -167.11 85.59 
DOCKED: USER  keepresnum = 1 
DOCKED: USER  
DOCKED: REMARK  Name = 
DOCKED: REMARK  9 active torsions:
DOCKED: REMARK  status: ('A' for Active; 'I' for Inactive)
DOCKED: REMARK    1  A    between atoms: C_2  and  C_3
DOCKED: REMARK    2  A    between atoms: C_4  and  C_5
DOCKED: REMARK    3  A    between atoms: C_8  and  C_9
DOCKED: REMARK    4  A    between atoms: C_9  and  N_10
DOCKED: REMARK    5  A    between atoms: N_10  and  C_11
DOCKED: REMARK    6  A    between atoms: C_11  and  C_12
DOCKED: REMARK    7  A    between atoms: C_12  and  C_13
DOCKED: REMARK    8  A    between atoms: C_14  and  C_22
DOCKED: REMARK    9  A    between atoms: N_25  and  O_26
DOCKED: REMARK                            x       y       z     vdW  Elec       q    Type
DOCKED: REMARK                         _______ _______ _______ _____ _____    ______ ____
DOCKED: USER                              x       y       z     vdW  Elec       q    Type
DOCKED: USER                           _______ _______ _______ _____ _____    ______ ____
DOCKED: ROOT
DOCKED: ATOM      1  N   UNL     1      21.369 -10.561   0.744 -0.52 -0.00    +0.000 N 
DOCKED: ATOM      2  H   UNL     1      22.357 -10.523   0.995 -0.20 -0.00    +0.000 HD
DOCKED: ATOM      3  H   UNL     1      20.891  -9.695   0.988 -0.27 -0.00    +0.000 HD
DOCKED: ENDROOT
DOCKED: BRANCH   1   4
DOCKED: ATOM      4  C   UNL     1      20.732 -11.653   1.491 -0.73 -0.00    +0.000 C 
DOCKED: BRANCH   4   8
DOCKED: ATOM      5  C   UNL     1      16.499 -10.909   1.977 -0.39 +0.00    +0.000 A 
DOCKED: ATOM      6  C   UNL     1      17.433 -10.352   2.874 -0.44 +0.00    +0.000 A 
DOCKED: ATOM      7  C   UNL     1      18.801 -10.590   2.710 -0.54 -0.00    +0.000 A 
DOCKED: ATOM      8  C   UNL     1      19.264 -11.369   1.640 -0.58 -0.00    +0.000 A 
DOCKED: ATOM      9  C   UNL     1      18.339 -11.923   0.743 -0.51 -0.00    +0.000 A 
DOCKED: ATOM     10  C   UNL     1      16.971 -11.684   0.905 -0.42 +0.00    +0.000 A 
DOCKED: BRANCH   5  12
DOCKED: ATOM     11  C   UNL     1      14.110 -11.546   1.667 -0.46 +0.00    +0.000 C 
DOCKED: ATOM     12  C   UNL     1      15.038 -10.678   2.097 -0.40 +0.00    +0.000 C 
DOCKED: BRANCH  11  14
DOCKED: ATOM     13  O   UNL     1      12.255 -10.142   2.029 -0.26 +0.00    +0.000 OA
DOCKED: ATOM     14  C   UNL     1      12.656 -11.311   1.786 -0.39 +0.00    +0.000 C 
DOCKED: ATOM     15  N   UNL     1      11.694 -12.368   1.662 -0.40 +0.00    +0.000 N 
DOCKED: ATOM     16  H   UNL     1      11.997 -13.300   1.569 -0.54 +0.00    +0.000 HD
DOCKED: BRANCH  15  17
DOCKED: ATOM     17  O   UNL     1      10.369 -12.086   1.673 -0.51 +0.00    +0.000 OA
DOCKED: ATOM     18  H   UNL     1      10.241 -11.130   1.772 -0.02 +0.00    +0.000 HD
DOCKED: ENDBRANCH  15  17
DOCKED: ENDBRANCH  11  14
DOCKED: ENDBRANCH   5  12
DOCKED: ENDBRANCH   4   8
DOCKED: ENDBRANCH   1   4
DOCKED: BRANCH   1  19
DOCKED: ATOM     19  C   UNL     1      21.257 -10.744  -0.712 -0.60 -0.00    +0.000 C 
DOCKED: BRANCH  19  20
DOCKED: ATOM     20  C   UNL     1      20.265  -9.759  -1.353 -0.51 -0.00    +0.000 C 
DOCKED: BRANCH  20  21
DOCKED: ATOM     21  C   UNL     1      20.808  -9.246  -2.655 -0.44 -0.00    +0.000 A 
DOCKED: ATOM     22  C   UNL     1      21.260  -7.956  -2.939 -0.38 -0.00    +0.000 A 
DOCKED: ATOM     23  N   UNL     1      21.612  -7.848  -4.242 -0.29 -0.00    +0.000 N 
DOCKED: ATOM     24  C   UNL     1      21.366  -9.051  -4.789 -0.30 -0.00    +0.000 A 
DOCKED: ATOM     25  C   UNL     1      20.869  -9.927  -3.857 -0.41 -0.00    +0.000 A 
DOCKED: ATOM     26  C   UNL     1      20.511 -11.233  -4.193 -0.43 -0.00    +0.000 A 
DOCKED: ATOM     27  C   UNL     1      20.684 -11.638  -5.529 -0.31 -0.00    +0.000 A 
DOCKED: ATOM     28  C   UNL     1      21.201 -10.738  -6.488 -0.32 -0.00    +0.000 A 
DOCKED: ATOM     29  C   UNL     1      21.547  -9.425  -6.120 -0.25 -0.00    +0.000 A 
DOCKED: ATOM     30  C   UNL     1      21.379  -6.836  -1.955 -0.46 -0.00    +0.000 C 
DOCKED: ATOM     31  H   UNL     1      21.975  -7.053  -4.694 -0.02 -0.00    +0.000 HD
DOCKED: ENDBRANCH  20  21
DOCKED: ENDBRANCH  19  20
DOCKED: ENDBRANCH   1  19
DOCKED: TORSDOF 8
DOCKED: TER
DOCKED: ENDMDL
________________________________________________________________________________


	BEGINNING GENETIC ALGORITHM DOCKING 29 of 100
Run: 29 Seed: 1327880424 1624893385 [ Run 29 of 100 GA/GALS ]
Beginning LAMARCKIAN GENETIC ALGORITHM (LGA), with a maximum of 2500000 energy evaluations.

Final-Value: -15.389


	FINAL GENETIC ALGORITHM DOCKED STATE
	_______________________________________________


Detailed state:  trans 14.806 -12.815 0.049 quatxyzw 0.148336 -0.058521 -0.910667 -0.381126 center 0.698 0.076 -0.072 ntor 8 -10.0619 132.0165 -170.6898 9.3340 -45.2829 -125.3591 177.0895 165.4612
State:	 14.806 -12.815   0.049   0.160 -0.063 -0.985 -135.193    -10.06  132.02 -170.69    9.33  -45.28 -125.36  177.09  165.46

DOCKED: MODEL       29
DOCKED: USER    Run = 29
DOCKED: USER    DPF = ligand_dock.biased.dpf
DOCKED: USER  
DOCKED: USER    Estimated Free Energy of Binding    =  -11.39 kcal/mol  [=(1)+(2)+(3)-(4)]
DOCKED: USER    Estimated Inhibition Constant, Ki   =    4.47 nM (nanomolar)  [Temperature = 298.15 K]
DOCKED: USER    
DOCKED: USER    (1) Final Intermolecular Energy     =  -13.78 kcal/mol
DOCKED: USER        vdW + Hbond + desolv Energy     =  -13.78 kcal/mol
DOCKED: USER        Electrostatic Energy            =   +0.00 kcal/mol
DOCKED: USER    (2) Final Total Internal Energy     =   -1.61 kcal/mol
DOCKED: USER    (3) Torsional Free Energy           =   +2.39 kcal/mol
DOCKED: USER    (4) Unbound System's Energy  [=(2)] =   -1.61 kcal/mol
DOCKED: USER    
DOCKED: USER    
DOCKED: USER    NEWDPF move ligand.pdbqt
DOCKED: USER    NEWDPF about 0.698000 0.076000 -0.072000
DOCKED: USER    NEWDPF tran0 14.805862 -12.815130 0.048569
DOCKED: USER    NEWDPF quaternion0 0.148336 -0.058521 -0.910667 -0.381126
DOCKED: USER    NEWDPF axisangle0 0.160446 -0.063299 -0.985013 -135.193118
DOCKED: USER    NEWDPF quat0 0.160446 -0.063299 -0.985013 -135.193118
DOCKED: USER    NEWDPF dihe0 -10.06 132.02 -170.69 9.33 -45.28 -125.36 177.09 165.46 
DOCKED: USER  keepresnum = 1 
DOCKED: USER  
DOCKED: REMARK  Name = 
DOCKED: REMARK  9 active torsions:
DOCKED: REMARK  status: ('A' for Active; 'I' for Inactive)
DOCKED: REMARK    1  A    between atoms: C_2  and  C_3
DOCKED: REMARK    2  A    between atoms: C_4  and  C_5
DOCKED: REMARK    3  A    between atoms: C_8  and  C_9
DOCKED: REMARK    4  A    between atoms: C_9  and  N_10
DOCKED: REMARK    5  A    between atoms: N_10  and  C_11
DOCKED: REMARK    6  A    between atoms: C_11  and  C_12
DOCKED: REMARK    7  A    between atoms: C_12  and  C_13
DOCKED: REMARK    8  A    between atoms: C_14  and  C_22
DOCKED: REMARK    9  A    between atoms: N_25  and  O_26
DOCKED: REMARK                            x       y       z     vdW  Elec       q    Type
DOCKED: REMARK                         _______ _______ _______ _____ _____    ______ ____
DOCKED: USER                              x       y       z     vdW  Elec       q    Type
DOCKED: USER                           _______ _______ _______ _____ _____    ______ ____
DOCKED: ROOT
DOCKED: ATOM      1  N   UNL     1      15.927 -12.514   0.181 -0.49 +0.00    +0.000 N 
DOCKED: ATOM      2  H   UNL     1      16.046 -12.409  -0.827 -0.01 +0.00    +0.000 HD
DOCKED: ATOM      3  H   UNL     1      16.059 -13.482   0.471 -0.04 +0.00    +0.000 HD
DOCKED: ENDROOT
DOCKED: BRANCH   1   4
DOCKED: ATOM      4  C   UNL     1      14.557 -12.121   0.538 -0.48 +0.00    +0.000 C 
DOCKED: BRANCH   4   8
DOCKED: ATOM      5  C   UNL     1      14.593  -9.059   3.594 -0.32 +0.00    +0.000 A 
DOCKED: ATOM      6  C   UNL     1      14.346 -10.405   3.929 -0.34 +0.00    +0.000 A 
DOCKED: ATOM      7  C   UNL     1      14.341 -11.393   2.940 -0.34 +0.00    +0.000 A 
DOCKED: ATOM      8  C   UNL     1      14.602 -11.061   1.603 -0.35 +0.00    +0.000 A 
DOCKED: ATOM      9  C   UNL     1      14.852  -9.723   1.264 -0.24 +0.00    +0.000 A 
DOCKED: ATOM     10  C   UNL     1      14.859  -8.735   2.253 -0.27 +0.00    +0.000 A 
DOCKED: BRANCH   5  12
DOCKED: ATOM     11  C   UNL     1      15.104  -6.745   4.364 -0.43 +0.00    +0.000 C 
DOCKED: ATOM     12  C   UNL     1      14.623  -7.974   4.605 -0.41 +0.00    +0.000 C 
DOCKED: BRANCH  11  14
DOCKED: ATOM     13  O   UNL     1      14.222  -5.635   6.244 -1.08 +0.00    +0.000 OA
DOCKED: ATOM     14  C   UNL     1      15.134  -5.668   5.376 -0.43 +0.00    +0.000 C 
DOCKED: ATOM     15  N   UNL     1      16.145  -4.650   5.385 -0.45 -0.00    +0.000 N 
DOCKED: ATOM     16  H   UNL     1      16.805  -4.608   4.656 -0.51 -0.00    +0.000 HD
DOCKED: BRANCH  15  17
DOCKED: ATOM     17  O   UNL     1      16.191  -3.746   6.393 -0.69 +0.00    +0.000 OA
DOCKED: ATOM     18  H   UNL     1      15.391  -3.824   6.935 -0.06 +0.00    +0.000 HD
DOCKED: ENDBRANCH  15  17
DOCKED: ENDBRANCH  11  14
DOCKED: ENDBRANCH   5  12
DOCKED: ENDBRANCH   4   8
DOCKED: ENDBRANCH   1   4
DOCKED: BRANCH   1  19
DOCKED: ATOM     19  C   UNL     1      16.937 -11.693   0.866 -0.48 +0.00    +0.000 C 
DOCKED: BRANCH  19  20
DOCKED: ATOM     20  C   UNL     1      18.302 -12.397   0.956 -0.57 -0.00    +0.000 C 
DOCKED: BRANCH  20  21
DOCKED: ATOM     21  C   UNL     1      19.410 -11.423   0.679 -0.56 -0.00    +0.000 A 
DOCKED: ATOM     22  C   UNL     1      20.236 -10.786   1.608 -0.62 -0.00    +0.000 A 
DOCKED: ATOM     23  N   UNL     1      21.076  -9.924   0.989 -0.48 -0.00    +0.000 N 
DOCKED: ATOM     24  C   UNL     1      20.775  -9.992  -0.319 -0.60 -0.00    +0.000 A 
DOCKED: ATOM     25  C   UNL     1      19.761 -10.889  -0.547 -0.49 -0.00    +0.000 A 
DOCKED: ATOM     26  C   UNL     1      19.254 -11.115  -1.827 -0.34 -0.00    +0.000 A 
DOCKED: ATOM     27  C   UNL     1      19.823 -10.396  -2.895 -0.40 -0.00    +0.000 A 
DOCKED: ATOM     28  C   UNL     1      20.870  -9.477  -2.661 -0.46 -0.00    +0.000 A 
DOCKED: ATOM     29  C   UNL     1      21.356  -9.266  -1.358 -0.53 -0.00    +0.000 A 
DOCKED: ATOM     30  C   UNL     1      20.236 -11.025   3.084 -0.75 -0.00    +0.000 C 
DOCKED: ATOM     31  H   UNL     1      21.766  -9.363   1.411 -0.54 -0.00    +0.000 HD
DOCKED: ENDBRANCH  20  21
DOCKED: ENDBRANCH  19  20
DOCKED: ENDBRANCH   1  19
DOCKED: TORSDOF 8
DOCKED: TER
DOCKED: ENDMDL
________________________________________________________________________________


	BEGINNING GENETIC ALGORITHM DOCKING 30 of 100
Run: 30 Seed: 781627257 1806290415 [ Run 30 of 100 GA/GALS ]
Beginning LAMARCKIAN GENETIC ALGORITHM (LGA), with a maximum of 2500000 energy evaluations.

Final-Value: -15.266


	FINAL GENETIC ALGORITHM DOCKED STATE
	_______________________________________________


Detailed state:  trans 19.969 -10.582 -6.321 quatxyzw 0.279766 0.167782 0.923042 0.203897 center 0.698 0.076 -0.072 ntor 8 7.8600 2.8276 27.6793 173.9808 -32.3540 -152.2765 -154.4299 68.3568
State:	 19.969 -10.582  -6.321   0.286  0.171  0.943 156.470      7.86    2.83   27.68  173.98  -32.35 -152.28 -154.43   68.36

DOCKED: MODEL       30
DOCKED: USER    Run = 30
DOCKED: USER    DPF = ligand_dock.biased.dpf
DOCKED: USER  
DOCKED: USER    Estimated Free Energy of Binding    =  -11.32 kcal/mol  [=(1)+(2)+(3)-(4)]
DOCKED: USER    Estimated Inhibition Constant, Ki   =    5.01 nM (nanomolar)  [Temperature = 298.15 K]
DOCKED: USER    
DOCKED: USER    (1) Final Intermolecular Energy     =  -13.71 kcal/mol
DOCKED: USER        vdW + Hbond + desolv Energy     =  -13.71 kcal/mol
DOCKED: USER        Electrostatic Energy            =   +0.00 kcal/mol
DOCKED: USER    (2) Final Total Internal Energy     =   -1.56 kcal/mol
DOCKED: USER    (3) Torsional Free Energy           =   +2.39 kcal/mol
DOCKED: USER    (4) Unbound System's Energy  [=(2)] =   -1.56 kcal/mol
DOCKED: USER    
DOCKED: USER    
DOCKED: USER    NEWDPF move ligand.pdbqt
DOCKED: USER    NEWDPF about 0.698000 0.076000 -0.072000
DOCKED: USER    NEWDPF tran0 19.968554 -10.581656 -6.320576
DOCKED: USER    NEWDPF quaternion0 0.279766 0.167782 0.923042 0.203897
DOCKED: USER    NEWDPF axisangle0 0.285769 0.171383 0.942849 156.470138
DOCKED: USER    NEWDPF quat0 0.285769 0.171383 0.942849 156.470138
DOCKED: USER    NEWDPF dihe0 7.86 2.83 27.68 173.98 -32.35 -152.28 -154.43 68.36 
DOCKED: USER  keepresnum = 1 
DOCKED: USER  
DOCKED: REMARK  Name = 
DOCKED: REMARK  9 active torsions:
DOCKED: REMARK  status: ('A' for Active; 'I' for Inactive)
DOCKED: REMARK    1  A    between atoms: C_2  and  C_3
DOCKED: REMARK    2  A    between atoms: C_4  and  C_5
DOCKED: REMARK    3  A    between atoms: C_8  and  C_9
DOCKED: REMARK    4  A    between atoms: C_9  and  N_10
DOCKED: REMARK    5  A    between atoms: N_10  and  C_11
DOCKED: REMARK    6  A    between atoms: C_11  and  C_12
DOCKED: REMARK    7  A    between atoms: C_12  and  C_13
DOCKED: REMARK    8  A    between atoms: C_14  and  C_22
DOCKED: REMARK    9  A    between atoms: N_25  and  O_26
DOCKED: REMARK                            x       y       z     vdW  Elec       q    Type
DOCKED: REMARK                         _______ _______ _______ _____ _____    ______ ____
DOCKED: USER                              x       y       z     vdW  Elec       q    Type
DOCKED: USER                           _______ _______ _______ _____ _____    ______ ____
DOCKED: ROOT
DOCKED: ATOM      1  N   UNL     1      20.890 -10.895  -6.967 -0.30 -0.00    +0.000 N 
DOCKED: ATOM      2  H   UNL     1      20.288 -11.153  -7.750 -0.12 -0.00    +0.000 HD
DOCKED: ATOM      3  H   UNL     1      20.983 -11.662  -6.302 -0.37 -0.00    +0.000 HD
DOCKED: ENDROOT
DOCKED: BRANCH   1   4
DOCKED: ATOM      4  C   UNL     1      20.285  -9.757  -6.261 -0.25 -0.00    +0.000 C 
DOCKED: BRANCH   4   8
DOCKED: ATOM      5  C   UNL     1      20.543 -10.311  -1.979 -0.49 -0.00    +0.000 A 
DOCKED: ATOM      6  C   UNL     1      19.657 -11.088  -2.751 -0.32 -0.00    +0.000 A 
DOCKED: ATOM      7  C   UNL     1      19.581 -10.911  -4.135 -0.40 -0.00    +0.000 A 
DOCKED: ATOM      8  C   UNL     1      20.399  -9.971  -4.778 -0.32 -0.00    +0.000 A 
DOCKED: ATOM      9  C   UNL     1      21.285  -9.196  -4.014 -0.36 -0.00    +0.000 A 
DOCKED: ATOM     10  C   UNL     1      21.364  -9.374  -2.630 -0.46 -0.00    +0.000 A 
DOCKED: BRANCH   5  12
DOCKED: ATOM     11  C   UNL     1      20.040 -11.415   0.198 -0.57 -0.00    +0.000 C 
DOCKED: ATOM     12  C   UNL     1      20.673 -10.467  -0.509 -0.67 -0.00    +0.000 C 
DOCKED: BRANCH  11  14
DOCKED: ATOM     13  O   UNL     1      19.849 -12.665   2.183 -1.52 -0.00    +0.000 OA
DOCKED: ATOM     14  C   UNL     1      20.171 -11.565   1.662 -0.76 -0.00    +0.000 C 
DOCKED: ATOM     15  N   UNL     1      20.625 -10.498   2.507 -0.57 -0.00    +0.000 N 
DOCKED: ATOM     16  H   UNL     1      20.788  -9.605   2.125 -0.54 -0.00    +0.000 HD
DOCKED: BRANCH  15  17
DOCKED: ATOM     17  O   UNL     1      20.829 -10.716   3.828 -0.73 -0.00    +0.000 OA
DOCKED: ATOM     18  H   UNL     1      20.745 -11.663   4.017 -0.47 -0.00    +0.000 HD
DOCKED: ENDBRANCH  15  17
DOCKED: ENDBRANCH  11  14
DOCKED: ENDBRANCH   5  12
DOCKED: ENDBRANCH   4   8
DOCKED: ENDBRANCH   1   4
DOCKED: BRANCH   1  19
DOCKED: ATOM     19  C   UNL     1      22.230 -10.579  -7.485 -0.33 -0.00    +0.000 C 
DOCKED: BRANCH  19  20
DOCKED: ATOM     20  C   UNL     1      23.269 -11.652  -7.115 -0.51 -0.00    +0.000 C 
DOCKED: BRANCH  20  21
DOCKED: ATOM     21  C   UNL     1      24.356 -11.704  -8.150 -0.42 -0.00    +0.000 A 
DOCKED: ATOM     22  C   UNL     1      24.434 -12.546  -9.261 -0.37 -0.00    +0.000 A 
DOCKED: ATOM     23  N   UNL     1      25.594 -12.350  -9.929 -0.28 -0.00    +0.000 N 
DOCKED: ATOM     24  C   UNL     1      26.261 -11.409  -9.239 -0.30 -0.00    +0.000 A 
DOCKED: ATOM     25  C   UNL     1      25.543 -10.996  -8.145 -0.35 -0.00    +0.000 A 
DOCKED: ATOM     26  C   UNL     1      26.041 -10.041  -7.257 -0.18 -0.00    +0.000 A 
DOCKED: ATOM     27  C   UNL     1      27.312  -9.499  -7.520 -0.39 -0.00    +0.000 A 
DOCKED: ATOM     28  C   UNL     1      28.050  -9.921  -8.649 -0.33 -0.00    +0.000 A 
DOCKED: ATOM     29  C   UNL     1      27.524 -10.890  -9.524 -0.27 -0.00    +0.000 A 
DOCKED: ATOM     30  C   UNL     1      23.383 -13.517  -9.696 -0.42 -0.00    +0.000 C 
DOCKED: ATOM     31  H   UNL     1      25.889 -12.803 -10.752 -0.34 -0.00    +0.000 HD
DOCKED: ENDBRANCH  20  21
DOCKED: ENDBRANCH  19  20
DOCKED: ENDBRANCH   1  19
DOCKED: TORSDOF 8
DOCKED: TER
DOCKED: ENDMDL
________________________________________________________________________________


	BEGINNING GENETIC ALGORITHM DOCKING 31 of 100
Run: 31 Seed: 689709110 1392588178 [ Run 31 of 100 GA/GALS ]
Beginning LAMARCKIAN GENETIC ALGORITHM (LGA), with a maximum of 2500000 energy evaluations.

Final-Value: -15.055


	FINAL GENETIC ALGORITHM DOCKED STATE
	_______________________________________________


Detailed state:  trans 13.292 -9.737 -3.905 quatxyzw 0.157615 0.501615 0.242117 -0.815426 center 0.698 0.076 -0.072 ntor 8 -8.1313 -162.3370 -146.3321 -136.1317 28.2928 179.1789 1.3788 136.0387
State:	 13.292  -9.737  -3.905   0.272  0.867  0.418 -70.741     -8.13 -162.34 -146.33 -136.13   28.29  179.18    1.38  136.04

DOCKED: MODEL       31
DOCKED: USER    Run = 31
DOCKED: USER    DPF = ligand_dock.biased.dpf
DOCKED: USER  
DOCKED: USER    Estimated Free Energy of Binding    =   -9.69 kcal/mol  [=(1)+(2)+(3)-(4)]
DOCKED: USER    Estimated Inhibition Constant, Ki   =   79.12 nM (nanomolar)  [Temperature = 298.15 K]
DOCKED: USER    
DOCKED: USER    (1) Final Intermolecular Energy     =  -12.07 kcal/mol
DOCKED: USER        vdW + Hbond + desolv Energy     =  -12.07 kcal/mol
DOCKED: USER        Electrostatic Energy            =   +0.00 kcal/mol
DOCKED: USER    (2) Final Total Internal Energy     =   -2.98 kcal/mol
DOCKED: USER    (3) Torsional Free Energy           =   +2.39 kcal/mol
DOCKED: USER    (4) Unbound System's Energy  [=(2)] =   -2.98 kcal/mol
DOCKED: USER    
DOCKED: USER    
DOCKED: USER    NEWDPF move ligand.pdbqt
DOCKED: USER    NEWDPF about 0.698000 0.076000 -0.072000
DOCKED: USER    NEWDPF tran0 13.292218 -9.736728 -3.905069
DOCKED: USER    NEWDPF quaternion0 0.157615 0.501615 0.242117 -0.815426
DOCKED: USER    NEWDPF axisangle0 0.272284 0.866554 0.418265 -70.741019
DOCKED: USER    NEWDPF quat0 0.272284 0.866554 0.418265 -70.741019
DOCKED: USER    NEWDPF dihe0 -8.13 -162.34 -146.33 -136.13 28.29 179.18 1.38 136.04 
DOCKED: USER  keepresnum = 1 
DOCKED: USER  
DOCKED: REMARK  Name = 
DOCKED: REMARK  9 active torsions:
DOCKED: REMARK  status: ('A' for Active; 'I' for Inactive)
DOCKED: REMARK    1  A    between atoms: C_2  and  C_3
DOCKED: REMARK    2  A    between atoms: C_4  and  C_5
DOCKED: REMARK    3  A    between atoms: C_8  and  C_9
DOCKED: REMARK    4  A    between atoms: C_9  and  N_10
DOCKED: REMARK    5  A    between atoms: N_10  and  C_11
DOCKED: REMARK    6  A    between atoms: C_11  and  C_12
DOCKED: REMARK    7  A    between atoms: C_12  and  C_13
DOCKED: REMARK    8  A    between atoms: C_14  and  C_22
DOCKED: REMARK    9  A    between atoms: N_25  and  O_26
DOCKED: REMARK                            x       y       z     vdW  Elec       q    Type
DOCKED: REMARK                         _______ _______ _______ _____ _____    ______ ____
DOCKED: USER                              x       y       z     vdW  Elec       q    Type
DOCKED: USER                           _______ _______ _______ _____ _____    ______ ____
DOCKED: ROOT
DOCKED: ATOM      1  N   UNL     1      12.575  -9.801  -2.985 -0.20 -0.00    +0.000 N 
DOCKED: ATOM      2  H   UNL     1      11.764  -9.925  -3.591 -0.02 -0.00    +0.000 HD
DOCKED: ATOM      3  H   UNL     1      12.796  -8.814  -2.858 +0.00 -0.00    +0.000 HD
DOCKED: ENDROOT
DOCKED: BRANCH   1   4
DOCKED: ATOM      4  C   UNL     1      13.737 -10.444  -3.613 -0.26 -0.00    +0.000 C 
DOCKED: BRANCH   4   8
DOCKED: ATOM      5  C   UNL     1      16.547 -11.496  -0.497 -0.35 +0.00    +0.000 A 
DOCKED: ATOM      6  C   UNL     1      15.469 -12.349  -0.809 -0.38 +0.00    +0.000 A 
DOCKED: ATOM      7  C   UNL     1      14.566 -12.009  -1.821 -0.31 +0.00    +0.000 A 
DOCKED: ATOM      8  C   UNL     1      14.732 -10.824  -2.553 -0.28 -0.00    +0.000 A 
DOCKED: ATOM      9  C   UNL     1      15.805  -9.973  -2.248 -0.23 -0.00    +0.000 A 
DOCKED: ATOM     10  C   UNL     1      16.709 -10.314  -1.238 -0.16 -0.00    +0.000 A 
DOCKED: BRANCH   5  12
DOCKED: ATOM     11  C   UNL     1      18.443 -10.937   1.019 -0.52 -0.00    +0.000 C 
DOCKED: ATOM     12  C   UNL     1      17.540 -11.815   0.558 -0.51 +0.00    +0.000 C 
DOCKED: BRANCH  11  14
DOCKED: ATOM     13  O   UNL     1      19.898 -12.428   2.115 -1.68 -0.00    +0.000 OA
DOCKED: ATOM     14  C   UNL     1      19.433 -11.259   2.068 -0.69 -0.00    +0.000 C 
DOCKED: ATOM     15  N   UNL     1      19.859 -10.298   3.045 -0.62 -0.00    +0.000 N 
DOCKED: ATOM     16  H   UNL     1      19.432  -9.412   3.079 -0.51 -0.00    +0.000 HD
DOCKED: BRANCH  15  17
DOCKED: ATOM     17  O   UNL     1      20.845 -10.608   3.920 -0.74 -0.00    +0.000 OA
DOCKED: ATOM     18  H   UNL     1      21.066 -11.549   3.839 -0.54 -0.00    +0.000 HD
DOCKED: ENDBRANCH  15  17
DOCKED: ENDBRANCH  11  14
DOCKED: ENDBRANCH   5  12
DOCKED: ENDBRANCH   4   8
DOCKED: ENDBRANCH   1   4
DOCKED: BRANCH   1  19
DOCKED: ATOM     19  C   UNL     1      12.271 -10.371  -1.663 -0.23 -0.00    +0.000 C 
DOCKED: BRANCH  19  20
DOCKED: ATOM     20  C   UNL     1      12.759  -9.475  -0.512 -0.18 +0.00    +0.000 C 
DOCKED: BRANCH  20  21
DOCKED: ATOM     21  C   UNL     1      13.162 -10.314   0.666 -0.22 +0.00    +0.000 A 
DOCKED: ATOM     22  C   UNL     1      12.479 -11.405   1.208 -0.38 +0.00    +0.000 A 
DOCKED: ATOM     23  N   UNL     1      13.113 -11.867   2.310 -0.28 +0.00    +0.000 N 
DOCKED: ATOM     24  C   UNL     1      14.178 -11.066   2.484 -0.38 +0.00    +0.000 A 
DOCKED: ATOM     25  C   UNL     1      14.238 -10.104   1.508 -0.24 +0.00    +0.000 A 
DOCKED: ATOM     26  C   UNL     1      15.243  -9.136   1.491 -0.26 +0.00    +0.000 A 
DOCKED: ATOM     27  C   UNL     1      16.212  -9.177   2.510 -0.31 +0.00    +0.000 A 
DOCKED: ATOM     28  C   UNL     1      16.153 -10.171   3.513 -0.42 +0.00    +0.000 A 
DOCKED: ATOM     29  C   UNL     1      15.124 -11.131   3.506 -0.45 +0.00    +0.000 A 
DOCKED: ATOM     30  C   UNL     1      11.234 -12.019   0.652 -0.28 +0.00    +0.000 C 
DOCKED: ATOM     31  H   UNL     1      12.849 -12.634   2.869 -0.45 +0.00    +0.000 HD
DOCKED: ENDBRANCH  20  21
DOCKED: ENDBRANCH  19  20
DOCKED: ENDBRANCH   1  19
DOCKED: TORSDOF 8
DOCKED: TER
DOCKED: ENDMDL
________________________________________________________________________________


	BEGINNING GENETIC ALGORITHM DOCKING 32 of 100
Run: 32 Seed: 1395364033 1475216482 [ Run 32 of 100 GA/GALS ]
Beginning LAMARCKIAN GENETIC ALGORITHM (LGA), with a maximum of 2500000 energy evaluations.

Final-Value: -13.807


	FINAL GENETIC ALGORITHM DOCKED STATE
	_______________________________________________


Detailed state:  trans 18.650 -10.480 1.826 quatxyzw -0.020601 -0.361922 -0.204365 0.909298 center 0.698 0.076 -0.072 ntor 8 -8.9427 106.0143 179.8782 -179.9363 159.5568 -59.8858 50.8171 -17.6867
State:	 18.650 -10.480   1.826  -0.050 -0.870 -0.491 49.183     -8.94  106.01  179.88 -179.94  159.56  -59.89   50.82  -17.69

DOCKED: MODEL       32
DOCKED: USER    Run = 32
DOCKED: USER    DPF = ligand_dock.biased.dpf
DOCKED: USER  
DOCKED: USER    Estimated Free Energy of Binding    =   -9.23 kcal/mol  [=(1)+(2)+(3)-(4)]
DOCKED: USER    Estimated Inhibition Constant, Ki   =  170.69 nM (nanomolar)  [Temperature = 298.15 K]
DOCKED: USER    
DOCKED: USER    (1) Final Intermolecular Energy     =  -11.62 kcal/mol
DOCKED: USER        vdW + Hbond + desolv Energy     =  -11.62 kcal/mol
DOCKED: USER        Electrostatic Energy            =   +0.00 kcal/mol
DOCKED: USER    (2) Final Total Internal Energy     =   -2.19 kcal/mol
DOCKED: USER    (3) Torsional Free Energy           =   +2.39 kcal/mol
DOCKED: USER    (4) Unbound System's Energy  [=(2)] =   -2.19 kcal/mol
DOCKED: USER    
DOCKED: USER    
DOCKED: USER    NEWDPF move ligand.pdbqt
DOCKED: USER    NEWDPF about 0.698000 0.076000 -0.072000
DOCKED: USER    NEWDPF tran0 18.649544 -10.480451 1.826107
DOCKED: USER    NEWDPF quaternion0 -0.020601 -0.361922 -0.204365 0.909298
DOCKED: USER    NEWDPF axisangle0 -0.049503 -0.869701 -0.491091 49.182959
DOCKED: USER    NEWDPF quat0 -0.049503 -0.869701 -0.491091 49.182959
DOCKED: USER    NEWDPF dihe0 -8.94 106.01 179.88 -179.94 159.56 -59.89 50.82 -17.69 
DOCKED: USER  keepresnum = 1 
DOCKED: USER  
DOCKED: REMARK  Name = 
DOCKED: REMARK  9 active torsions:
DOCKED: REMARK  status: ('A' for Active; 'I' for Inactive)
DOCKED: REMARK    1  A    between atoms: C_2  and  C_3
DOCKED: REMARK    2  A    between atoms: C_4  and  C_5
DOCKED: REMARK    3  A    between atoms: C_8  and  C_9
DOCKED: REMARK    4  A    between atoms: C_9  and  N_10
DOCKED: REMARK    5  A    between atoms: N_10  and  C_11
DOCKED: REMARK    6  A    between atoms: C_11  and  C_12
DOCKED: REMARK    7  A    between atoms: C_12  and  C_13
DOCKED: REMARK    8  A    between atoms: C_14  and  C_22
DOCKED: REMARK    9  A    between atoms: N_25  and  O_26
DOCKED: REMARK                            x       y       z     vdW  Elec       q    Type
DOCKED: REMARK                         _______ _______ _______ _____ _____    ______ ____
DOCKED: USER                              x       y       z     vdW  Elec       q    Type
DOCKED: USER                           _______ _______ _______ _____ _____    ______ ____
DOCKED: ROOT
DOCKED: ATOM      1  N   UNL     1      17.643 -10.361   2.407 -0.46 -0.00    +0.000 N 
DOCKED: ATOM      2  H   UNL     1      17.104 -10.639   1.587 -0.00 +0.00    +0.000 HD
DOCKED: ATOM      3  H   UNL     1      17.856  -9.364   2.391 -0.04 -0.00    +0.000 HD
DOCKED: ENDROOT
DOCKED: BRANCH   1   4
DOCKED: ATOM      4  C   UNL     1      18.917 -11.093   2.406 -0.63 -0.00    +0.000 C 
DOCKED: BRANCH   4   8
DOCKED: ATOM      5  C   UNL     1      20.827 -10.528  -1.434 -0.53 -0.00    +0.000 A 
DOCKED: ATOM      6  C   UNL     1      21.558 -10.374  -0.239 -0.60 -0.00    +0.000 A 
DOCKED: ATOM      7  C   UNL     1      20.939 -10.564   1.000 -0.51 -0.00    +0.000 A 
DOCKED: ATOM      8  C   UNL     1      19.587 -10.929   1.071 -0.57 -0.00    +0.000 A 
DOCKED: ATOM      9  C   UNL     1      18.855 -11.086  -0.116 -0.45 -0.00    +0.000 A 
DOCKED: ATOM     10  C   UNL     1      19.474 -10.898  -1.355 -0.42 -0.00    +0.000 A 
DOCKED: BRANCH   5  12
DOCKED: ATOM     11  C   UNL     1      20.940 -10.894  -3.896 -0.51 -0.00    +0.000 C 
DOCKED: ATOM     12  C   UNL     1      21.437 -10.351  -2.775 -0.53 -0.00    +0.000 C 
DOCKED: BRANCH  11  14
DOCKED: ATOM     13  O   UNL     1      21.701  -9.548  -5.671 -0.32 -0.00    +0.000 OA
DOCKED: ATOM     14  C   UNL     1      21.553 -10.718  -5.229 -0.49 -0.00    +0.000 C 
DOCKED: ATOM     15  N   UNL     1      21.957 -11.828  -6.042 -0.42 -0.00    +0.000 N 
DOCKED: ATOM     16  H   UNL     1      21.759 -12.748  -5.751 -0.62 -0.00    +0.000 HD
DOCKED: BRANCH  15  17
DOCKED: ATOM     17  O   UNL     1      22.610 -11.615  -7.210 -0.48 -0.00    +0.000 OA
DOCKED: ATOM     18  H   UNL     1      22.601 -10.667  -7.417 -0.01 -0.00    +0.000 HD
DOCKED: ENDBRANCH  15  17
DOCKED: ENDBRANCH  11  14
DOCKED: ENDBRANCH   5  12
DOCKED: ENDBRANCH   4   8
DOCKED: ENDBRANCH   1   4
DOCKED: BRANCH   1  19
DOCKED: ATOM     19  C   UNL     1      16.846 -10.634   3.613 -0.41 +0.00    +0.000 C 
DOCKED: BRANCH  19  20
DOCKED: ATOM     20  C   UNL     1      15.357 -10.851   3.295 -0.52 +0.00    +0.000 C 
DOCKED: BRANCH  20  21
DOCKED: ATOM     21  C   UNL     1      15.038 -10.339   1.920 -0.31 +0.00    +0.000 A 
DOCKED: ATOM     22  C   UNL     1      14.655  -9.044   1.561 -0.24 +0.00    +0.000 A 
DOCKED: ATOM     23  N   UNL     1      14.385  -8.975   0.237 -0.22 +0.00    +0.000 N 
DOCKED: ATOM     24  C   UNL     1      14.571 -10.217  -0.242 -0.24 +0.00    +0.000 A 
DOCKED: ATOM     25  C   UNL     1      14.962 -11.077   0.754 -0.31 +0.00    +0.000 A 
DOCKED: ATOM     26  C   UNL     1      15.192 -12.431   0.507 -0.45 +0.00    +0.000 A 
DOCKED: ATOM     27  C   UNL     1      15.018 -12.898  -0.810 -0.45 +0.00    +0.000 A 
DOCKED: ATOM     28  C   UNL     1      14.620 -12.011  -1.835 -0.31 +0.00    +0.000 A 
DOCKED: ATOM     29  C   UNL     1      14.391 -10.652  -1.554 -0.28 -0.00    +0.000 A 
DOCKED: ATOM     30  C   UNL     1      14.575  -7.870   2.484 -0.28 +0.00    +0.000 C 
DOCKED: ATOM     31  H   UNL     1      14.109  -8.178  -0.272 -0.01 -0.00    +0.000 HD
DOCKED: ENDBRANCH  20  21
DOCKED: ENDBRANCH  19  20
DOCKED: ENDBRANCH   1  19
DOCKED: TORSDOF 8
DOCKED: TER
DOCKED: ENDMDL
________________________________________________________________________________


	BEGINNING GENETIC ALGORITHM DOCKING 33 of 100
Run: 33 Seed: 331289760 2125864789 [ Run 33 of 100 GA/GALS ]
Beginning LAMARCKIAN GENETIC ALGORITHM (LGA), with a maximum of 2500000 energy evaluations.

Final-Value: -14.175


	FINAL GENETIC ALGORITHM DOCKED STATE
	_______________________________________________


Detailed state:  trans 21.140 -9.225 -5.433 quatxyzw -0.266306 -0.871523 0.014946 -0.411468 center 0.698 0.076 -0.072 ntor 8 27.8755 -153.1965 36.7210 -62.0382 -58.8114 -117.9749 -91.9795 -44.7279
State:	 21.140  -9.225  -5.433  -0.292 -0.956  0.016 -131.406     27.88 -153.20   36.72  -62.04  -58.81 -117.97  -91.98  -44.73

DOCKED: MODEL       33
DOCKED: USER    Run = 33
DOCKED: USER    DPF = ligand_dock.biased.dpf
DOCKED: USER  
DOCKED: USER    Estimated Free Energy of Binding    =  -10.79 kcal/mol  [=(1)+(2)+(3)-(4)]
DOCKED: USER    Estimated Inhibition Constant, Ki   =   12.36 nM (nanomolar)  [Temperature = 298.15 K]
DOCKED: USER    
DOCKED: USER    (1) Final Intermolecular Energy     =  -13.17 kcal/mol
DOCKED: USER        vdW + Hbond + desolv Energy     =  -13.17 kcal/mol
DOCKED: USER        Electrostatic Energy            =   +0.00 kcal/mol
DOCKED: USER    (2) Final Total Internal Energy     =   -1.00 kcal/mol
DOCKED: USER    (3) Torsional Free Energy           =   +2.39 kcal/mol
DOCKED: USER    (4) Unbound System's Energy  [=(2)] =   -1.00 kcal/mol
DOCKED: USER    
DOCKED: USER    
DOCKED: USER    NEWDPF move ligand.pdbqt
DOCKED: USER    NEWDPF about 0.698000 0.076000 -0.072000
DOCKED: USER    NEWDPF tran0 21.139871 -9.225145 -5.432664
DOCKED: USER    NEWDPF quaternion0 -0.266306 -0.871523 0.014946 -0.411468
DOCKED: USER    NEWDPF axisangle0 -0.292187 -0.956221 0.016398 -131.405773
DOCKED: USER    NEWDPF quat0 -0.292187 -0.956221 0.016398 -131.405773
DOCKED: USER    NEWDPF dihe0 27.88 -153.20 36.72 -62.04 -58.81 -117.97 -91.98 -44.73 
DOCKED: USER  keepresnum = 1 
DOCKED: USER  
DOCKED: REMARK  Name = 
DOCKED: REMARK  9 active torsions:
DOCKED: REMARK  status: ('A' for Active; 'I' for Inactive)
DOCKED: REMARK    1  A    between atoms: C_2  and  C_3
DOCKED: REMARK    2  A    between atoms: C_4  and  C_5
DOCKED: REMARK    3  A    between atoms: C_8  and  C_9
DOCKED: REMARK    4  A    between atoms: C_9  and  N_10
DOCKED: REMARK    5  A    between atoms: N_10  and  C_11
DOCKED: REMARK    6  A    between atoms: C_11  and  C_12
DOCKED: REMARK    7  A    between atoms: C_12  and  C_13
DOCKED: REMARK    8  A    between atoms: C_14  and  C_22
DOCKED: REMARK    9  A    between atoms: N_25  and  O_26
DOCKED: REMARK                            x       y       z     vdW  Elec       q    Type
DOCKED: REMARK                         _______ _______ _______ _____ _____    ______ ____
DOCKED: USER                              x       y       z     vdW  Elec       q    Type
DOCKED: USER                           _______ _______ _______ _____ _____    ______ ____
DOCKED: ROOT
DOCKED: ATOM      1  N   UNL     1      22.081  -9.247  -6.125 -0.26 -0.00    +0.000 N 
DOCKED: ATOM      2  H   UNL     1      22.667  -9.588  -5.363 -0.03 -0.00    +0.000 HD
DOCKED: ATOM      3  H   UNL     1      22.005  -8.230  -6.108 -0.01 -0.00    +0.000 HD
DOCKED: ENDROOT
DOCKED: BRANCH   1   4
DOCKED: ATOM      4  C   UNL     1      20.730  -9.801  -5.965 -0.29 -0.00    +0.000 C 
DOCKED: BRANCH   4   8
DOCKED: ATOM      5  C   UNL     1      20.087 -10.886  -1.827 -0.37 -0.00    +0.000 A 
DOCKED: ATOM      6  C   UNL     1      21.367 -10.507  -2.279 -0.50 -0.00    +0.000 A 
DOCKED: ATOM      7  C   UNL     1      21.570 -10.151  -3.616 -0.40 -0.00    +0.000 A 
DOCKED: ATOM      8  C   UNL     1      20.498 -10.147  -4.521 -0.36 -0.00    +0.000 A 
DOCKED: ATOM      9  C   UNL     1      19.222 -10.521  -4.075 -0.34 -0.00    +0.000 A 
DOCKED: ATOM     10  C   UNL     1      19.018 -10.875  -2.738 -0.34 -0.00    +0.000 A 
DOCKED: BRANCH   5  12
DOCKED: ATOM     11  C   UNL     1      20.661 -11.020   0.594 -0.71 -0.00    +0.000 C 
DOCKED: ATOM     12  C   UNL     1      19.814 -11.261  -0.417 -0.51 -0.00    +0.000 C 
DOCKED: BRANCH  11  14
DOCKED: ATOM     13  O   UNL     1      19.888 -12.530   2.226 -1.57 -0.00    +0.000 OA
DOCKED: ATOM     14  C   UNL     1      20.386 -11.396   1.997 -0.77 -0.00    +0.000 C 
DOCKED: ATOM     15  N   UNL     1      20.641 -10.509   3.095 -0.63 -0.00    +0.000 N 
DOCKED: ATOM     16  H   UNL     1      20.939  -9.587   2.922 -0.59 -0.00    +0.000 HD
DOCKED: BRANCH  15  17
DOCKED: ATOM     17  O   UNL     1      20.473 -10.938   4.369 -0.72 -0.00    +0.000 OA
DOCKED: ATOM     18  H   UNL     1      20.616 -11.896   4.410 -0.44 -0.00    +0.000 HD
DOCKED: ENDBRANCH  15  17
DOCKED: ENDBRANCH  11  14
DOCKED: ENDBRANCH   5  12
DOCKED: ENDBRANCH   4   8
DOCKED: ENDBRANCH   1   4
DOCKED: BRANCH   1  19
DOCKED: ATOM     19  C   UNL     1      22.693  -9.635  -7.405 -0.26 -0.00    +0.000 C 
DOCKED: BRANCH  19  20
DOCKED: ATOM     20  C   UNL     1      23.927  -8.782  -7.747 -0.21 -0.00    +0.000 C 
DOCKED: BRANCH  20  21
DOCKED: ATOM     21  C   UNL     1      25.116  -9.664  -8.000 -0.27 -0.00    +0.000 A 
DOCKED: ATOM     22  C   UNL     1      25.118 -10.965  -8.507 -0.34 -0.00    +0.000 A 
DOCKED: ATOM     23  N   UNL     1      26.375 -11.466  -8.531 -0.38 -0.00    +0.000 N 
DOCKED: ATOM     24  C   UNL     1      27.164 -10.504  -8.024 -0.39 -0.00    +0.000 A 
DOCKED: ATOM     25  C   UNL     1      26.434  -9.394  -7.682 -0.32 -0.00    +0.000 A 
DOCKED: ATOM     26  C   UNL     1      27.030  -8.270  -7.109 -0.29 -0.00    +0.000 A 
DOCKED: ATOM     27  C   UNL     1      28.420  -8.300  -6.895 -0.32 -0.00    +0.000 A 
DOCKED: ATOM     28  C   UNL     1      29.173  -9.441  -7.252 -0.40 -0.00    +0.000 A 
DOCKED: ATOM     29  C   UNL     1      28.543 -10.562  -7.823 -0.42 -0.00    +0.000 A 
DOCKED: ATOM     30  C   UNL     1      23.919 -11.715  -8.992 -0.36 -0.00    +0.000 C 
DOCKED: ATOM     31  H   UNL     1      26.654 -12.353  -8.855 -0.38 -0.00    +0.000 HD
DOCKED: ENDBRANCH  20  21
DOCKED: ENDBRANCH  19  20
DOCKED: ENDBRANCH   1  19
DOCKED: TORSDOF 8
DOCKED: TER
DOCKED: ENDMDL
________________________________________________________________________________


	BEGINNING GENETIC ALGORITHM DOCKING 34 of 100
Run: 34 Seed: 1804364240 1135260590 [ Run 34 of 100 GA/GALS ]
Beginning LAMARCKIAN GENETIC ALGORITHM (LGA), with a maximum of 2500000 energy evaluations.

Final-Value: -13.281


	FINAL GENETIC ALGORITHM DOCKED STATE
	_______________________________________________


Detailed state:  trans 21.565 -9.772 -5.780 quatxyzw -0.218402 0.287794 0.010518 0.932397 center 0.698 0.076 -0.072 ntor 8 15.3190 -91.3547 155.8910 -14.4896 -122.4506 172.7406 7.0401 81.7201
State:	 21.565  -9.772  -5.780  -0.604  0.796  0.029 42.377     15.32  -91.35  155.89  -14.49 -122.45  172.74    7.04   81.72

DOCKED: MODEL       34
DOCKED: USER    Run = 34
DOCKED: USER    DPF = ligand_dock.biased.dpf
DOCKED: USER  
DOCKED: USER    Estimated Free Energy of Binding    =   -8.39 kcal/mol  [=(1)+(2)+(3)-(4)]
DOCKED: USER    Estimated Inhibition Constant, Ki   =  702.87 nM (nanomolar)  [Temperature = 298.15 K]
DOCKED: USER    
DOCKED: USER    (1) Final Intermolecular Energy     =  -10.78 kcal/mol
DOCKED: USER        vdW + Hbond + desolv Energy     =  -10.78 kcal/mol
DOCKED: USER        Electrostatic Energy            =   +0.00 kcal/mol
DOCKED: USER    (2) Final Total Internal Energy     =   -2.50 kcal/mol
DOCKED: USER    (3) Torsional Free Energy           =   +2.39 kcal/mol
DOCKED: USER    (4) Unbound System's Energy  [=(2)] =   -2.50 kcal/mol
DOCKED: USER    
DOCKED: USER    
DOCKED: USER    NEWDPF move ligand.pdbqt
DOCKED: USER    NEWDPF about 0.698000 0.076000 -0.072000
DOCKED: USER    NEWDPF tran0 21.565032 -9.772093 -5.780127
DOCKED: USER    NEWDPF quaternion0 -0.218402 0.287794 0.010518 0.932397
DOCKED: USER    NEWDPF axisangle0 -0.604263 0.796253 0.029101 42.376706
DOCKED: USER    NEWDPF quat0 -0.604263 0.796253 0.029101 42.376706
DOCKED: USER    NEWDPF dihe0 15.32 -91.35 155.89 -14.49 -122.45 172.74 7.04 81.72 
DOCKED: USER  keepresnum = 1 
DOCKED: USER  
DOCKED: REMARK  Name = 
DOCKED: REMARK  9 active torsions:
DOCKED: REMARK  status: ('A' for Active; 'I' for Inactive)
DOCKED: REMARK    1  A    between atoms: C_2  and  C_3
DOCKED: REMARK    2  A    between atoms: C_4  and  C_5
DOCKED: REMARK    3  A    between atoms: C_8  and  C_9
DOCKED: REMARK    4  A    between atoms: C_9  and  N_10
DOCKED: REMARK    5  A    between atoms: N_10  and  C_11
DOCKED: REMARK    6  A    between atoms: C_11  and  C_12
DOCKED: REMARK    7  A    between atoms: C_12  and  C_13
DOCKED: REMARK    8  A    between atoms: C_14  and  C_22
DOCKED: REMARK    9  A    between atoms: N_25  and  O_26
DOCKED: REMARK                            x       y       z     vdW  Elec       q    Type
DOCKED: REMARK                         _______ _______ _______ _____ _____    ______ ____
DOCKED: USER                              x       y       z     vdW  Elec       q    Type
DOCKED: USER                           _______ _______ _______ _____ _____    ______ ____
DOCKED: ROOT
DOCKED: ATOM      1  N   UNL     1      20.802  -9.015  -6.238 -0.16 -0.00    +0.000 N 
DOCKED: ATOM      2  H   UNL     1      21.424  -8.820  -7.023 +0.00 -0.00    +0.000 HD
DOCKED: ATOM      3  H   UNL     1      21.030  -8.435  -5.431 +0.00 -0.00    +0.000 HD
DOCKED: ENDROOT
DOCKED: BRANCH   1   4
DOCKED: ATOM      4  C   UNL     1      20.966 -10.421  -5.843 -0.38 -0.00    +0.000 C 
DOCKED: BRANCH   4   8
DOCKED: ATOM      5  C   UNL     1      20.111 -10.743  -1.615 -0.42 -0.00    +0.000 A 
DOCKED: ATOM      6  C   UNL     1      19.083 -10.888  -2.568 -0.36 -0.00    +0.000 A 
DOCKED: ATOM      7  C   UNL     1      19.364 -10.789  -3.934 -0.37 -0.00    +0.000 A 
DOCKED: ATOM      8  C   UNL     1      20.676 -10.565  -4.375 -0.42 -0.00    +0.000 A 
DOCKED: ATOM      9  C   UNL     1      21.704 -10.423  -3.431 -0.39 -0.00    +0.000 A 
DOCKED: ATOM     10  C   UNL     1      21.424 -10.523  -2.065 -0.49 -0.00    +0.000 A 
DOCKED: BRANCH   5  12
DOCKED: ATOM     11  C   UNL     1      20.637 -11.576   0.674 -0.57 -0.00    +0.000 C 
DOCKED: ATOM     12  C   UNL     1      19.870 -10.851  -0.155 -0.60 -0.00    +0.000 C 
DOCKED: BRANCH  11  14
DOCKED: ATOM     13  O   UNL     1      19.891 -12.748   2.574 -1.29 -0.00    +0.000 OA
DOCKED: ATOM     14  C   UNL     1      20.392 -11.683   2.128 -0.79 -0.00    +0.000 C 
DOCKED: ATOM     15  N   UNL     1      20.680 -10.611   3.036 -0.61 -0.00    +0.000 N 
DOCKED: ATOM     16  H   UNL     1      20.980  -9.740   2.689 -0.59 -0.00    +0.000 HD
DOCKED: BRANCH  15  17
DOCKED: ATOM     17  O   UNL     1      20.538 -10.793   4.371 -0.72 -0.00    +0.000 OA
DOCKED: ATOM     18  H   UNL     1      20.476 -11.742   4.563 -0.31 -0.00    +0.000 HD
DOCKED: ENDBRANCH  15  17
DOCKED: ENDBRANCH  11  14
DOCKED: ENDBRANCH   5  12
DOCKED: ENDBRANCH   4   8
DOCKED: ENDBRANCH   1   4
DOCKED: BRANCH   1  19
DOCKED: ATOM     19  C   UNL     1      19.421  -8.708  -6.641 -0.13 -0.00    +0.000 C 
DOCKED: BRANCH  19  20
DOCKED: ATOM     20  C   UNL     1      18.593  -8.112  -5.489 -0.15 -0.00    +0.000 C 
DOCKED: BRANCH  20  21
DOCKED: ATOM     21  C   UNL     1      19.198  -6.817  -5.029 -0.13 -0.00    +0.000 A 
DOCKED: ATOM     22  C   UNL     1      19.111  -5.569  -5.650 -0.08 -0.00    +0.000 A 
DOCKED: ATOM     23  N   UNL     1      19.841  -4.648  -4.979 -0.09 -0.00    +0.000 N 
DOCKED: ATOM     24  C   UNL     1      20.408  -5.306  -3.953 -0.19 -0.00    +0.000 A 
DOCKED: ATOM     25  C   UNL     1      20.046  -6.630  -3.954 -0.19 -0.00    +0.000 A 
DOCKED: ATOM     26  C   UNL     1      20.530  -7.525  -2.998 -0.23 -0.00    +0.000 A 
DOCKED: ATOM     27  C   UNL     1      21.404  -7.026  -2.015 -0.42 -0.00    +0.000 A 
DOCKED: ATOM     28  C   UNL     1      21.772  -5.663  -2.011 -0.40 +0.00    +0.000 A 
DOCKED: ATOM     29  C   UNL     1      21.272  -4.785  -2.991 -0.26 -0.00    +0.000 A 
DOCKED: ATOM     30  C   UNL     1      18.305  -5.255  -6.870 -0.04 -0.00    +0.000 C 
DOCKED: ATOM     31  H   UNL     1      19.937  -3.693  -5.197 +0.00 -0.00    +0.000 HD
DOCKED: ENDBRANCH  20  21
DOCKED: ENDBRANCH  19  20
DOCKED: ENDBRANCH   1  19
DOCKED: TORSDOF 8
DOCKED: TER
DOCKED: ENDMDL
________________________________________________________________________________


	BEGINNING GENETIC ALGORITHM DOCKING 35 of 100
Run: 35 Seed: 1563131476 961695906 [ Run 35 of 100 GA/GALS ]
Beginning LAMARCKIAN GENETIC ALGORITHM (LGA), with a maximum of 2500000 energy evaluations.

Final-Value: -14.555


	FINAL GENETIC ALGORITHM DOCKED STATE
	_______________________________________________


Detailed state:  trans 19.797 -9.684 -6.103 quatxyzw -0.375298 0.156228 -0.527396 0.746055 center 0.698 0.076 -0.072 ntor 8 8.7434 -8.6366 -134.2586 149.6390 80.9170 -108.6220 153.0900 61.3166
State:	 19.797  -9.684  -6.103  -0.564  0.235 -0.792 83.500      8.74   -8.64 -134.26  149.64   80.92 -108.62  153.09   61.32

DOCKED: MODEL       35
DOCKED: USER    Run = 35
DOCKED: USER    DPF = ligand_dock.biased.dpf
DOCKED: USER  
DOCKED: USER    Estimated Free Energy of Binding    =   -9.89 kcal/mol  [=(1)+(2)+(3)-(4)]
DOCKED: USER    Estimated Inhibition Constant, Ki   =   56.28 nM (nanomolar)  [Temperature = 298.15 K]
DOCKED: USER    
DOCKED: USER    (1) Final Intermolecular Energy     =  -12.28 kcal/mol
DOCKED: USER        vdW + Hbond + desolv Energy     =  -12.28 kcal/mol
DOCKED: USER        Electrostatic Energy            =   +0.00 kcal/mol
DOCKED: USER    (2) Final Total Internal Energy     =   -2.28 kcal/mol
DOCKED: USER    (3) Torsional Free Energy           =   +2.39 kcal/mol
DOCKED: USER    (4) Unbound System's Energy  [=(2)] =   -2.28 kcal/mol
DOCKED: USER    
DOCKED: USER    
DOCKED: USER    NEWDPF move ligand.pdbqt
DOCKED: USER    NEWDPF about 0.698000 0.076000 -0.072000
DOCKED: USER    NEWDPF tran0 19.796804 -9.683972 -6.103211
DOCKED: USER    NEWDPF quaternion0 -0.375298 0.156228 -0.527396 0.746055
DOCKED: USER    NEWDPF axisangle0 -0.563607 0.234618 -0.792023 83.500487
DOCKED: USER    NEWDPF quat0 -0.563607 0.234618 -0.792023 83.500487
DOCKED: USER    NEWDPF dihe0 8.74 -8.64 -134.26 149.64 80.92 -108.62 153.09 61.32 
DOCKED: USER  keepresnum = 1 
DOCKED: USER  
DOCKED: REMARK  Name = 
DOCKED: REMARK  9 active torsions:
DOCKED: REMARK  status: ('A' for Active; 'I' for Inactive)
DOCKED: REMARK    1  A    between atoms: C_2  and  C_3
DOCKED: REMARK    2  A    between atoms: C_4  and  C_5
DOCKED: REMARK    3  A    between atoms: C_8  and  C_9
DOCKED: REMARK    4  A    between atoms: C_9  and  N_10
DOCKED: REMARK    5  A    between atoms: N_10  and  C_11
DOCKED: REMARK    6  A    between atoms: C_11  and  C_12
DOCKED: REMARK    7  A    between atoms: C_12  and  C_13
DOCKED: REMARK    8  A    between atoms: C_14  and  C_22
DOCKED: REMARK    9  A    between atoms: N_25  and  O_26
DOCKED: REMARK                            x       y       z     vdW  Elec       q    Type
DOCKED: REMARK                         _______ _______ _______ _____ _____    ______ ____
DOCKED: USER                              x       y       z     vdW  Elec       q    Type
DOCKED: USER                           _______ _______ _______ _____ _____    ______ ____
DOCKED: ROOT
DOCKED: ATOM      1  N   UNL     1      18.848 -10.088  -6.652 -0.22 -0.00    +0.000 N 
DOCKED: ATOM      2  H   UNL     1      18.908  -9.352  -7.356 +0.00 -0.00    +0.000 HD
DOCKED: ATOM      3  H   UNL     1      18.344  -9.768  -5.825 +0.00 -0.00    +0.000 HD
DOCKED: ENDROOT
DOCKED: BRANCH   1   4
DOCKED: ATOM      4  C   UNL     1      20.207 -10.457  -6.236 -0.33 -0.00    +0.000 C 
DOCKED: BRANCH   4   8
DOCKED: ATOM      5  C   UNL     1      20.507 -10.528  -1.921 -0.48 -0.00    +0.000 A 
DOCKED: ATOM      6  C   UNL     1      21.382  -9.734  -2.688 -0.47 -0.00    +0.000 A 
DOCKED: ATOM      7  C   UNL     1      21.279  -9.708  -4.082 -0.39 -0.00    +0.000 A 
DOCKED: ATOM      8  C   UNL     1      20.289 -10.457  -4.735 -0.38 -0.00    +0.000 A 
DOCKED: ATOM      9  C   UNL     1      19.413 -11.248  -3.976 -0.38 -0.00    +0.000 A 
DOCKED: ATOM     10  C   UNL     1      19.515 -11.272  -2.582 -0.27 -0.00    +0.000 A 
DOCKED: BRANCH   5  12
DOCKED: ATOM     11  C   UNL     1      20.092 -11.606   0.287 -0.51 -0.00    +0.000 C 
DOCKED: ATOM     12  C   UNL     1      20.564 -10.582  -0.439 -0.65 -0.00    +0.000 C 
DOCKED: BRANCH  11  14
DOCKED: ATOM     13  O   UNL     1      19.808 -12.719   2.342 -1.40 -0.00    +0.000 OA
DOCKED: ATOM     14  C   UNL     1      20.149 -11.654   1.763 -0.77 -0.00    +0.000 C 
DOCKED: ATOM     15  N   UNL     1      20.552 -10.527   2.553 -0.61 -0.00    +0.000 N 
DOCKED: ATOM     16  H   UNL     1      20.727  -9.661   2.120 -0.54 -0.00    +0.000 HD
DOCKED: BRANCH  15  17
DOCKED: ATOM     17  O   UNL     1      20.691 -10.652   3.895 -0.80 -0.00    +0.000 OA
DOCKED: ATOM     18  H   UNL     1      20.618 -11.586   4.143 -0.40 -0.00    +0.000 HD
DOCKED: ENDBRANCH  15  17
DOCKED: ENDBRANCH  11  14
DOCKED: ENDBRANCH   5  12
DOCKED: ENDBRANCH   4   8
DOCKED: ENDBRANCH   1   4
DOCKED: BRANCH   1  19
DOCKED: ATOM     19  C   UNL     1      18.111 -11.228  -7.218 -0.36 -0.00    +0.000 C 
DOCKED: BRANCH  19  20
DOCKED: ATOM     20  C   UNL     1      16.644 -10.883  -7.527 -0.29 -0.00    +0.000 C 
DOCKED: BRANCH  20  21
DOCKED: ATOM     21  C   UNL     1      15.761 -11.289  -6.382 -0.26 -0.00    +0.000 A 
DOCKED: ATOM     22  C   UNL     1      14.715 -12.214  -6.400 -0.29 -0.00    +0.000 A 
DOCKED: ATOM     23  N   UNL     1      14.102 -12.267  -5.195 -0.22 -0.00    +0.000 N 
DOCKED: ATOM     24  C   UNL     1      14.735 -11.368  -4.422 -0.23 -0.00    +0.000 A 
DOCKED: ATOM     25  C   UNL     1      15.746 -10.747  -5.111 -0.22 -0.00    +0.000 A 
DOCKED: ATOM     26  C   UNL     1      16.530  -9.753  -4.525 -0.19 -0.00    +0.000 A 
DOCKED: ATOM     27  C   UNL     1      16.261  -9.405  -3.189 -0.18 -0.00    +0.000 A 
DOCKED: ATOM     28  C   UNL     1      15.223 -10.048  -2.478 -0.24 -0.00    +0.000 A 
DOCKED: ATOM     29  C   UNL     1      14.445 -11.043  -3.097 -0.28 -0.00    +0.000 A 
DOCKED: ATOM     30  C   UNL     1      14.324 -13.066  -7.566 -0.42 -0.00    +0.000 C 
DOCKED: ATOM     31  H   UNL     1      13.349 -12.847  -4.938 -0.51 -0.00    +0.000 HD
DOCKED: ENDBRANCH  20  21
DOCKED: ENDBRANCH  19  20
DOCKED: ENDBRANCH   1  19
DOCKED: TORSDOF 8
DOCKED: TER
DOCKED: ENDMDL
________________________________________________________________________________


	BEGINNING GENETIC ALGORITHM DOCKING 36 of 100
Run: 36 Seed: 674825496 906642466 [ Run 36 of 100 GA/GALS ]
Beginning LAMARCKIAN GENETIC ALGORITHM (LGA), with a maximum of 2500000 energy evaluations.

Final-Value: -13.933


	FINAL GENETIC ALGORITHM DOCKED STATE
	_______________________________________________


Detailed state:  trans 21.098 -8.611 -6.992 quatxyzw -0.332138 0.212641 -0.823602 0.407613 center 0.698 0.076 -0.072 ntor 8 -97.2938 48.1735 -100.1825 169.2601 50.6319 117.9250 -169.7880 61.1563
State:	 21.098  -8.611  -6.992  -0.364  0.233 -0.902 131.890    -97.29   48.17 -100.18  169.26   50.63  117.93 -169.79   61.16

DOCKED: MODEL       36
DOCKED: USER    Run = 36
DOCKED: USER    DPF = ligand_dock.biased.dpf
DOCKED: USER  
DOCKED: USER    Estimated Free Energy of Binding    =  -10.16 kcal/mol  [=(1)+(2)+(3)-(4)]
DOCKED: USER    Estimated Inhibition Constant, Ki   =   35.69 nM (nanomolar)  [Temperature = 298.15 K]
DOCKED: USER    
DOCKED: USER    (1) Final Intermolecular Energy     =  -12.55 kcal/mol
DOCKED: USER        vdW + Hbond + desolv Energy     =  -12.55 kcal/mol
DOCKED: USER        Electrostatic Energy            =   +0.00 kcal/mol
DOCKED: USER    (2) Final Total Internal Energy     =   -1.39 kcal/mol
DOCKED: USER    (3) Torsional Free Energy           =   +2.39 kcal/mol
DOCKED: USER    (4) Unbound System's Energy  [=(2)] =   -1.39 kcal/mol
DOCKED: USER    
DOCKED: USER    
DOCKED: USER    NEWDPF move ligand.pdbqt
DOCKED: USER    NEWDPF about 0.698000 0.076000 -0.072000
DOCKED: USER    NEWDPF tran0 21.098260 -8.610600 -6.991541
DOCKED: USER    NEWDPF quaternion0 -0.332138 0.212641 -0.823602 0.407613
DOCKED: USER    NEWDPF axisangle0 -0.363726 0.232864 -0.901930 131.890001
DOCKED: USER    NEWDPF quat0 -0.363726 0.232864 -0.901930 131.890001
DOCKED: USER    NEWDPF dihe0 -97.29 48.17 -100.18 169.26 50.63 117.93 -169.79 61.16 
DOCKED: USER  keepresnum = 1 
DOCKED: USER  
DOCKED: REMARK  Name = 
DOCKED: REMARK  9 active torsions:
DOCKED: REMARK  status: ('A' for Active; 'I' for Inactive)
DOCKED: REMARK    1  A    between atoms: C_2  and  C_3
DOCKED: REMARK    2  A    between atoms: C_4  and  C_5
DOCKED: REMARK    3  A    between atoms: C_8  and  C_9
DOCKED: REMARK    4  A    between atoms: C_9  and  N_10
DOCKED: REMARK    5  A    between atoms: N_10  and  C_11
DOCKED: REMARK    6  A    between atoms: C_11  and  C_12
DOCKED: REMARK    7  A    between atoms: C_12  and  C_13
DOCKED: REMARK    8  A    between atoms: C_14  and  C_22
DOCKED: REMARK    9  A    between atoms: N_25  and  O_26
DOCKED: REMARK                            x       y       z     vdW  Elec       q    Type
DOCKED: REMARK                         _______ _______ _______ _____ _____    ______ ____
DOCKED: USER                              x       y       z     vdW  Elec       q    Type
DOCKED: USER                           _______ _______ _______ _____ _____    ______ ____
DOCKED: ROOT
DOCKED: ATOM      1  N   UNL     1      20.987  -9.326  -7.908 -0.14 -0.00    +0.000 N 
DOCKED: ATOM      2  H   UNL     1      20.757  -8.546  -8.524 +0.00 -0.00    +0.000 HD
DOCKED: ATOM      3  H   UNL     1      20.160  -9.673  -7.424 +0.00 -0.00    +0.000 HD
DOCKED: ENDROOT
DOCKED: BRANCH   1   4
DOCKED: ATOM      4  C   UNL     1      21.942  -8.861  -6.894 -0.21 -0.00    +0.000 C 
DOCKED: BRANCH   4   8
DOCKED: ATOM      5  C   UNL     1      20.633  -9.996  -2.930 -0.45 -0.00    +0.000 A 
DOCKED: ATOM      6  C   UNL     1      20.192  -8.792  -3.514 -0.30 -0.00    +0.000 A 
DOCKED: ATOM      7  C   UNL     1      20.612  -8.431  -4.797 -0.23 -0.00    +0.000 A 
DOCKED: ATOM      8  C   UNL     1      21.462  -9.272  -5.530 -0.27 -0.00    +0.000 A 
DOCKED: ATOM      9  C   UNL     1      21.903 -10.473  -4.954 -0.35 -0.00    +0.000 A 
DOCKED: ATOM     10  C   UNL     1      21.481 -10.836  -3.671 -0.42 -0.00    +0.000 A 
DOCKED: BRANCH   5  12
DOCKED: ATOM     11  C   UNL     1      21.064 -10.702  -0.579 -0.64 -0.00    +0.000 C 
DOCKED: ATOM     12  C   UNL     1      20.209 -10.433  -1.577 -0.54 -0.00    +0.000 C 
DOCKED: BRANCH  11  14
DOCKED: ATOM     13  O   UNL     1      20.878 -10.387   1.746 -0.68 -0.00    +0.000 OA
DOCKED: ATOM     14  C   UNL     1      20.637 -11.140   0.766 -0.72 -0.00    +0.000 C 
DOCKED: ATOM     15  N   UNL     1      19.983 -12.396   0.994 -0.61 -0.00    +0.000 N 
DOCKED: ATOM     16  H   UNL     1      19.876 -13.035   0.253 -0.49 -0.00    +0.000 HD
DOCKED: BRANCH  15  17
DOCKED: ATOM     17  O   UNL     1      19.516 -12.706   2.227 -1.38 -0.00    +0.000 OA
DOCKED: ATOM     18  H   UNL     1      20.164 -13.259   2.690 -0.55 -0.00    +0.000 HD
DOCKED: ENDBRANCH  15  17
DOCKED: ENDBRANCH  11  14
DOCKED: ENDBRANCH   5  12
DOCKED: ENDBRANCH   4   8
DOCKED: ENDBRANCH   1   4
DOCKED: BRANCH   1  19
DOCKED: ATOM     19  C   UNL     1      21.531 -10.426  -8.720 -0.23 -0.00    +0.000 C 
DOCKED: BRANCH  19  20
DOCKED: ATOM     20  C   UNL     1      22.319 -11.442  -7.878 -0.28 -0.00    +0.000 C 
DOCKED: BRANCH  20  21
DOCKED: ATOM     21  C   UNL     1      23.701 -11.623  -8.437 -0.37 -0.00    +0.000 A 
DOCKED: ATOM     22  C   UNL     1      24.156 -12.650  -9.267 -0.37 -0.00    +0.000 A 
DOCKED: ATOM     23  N   UNL     1      25.480 -12.516  -9.512 -0.37 -0.00    +0.000 N 
DOCKED: ATOM     24  C   UNL     1      25.872 -11.428  -8.828 -0.36 -0.00    +0.000 A 
DOCKED: ATOM     25  C   UNL     1      24.819 -10.860  -8.155 -0.35 -0.00    +0.000 A 
DOCKED: ATOM     26  C   UNL     1      24.983  -9.731  -7.352 -0.23 -0.00    +0.000 A 
DOCKED: ATOM     27  C   UNL     1      26.272  -9.176  -7.254 -0.32 -0.00    +0.000 A 
DOCKED: ATOM     28  C   UNL     1      27.356  -9.757  -7.950 -0.37 -0.00    +0.000 A 
DOCKED: ATOM     29  C   UNL     1      27.160 -10.899  -8.749 -0.36 -0.00    +0.000 A 
DOCKED: ATOM     30  C   UNL     1      23.314 -13.743  -9.844 -0.43 -0.00    +0.000 C 
DOCKED: ATOM     31  H   UNL     1      26.040 -13.097 -10.076 -0.55 -0.00    +0.000 HD
DOCKED: ENDBRANCH  20  21
DOCKED: ENDBRANCH  19  20
DOCKED: ENDBRANCH   1  19
DOCKED: TORSDOF 8
DOCKED: TER
DOCKED: ENDMDL
________________________________________________________________________________


	BEGINNING GENETIC ALGORITHM DOCKING 37 of 100
Run: 37 Seed: 951617635 1829369600 [ Run 37 of 100 GA/GALS ]
Beginning LAMARCKIAN GENETIC ALGORITHM (LGA), with a maximum of 2500000 energy evaluations.

Final-Value: -13.104


	FINAL GENETIC ALGORITHM DOCKED STATE
	_______________________________________________


Detailed state:  trans 21.513 -9.059 -6.433 quatxyzw 0.228328 -0.753851 0.406311 0.463127 center 0.698 0.076 -0.072 ntor 8 48.4628 -58.4629 -156.8094 167.1102 83.8748 177.6948 -96.3234 -108.5251
State:	 21.513  -9.059  -6.433   0.258 -0.851  0.458 124.822     48.46  -58.46 -156.81  167.11   83.87  177.69  -96.32 -108.53

DOCKED: MODEL       37
DOCKED: USER    Run = 37
DOCKED: USER    DPF = ligand_dock.biased.dpf
DOCKED: USER  
DOCKED: USER    Estimated Free Energy of Binding    =   -9.28 kcal/mol  [=(1)+(2)+(3)-(4)]
DOCKED: USER    Estimated Inhibition Constant, Ki   =  157.36 nM (nanomolar)  [Temperature = 298.15 K]
DOCKED: USER    
DOCKED: USER    (1) Final Intermolecular Energy     =  -11.67 kcal/mol
DOCKED: USER        vdW + Hbond + desolv Energy     =  -11.67 kcal/mol
DOCKED: USER        Electrostatic Energy            =   +0.00 kcal/mol
DOCKED: USER    (2) Final Total Internal Energy     =   -1.44 kcal/mol
DOCKED: USER    (3) Torsional Free Energy           =   +2.39 kcal/mol
DOCKED: USER    (4) Unbound System's Energy  [=(2)] =   -1.44 kcal/mol
DOCKED: USER    
DOCKED: USER    
DOCKED: USER    NEWDPF move ligand.pdbqt
DOCKED: USER    NEWDPF about 0.698000 0.076000 -0.072000
DOCKED: USER    NEWDPF tran0 21.513345 -9.059142 -6.433316
DOCKED: USER    NEWDPF quaternion0 0.228328 -0.753851 0.406311 0.463127
DOCKED: USER    NEWDPF axisangle0 0.257621 -0.850567 0.458439 124.821890
DOCKED: USER    NEWDPF quat0 0.257621 -0.850567 0.458439 124.821890
DOCKED: USER    NEWDPF dihe0 48.46 -58.46 -156.81 167.11 83.87 177.69 -96.32 -108.53 
DOCKED: USER  keepresnum = 1 
DOCKED: USER  
DOCKED: REMARK  Name = 
DOCKED: REMARK  9 active torsions:
DOCKED: REMARK  status: ('A' for Active; 'I' for Inactive)
DOCKED: REMARK    1  A    between atoms: C_2  and  C_3
DOCKED: REMARK    2  A    between atoms: C_4  and  C_5
DOCKED: REMARK    3  A    between atoms: C_8  and  C_9
DOCKED: REMARK    4  A    between atoms: C_9  and  N_10
DOCKED: REMARK    5  A    between atoms: N_10  and  C_11
DOCKED: REMARK    6  A    between atoms: C_11  and  C_12
DOCKED: REMARK    7  A    between atoms: C_12  and  C_13
DOCKED: REMARK    8  A    between atoms: C_14  and  C_22
DOCKED: REMARK    9  A    between atoms: N_25  and  O_26
DOCKED: REMARK                            x       y       z     vdW  Elec       q    Type
DOCKED: REMARK                         _______ _______ _______ _____ _____    ______ ____
DOCKED: USER                              x       y       z     vdW  Elec       q    Type
DOCKED: USER                           _______ _______ _______ _____ _____    ______ ____
DOCKED: ROOT
DOCKED: ATOM      1  N   UNL     1      21.792  -7.928  -6.345 -0.15 -0.00    +0.000 N 
DOCKED: ATOM      2  H   UNL     1      20.871  -7.703  -5.967 +0.00 -0.00    +0.000 HD
DOCKED: ATOM      3  H   UNL     1      21.781  -7.938  -7.365 +0.00 -0.00    +0.000 HD
DOCKED: ENDROOT
DOCKED: BRANCH   1   4
DOCKED: ATOM      4  C   UNL     1      22.176  -9.269  -5.885 -0.30 -0.00    +0.000 C 
DOCKED: BRANCH   4   8
DOCKED: ATOM      5  C   UNL     1      21.034  -9.773  -1.744 -0.55 -0.00    +0.000 A 
DOCKED: ATOM      6  C   UNL     1      21.032  -8.495  -2.338 -0.43 -0.00    +0.000 A 
DOCKED: ATOM      7  C   UNL     1      21.396  -8.337  -3.679 -0.34 -0.00    +0.000 A 
DOCKED: ATOM      8  C   UNL     1      21.748  -9.450  -4.456 -0.32 -0.00    +0.000 A 
DOCKED: ATOM      9  C   UNL     1      21.748 -10.724  -3.870 -0.41 -0.00    +0.000 A 
DOCKED: ATOM     10  C   UNL     1      21.382 -10.883  -2.530 -0.30 -0.00    +0.000 A 
DOCKED: BRANCH   5  12
DOCKED: ATOM     11  C   UNL     1      20.647 -11.204   0.260 -0.63 -0.00    +0.000 C 
DOCKED: ATOM     12  C   UNL     1      20.644  -9.999  -0.330 -0.66 -0.00    +0.000 C 
DOCKED: BRANCH  11  14
DOCKED: ATOM     13  O   UNL     1      19.535 -12.420   1.940 -1.59 -0.00    +0.000 OA
DOCKED: ATOM     14  C   UNL     1      20.256 -11.425   1.667 -0.76 -0.00    +0.000 C 
DOCKED: ATOM     15  N   UNL     1      20.645 -10.533   2.722 -0.61 -0.00    +0.000 N 
DOCKED: ATOM     16  H   UNL     1      21.125  -9.701   2.509 -0.57 -0.00    +0.000 HD
DOCKED: BRANCH  15  17
DOCKED: ATOM     17  O   UNL     1      20.352 -10.834   4.010 -0.80 -0.00    +0.000 OA
DOCKED: ATOM     18  H   UNL     1      20.613 -11.749   4.196 -0.44 -0.00    +0.000 HD
DOCKED: ENDBRANCH  15  17
DOCKED: ENDBRANCH  11  14
DOCKED: ENDBRANCH   5  12
DOCKED: ENDBRANCH   4   8
DOCKED: ENDBRANCH   1   4
DOCKED: BRANCH   1  19
DOCKED: ATOM     19  C   UNL     1      22.747  -6.897  -5.913 -0.15 -0.00    +0.000 C 
DOCKED: BRANCH  19  20
DOCKED: ATOM     20  C   UNL     1      23.720  -6.492  -7.034 -0.12 -0.00    +0.000 C 
DOCKED: BRANCH  20  21
DOCKED: ATOM     21  C   UNL     1      24.969  -7.322  -6.966 -0.13 -0.00    +0.000 A 
DOCKED: ATOM     22  C   UNL     1      26.208  -6.954  -6.438 -0.13 -0.00    +0.000 A 
DOCKED: ATOM     23  N   UNL     1      27.116  -7.942  -6.615 -0.32 -0.00    +0.000 N 
DOCKED: ATOM     24  C   UNL     1      26.470  -8.922  -7.268 -0.32 -0.00    +0.000 A 
DOCKED: ATOM     25  C   UNL     1      25.162  -8.580  -7.506 -0.22 -0.00    +0.000 A 
DOCKED: ATOM     26  C   UNL     1      24.294  -9.428  -8.196 -0.20 -0.00    +0.000 A 
DOCKED: ATOM     27  C   UNL     1      24.799 -10.664  -8.639 -0.28 -0.00    +0.000 A 
DOCKED: ATOM     28  C   UNL     1      26.143 -11.019  -8.390 -0.36 -0.00    +0.000 A 
DOCKED: ATOM     29  C   UNL     1      26.996 -10.141  -7.697 -0.39 -0.00    +0.000 A 
DOCKED: ATOM     30  C   UNL     1      26.512  -5.666  -5.742 -0.18 -0.00    +0.000 C 
DOCKED: ATOM     31  H   UNL     1      28.057  -7.942  -6.323 -0.01 -0.00    +0.000 HD
DOCKED: ENDBRANCH  20  21
DOCKED: ENDBRANCH  19  20
DOCKED: ENDBRANCH   1  19
DOCKED: TORSDOF 8
DOCKED: TER
DOCKED: ENDMDL
________________________________________________________________________________


	BEGINNING GENETIC ALGORITHM DOCKING 38 of 100
Run: 38 Seed: 287025559 880703270 [ Run 38 of 100 GA/GALS ]
Beginning LAMARCKIAN GENETIC ALGORITHM (LGA), with a maximum of 2500000 energy evaluations.

Final-Value: -13.992


	FINAL GENETIC ALGORITHM DOCKED STATE
	_______________________________________________


Detailed state:  trans 20.251 -7.485 -5.752 quatxyzw 0.336091 -0.210467 0.901691 -0.172335 center 0.698 0.076 -0.072 ntor 8 36.3270 -139.9371 -141.1929 178.1683 158.2022 -153.8738 -127.9886 64.5851
State:	 20.251  -7.485  -5.752   0.341 -0.214  0.915 -160.153     36.33 -139.94 -141.19  178.17  158.20 -153.87 -127.99   64.59

DOCKED: MODEL       38
DOCKED: USER    Run = 38
DOCKED: USER    DPF = ligand_dock.biased.dpf
DOCKED: USER  
DOCKED: USER    Estimated Free Energy of Binding    =   -9.14 kcal/mol  [=(1)+(2)+(3)-(4)]
DOCKED: USER    Estimated Inhibition Constant, Ki   =  199.36 nM (nanomolar)  [Temperature = 298.15 K]
DOCKED: USER    
DOCKED: USER    (1) Final Intermolecular Energy     =  -11.53 kcal/mol
DOCKED: USER        vdW + Hbond + desolv Energy     =  -11.53 kcal/mol
DOCKED: USER        Electrostatic Energy            =   +0.00 kcal/mol
DOCKED: USER    (2) Final Total Internal Energy     =   -2.46 kcal/mol
DOCKED: USER    (3) Torsional Free Energy           =   +2.39 kcal/mol
DOCKED: USER    (4) Unbound System's Energy  [=(2)] =   -2.46 kcal/mol
DOCKED: USER    
DOCKED: USER    
DOCKED: USER    NEWDPF move ligand.pdbqt
DOCKED: USER    NEWDPF about 0.698000 0.076000 -0.072000
DOCKED: USER    NEWDPF tran0 20.251373 -7.485322 -5.752395
DOCKED: USER    NEWDPF quaternion0 0.336091 -0.210467 0.901691 -0.172335
DOCKED: USER    NEWDPF axisangle0 0.341196 -0.213664 0.915387 -160.152776
DOCKED: USER    NEWDPF quat0 0.341196 -0.213664 0.915387 -160.152776
DOCKED: USER    NEWDPF dihe0 36.33 -139.94 -141.19 178.17 158.20 -153.87 -127.99 64.59 
DOCKED: USER  keepresnum = 1 
DOCKED: USER  
DOCKED: REMARK  Name = 
DOCKED: REMARK  9 active torsions:
DOCKED: REMARK  status: ('A' for Active; 'I' for Inactive)
DOCKED: REMARK    1  A    between atoms: C_2  and  C_3
DOCKED: REMARK    2  A    between atoms: C_4  and  C_5
DOCKED: REMARK    3  A    between atoms: C_8  and  C_9
DOCKED: REMARK    4  A    between atoms: C_9  and  N_10
DOCKED: REMARK    5  A    between atoms: N_10  and  C_11
DOCKED: REMARK    6  A    between atoms: C_11  and  C_12
DOCKED: REMARK    7  A    between atoms: C_12  and  C_13
DOCKED: REMARK    8  A    between atoms: C_14  and  C_22
DOCKED: REMARK    9  A    between atoms: N_25  and  O_26
DOCKED: REMARK                            x       y       z     vdW  Elec       q    Type
DOCKED: REMARK                         _______ _______ _______ _____ _____    ______ ____
DOCKED: USER                              x       y       z     vdW  Elec       q    Type
DOCKED: USER                           _______ _______ _______ _____ _____    ______ ____
DOCKED: ROOT
DOCKED: ATOM      1  N   UNL     1      20.576  -8.030  -6.733 -0.09 -0.00    +0.000 N 
DOCKED: ATOM      2  H   UNL     1      20.090  -7.343  -7.309 +0.00 -0.00    +0.000 HD
DOCKED: ATOM      3  H   UNL     1      19.945  -8.769  -6.425 +0.01 -0.00    +0.000 HD
DOCKED: ENDROOT
DOCKED: BRANCH   1   4
DOCKED: ATOM      4  C   UNL     1      21.100  -7.358  -5.537 -0.18 -0.00    +0.000 C 
DOCKED: BRANCH   4   8
DOCKED: ATOM      5  C   UNL     1      20.150  -9.648  -1.992 -0.36 -0.00    +0.000 A 
DOCKED: ATOM      6  C   UNL     1      19.174  -9.422  -2.983 -0.05 -0.00    +0.000 A 
DOCKED: ATOM      7  C   UNL     1      19.486  -8.686  -4.130 -0.21 -0.00    +0.000 A 
DOCKED: ATOM      8  C   UNL     1      20.781  -8.181  -4.320 -0.27 -0.00    +0.000 A 
DOCKED: ATOM      9  C   UNL     1      21.757  -8.406  -3.338 -0.28 -0.00    +0.000 A 
DOCKED: ATOM     10  C   UNL     1      21.445  -9.144  -2.192 -0.42 -0.00    +0.000 A 
DOCKED: BRANCH   5  12
DOCKED: ATOM     11  C   UNL     1      20.659 -10.408   0.326 -0.68 -0.00    +0.000 C 
DOCKED: ATOM     12  C   UNL     1      19.875 -10.432  -0.762 -0.54 -0.00    +0.000 C 
DOCKED: BRANCH  11  14
DOCKED: ATOM     13  O   UNL     1      20.255 -12.440   1.443 -1.59 -0.00    +0.000 OA
DOCKED: ATOM     14  C   UNL     1      20.384 -11.192   1.548 -0.74 -0.00    +0.000 C 
DOCKED: ATOM     15  N   UNL     1      20.234 -10.579   2.837 -0.67 -0.00    +0.000 N 
DOCKED: ATOM     16  H   UNL     1      20.236  -9.598   2.917 -0.55 -0.00    +0.000 HD
DOCKED: BRANCH  15  17
DOCKED: ATOM     17  O   UNL     1      20.087 -11.348   3.942 -0.83 -0.00    +0.000 OA
DOCKED: ATOM     18  H   UNL     1      20.633 -12.145   3.858 -0.51 -0.00    +0.000 HD
DOCKED: ENDBRANCH  15  17
DOCKED: ENDBRANCH  11  14
DOCKED: ENDBRANCH   5  12
DOCKED: ENDBRANCH   4   8
DOCKED: ENDBRANCH   1   4
DOCKED: BRANCH   1  19
DOCKED: ATOM     19  C   UNL     1      21.642  -8.651  -7.535 -0.14 -0.00    +0.000 C 
DOCKED: BRANCH  19  20
DOCKED: ATOM     20  C   UNL     1      21.344 -10.122  -7.870 -0.25 -0.00    +0.000 C 
DOCKED: BRANCH  20  21
DOCKED: ATOM     21  C   UNL     1      20.285 -10.661  -6.951 -0.25 -0.00    +0.000 A 
DOCKED: ATOM     22  C   UNL     1      20.468 -11.290  -5.718 -0.37 -0.00    +0.000 A 
DOCKED: ATOM     23  N   UNL     1      19.283 -11.702  -5.210 -0.44 -0.00    +0.000 N 
DOCKED: ATOM     24  C   UNL     1      18.355 -11.361  -6.120 -0.33 -0.00    +0.000 A 
DOCKED: ATOM     25  C   UNL     1      18.927 -10.731  -7.198 -0.28 -0.00    +0.000 A 
DOCKED: ATOM     26  C   UNL     1      18.167 -10.305  -8.287 -0.20 -0.00    +0.000 A 
DOCKED: ATOM     27  C   UNL     1      16.779 -10.532  -8.249 -0.20 -0.00    +0.000 A 
DOCKED: ATOM     28  C   UNL     1      16.190 -11.175  -7.138 -0.28 -0.00    +0.000 A 
DOCKED: ATOM     29  C   UNL     1      16.983 -11.599  -6.056 -0.22 -0.00    +0.000 A 
DOCKED: ATOM     30  C   UNL     1      21.776 -11.470  -5.016 -0.55 -0.00    +0.000 C 
DOCKED: ATOM     31  H   UNL     1      19.133 -12.157  -4.350 -0.05 -0.00    +0.000 HD
DOCKED: ENDBRANCH  20  21
DOCKED: ENDBRANCH  19  20
DOCKED: ENDBRANCH   1  19
DOCKED: TORSDOF 8
DOCKED: TER
DOCKED: ENDMDL
________________________________________________________________________________


	BEGINNING GENETIC ALGORITHM DOCKING 39 of 100
Run: 39 Seed: 953359303 778904981 [ Run 39 of 100 GA/GALS ]
Beginning LAMARCKIAN GENETIC ALGORITHM (LGA), with a maximum of 2500000 energy evaluations.

Final-Value: -13.556


	FINAL GENETIC ALGORITHM DOCKED STATE
	_______________________________________________


Detailed state:  trans 19.187 -12.138 3.263 quatxyzw 0.755259 -0.644408 0.119294 0.009576 center 0.698 0.076 -0.072 ntor 8 -8.7838 -168.8576 -55.6479 135.7311 -105.3401 -173.2728 -144.5703 136.6773
State:	 19.187 -12.138   3.263   0.755 -0.644  0.119 178.903     -8.78 -168.86  -55.65  135.73 -105.34 -173.27 -144.57  136.68

DOCKED: MODEL       39
DOCKED: USER    Run = 39
DOCKED: USER    DPF = ligand_dock.biased.dpf
DOCKED: USER  
DOCKED: USER    Estimated Free Energy of Binding    =   -9.43 kcal/mol  [=(1)+(2)+(3)-(4)]
DOCKED: USER    Estimated Inhibition Constant, Ki   =  122.21 nM (nanomolar)  [Temperature = 298.15 K]
DOCKED: USER    
DOCKED: USER    (1) Final Intermolecular Energy     =  -11.82 kcal/mol
DOCKED: USER        vdW + Hbond + desolv Energy     =  -11.82 kcal/mol
DOCKED: USER        Electrostatic Energy            =   +0.00 kcal/mol
DOCKED: USER    (2) Final Total Internal Energy     =   -1.74 kcal/mol
DOCKED: USER    (3) Torsional Free Energy           =   +2.39 kcal/mol
DOCKED: USER    (4) Unbound System's Energy  [=(2)] =   -1.74 kcal/mol
DOCKED: USER    
DOCKED: USER    
DOCKED: USER    NEWDPF move ligand.pdbqt
DOCKED: USER    NEWDPF about 0.698000 0.076000 -0.072000
DOCKED: USER    NEWDPF tran0 19.187118 -12.138024 3.262854
DOCKED: USER    NEWDPF quaternion0 0.755259 -0.644408 0.119294 0.009576
DOCKED: USER    NEWDPF axisangle0 0.755293 -0.644438 0.119299 178.902681
DOCKED: USER    NEWDPF quat0 0.755293 -0.644438 0.119299 178.902681
DOCKED: USER    NEWDPF dihe0 -8.78 -168.86 -55.65 135.73 -105.34 -173.27 -144.57 136.68 
DOCKED: USER  keepresnum = 1 
DOCKED: USER  
DOCKED: REMARK  Name = 
DOCKED: REMARK  9 active torsions:
DOCKED: REMARK  status: ('A' for Active; 'I' for Inactive)
DOCKED: REMARK    1  A    between atoms: C_2  and  C_3
DOCKED: REMARK    2  A    between atoms: C_4  and  C_5
DOCKED: REMARK    3  A    between atoms: C_8  and  C_9
DOCKED: REMARK    4  A    between atoms: C_9  and  N_10
DOCKED: REMARK    5  A    between atoms: N_10  and  C_11
DOCKED: REMARK    6  A    between atoms: C_11  and  C_12
DOCKED: REMARK    7  A    between atoms: C_12  and  C_13
DOCKED: REMARK    8  A    between atoms: C_14  and  C_22
DOCKED: REMARK    9  A    between atoms: N_25  and  O_26
DOCKED: REMARK                            x       y       z     vdW  Elec       q    Type
DOCKED: REMARK                         _______ _______ _______ _____ _____    ______ ____
DOCKED: USER                              x       y       z     vdW  Elec       q    Type
DOCKED: USER                           _______ _______ _______ _____ _____    ______ ____
DOCKED: ROOT
DOCKED: ATOM      1  N   UNL     1      18.444 -11.238   3.222 -0.50 -0.00    +0.000 N 
DOCKED: ATOM      2  H   UNL     1      18.471 -11.134   4.237 -0.02 -0.00    +0.000 HD
DOCKED: ATOM      3  H   UNL     1      17.756 -11.934   2.939 +0.02 +0.00    +0.000 HD
DOCKED: ENDROOT
DOCKED: BRANCH   1   4
DOCKED: ATOM      4  C   UNL     1      19.762 -11.692   2.759 -0.75 -0.00    +0.000 C 
DOCKED: BRANCH   4   8
DOCKED: ATOM      5  C   UNL     1      20.405 -10.531  -1.358 -0.50 -0.00    +0.000 A 
DOCKED: ATOM      6  C   UNL     1      19.349 -11.397  -1.014 -0.28 -0.00    +0.000 A 
DOCKED: ATOM      7  C   UNL     1      19.140 -11.766   0.319 -0.53 -0.00    +0.000 A 
DOCKED: ATOM      8  C   UNL     1      19.966 -11.262   1.333 -0.64 -0.00    +0.000 A 
DOCKED: ATOM      9  C   UNL     1      21.018 -10.396   0.996 -0.46 -0.00    +0.000 A 
DOCKED: ATOM     10  C   UNL     1      21.226 -10.026  -0.336 -0.63 -0.00    +0.000 A 
DOCKED: BRANCH   5  12
DOCKED: ATOM     11  C   UNL     1      21.276 -10.864  -3.669 -0.50 -0.00    +0.000 C 
DOCKED: ATOM     12  C   UNL     1      20.663 -10.098  -2.754 -0.53 -0.00    +0.000 C 
DOCKED: BRANCH  11  14
DOCKED: ATOM     13  O   UNL     1      21.660  -9.196  -5.285 -0.33 -0.00    +0.000 OA
DOCKED: ATOM     14  C   UNL     1      21.533 -10.427  -5.058 -0.46 -0.00    +0.000 C 
DOCKED: ATOM     15  N   UNL     1      21.616 -11.353  -6.151 -0.41 -0.00    +0.000 N 
DOCKED: ATOM     16  H   UNL     1      21.423 -12.307  -6.002 -0.56 -0.00    +0.000 HD
DOCKED: BRANCH  15  17
DOCKED: ATOM     17  O   UNL     1      21.959 -10.917  -7.387 -0.35 -0.00    +0.000 OA
DOCKED: ATOM     18  H   UNL     1      21.979  -9.947  -7.394 +0.00 -0.00    +0.000 HD
DOCKED: ENDBRANCH  15  17
DOCKED: ENDBRANCH  11  14
DOCKED: ENDBRANCH   5  12
DOCKED: ENDBRANCH   4   8
DOCKED: ENDBRANCH   1   4
DOCKED: BRANCH   1  19
DOCKED: ATOM     19  C   UNL     1      18.058  -9.950   2.624 -0.50 -0.00    +0.000 C 
DOCKED: BRANCH  19  20
DOCKED: ATOM     20  C   UNL     1      16.909 -10.095   1.611 -0.35 +0.00    +0.000 C 
DOCKED: BRANCH  20  21
DOCKED: ATOM     21  C   UNL     1      15.596 -10.225   2.328 -0.35 +0.00    +0.000 A 
DOCKED: ATOM     22  C   UNL     1      14.586 -11.160   2.091 -0.39 +0.00    +0.000 A 
DOCKED: ATOM     23  N   UNL     1      13.519 -10.924   2.889 -0.35 +0.00    +0.000 N 
DOCKED: ATOM     24  C   UNL     1      13.834  -9.835   3.611 -0.30 +0.00    +0.000 A 
DOCKED: ATOM     25  C   UNL     1      15.087  -9.376   3.293 -0.34 +0.00    +0.000 A 
DOCKED: ATOM     26  C   UNL     1      15.627  -8.238   3.893 -0.30 +0.00    +0.000 A 
DOCKED: ATOM     27  C   UNL     1      14.846  -7.569   4.853 -0.35 +0.00    +0.000 A 
DOCKED: ATOM     28  C   UNL     1      13.558  -8.044   5.185 -0.37 +0.00    +0.000 A 
DOCKED: ATOM     29  C   UNL     1      13.038  -9.191   4.558 -0.28 +0.00    +0.000 A 
DOCKED: ATOM     30  C   UNL     1      14.658 -12.295   1.120 -0.47 +0.00    +0.000 C 
DOCKED: ATOM     31  H   UNL     1      12.684 -11.444   2.932 -0.04 +0.00    +0.000 HD
DOCKED: ENDBRANCH  20  21
DOCKED: ENDBRANCH  19  20
DOCKED: ENDBRANCH   1  19
DOCKED: TORSDOF 8
DOCKED: TER
DOCKED: ENDMDL
________________________________________________________________________________


	BEGINNING GENETIC ALGORITHM DOCKING 40 of 100
Run: 40 Seed: 1738795349 88858254 [ Run 40 of 100 GA/GALS ]
Beginning LAMARCKIAN GENETIC ALGORITHM (LGA), with a maximum of 2500000 energy evaluations.

Final-Value: -13.877


	FINAL GENETIC ALGORITHM DOCKED STATE
	_______________________________________________


Detailed state:  trans 20.730 -9.560 -7.127 quatxyzw -0.398088 -0.658346 0.638678 0.014025 center 0.698 0.076 -0.072 ntor 8 169.0816 17.1635 -152.8476 92.7340 -84.0645 169.4230 -42.5073 -131.2066
State:	 20.730  -9.560  -7.127  -0.398 -0.658  0.639 178.393    169.08   17.16 -152.85   92.73  -84.06  169.42  -42.51 -131.21

DOCKED: MODEL       40
DOCKED: USER    Run = 40
DOCKED: USER    DPF = ligand_dock.biased.dpf
DOCKED: USER  
DOCKED: USER    Estimated Free Energy of Binding    =  -10.73 kcal/mol  [=(1)+(2)+(3)-(4)]
DOCKED: USER    Estimated Inhibition Constant, Ki   =   13.74 nM (nanomolar)  [Temperature = 298.15 K]
DOCKED: USER    
DOCKED: USER    (1) Final Intermolecular Energy     =  -13.11 kcal/mol
DOCKED: USER        vdW + Hbond + desolv Energy     =  -13.11 kcal/mol
DOCKED: USER        Electrostatic Energy            =   +0.00 kcal/mol
DOCKED: USER    (2) Final Total Internal Energy     =   -0.77 kcal/mol
DOCKED: USER    (3) Torsional Free Energy           =   +2.39 kcal/mol
DOCKED: USER    (4) Unbound System's Energy  [=(2)] =   -0.77 kcal/mol
DOCKED: USER    
DOCKED: USER    
DOCKED: USER    NEWDPF move ligand.pdbqt
DOCKED: USER    NEWDPF about 0.698000 0.076000 -0.072000
DOCKED: USER    NEWDPF tran0 20.730186 -9.560475 -7.127444
DOCKED: USER    NEWDPF quaternion0 -0.398088 -0.658346 0.638678 0.014025
DOCKED: USER    NEWDPF axisangle0 -0.398127 -0.658411 0.638741 178.392848
DOCKED: USER    NEWDPF quat0 -0.398127 -0.658411 0.638741 178.392848
DOCKED: USER    NEWDPF dihe0 169.08 17.16 -152.85 92.73 -84.06 169.42 -42.51 -131.21 
DOCKED: USER  keepresnum = 1 
DOCKED: USER  
DOCKED: REMARK  Name = 
DOCKED: REMARK  9 active torsions:
DOCKED: REMARK  status: ('A' for Active; 'I' for Inactive)
DOCKED: REMARK    1  A    between atoms: C_2  and  C_3
DOCKED: REMARK    2  A    between atoms: C_4  and  C_5
DOCKED: REMARK    3  A    between atoms: C_8  and  C_9
DOCKED: REMARK    4  A    between atoms: C_9  and  N_10
DOCKED: REMARK    5  A    between atoms: N_10  and  C_11
DOCKED: REMARK    6  A    between atoms: C_11  and  C_12
DOCKED: REMARK    7  A    between atoms: C_12  and  C_13
DOCKED: REMARK    8  A    between atoms: C_14  and  C_22
DOCKED: REMARK    9  A    between atoms: N_25  and  O_26
DOCKED: REMARK                            x       y       z     vdW  Elec       q    Type
DOCKED: REMARK                         _______ _______ _______ _____ _____    ______ ____
DOCKED: USER                              x       y       z     vdW  Elec       q    Type
DOCKED: USER                           _______ _______ _______ _____ _____    ______ ____
DOCKED: ROOT
DOCKED: ATOM      1  N   UNL     1      21.830  -9.943  -7.042 -0.24 -0.00    +0.000 N 
DOCKED: ATOM      2  H   UNL     1      22.152  -9.030  -6.720 -0.00 -0.00    +0.000 HD
DOCKED: ATOM      3  H   UNL     1      21.800  -9.987  -8.060 +0.00 -0.00    +0.000 HD
DOCKED: ENDROOT
DOCKED: BRANCH   1   4
DOCKED: ATOM      4  C   UNL     1      20.469 -10.168  -6.539 -0.29 -0.00    +0.000 C 
DOCKED: BRANCH   4   8
DOCKED: ATOM      5  C   UNL     1      20.591 -10.264  -2.217 -0.49 -0.00    +0.000 A 
DOCKED: ATOM      6  C   UNL     1      21.363  -9.330  -2.936 -0.44 -0.00    +0.000 A 
DOCKED: ATOM      7  C   UNL     1      21.316  -9.297  -4.333 -0.34 -0.00    +0.000 A 
DOCKED: ATOM      8  C   UNL     1      20.485 -10.181  -5.037 -0.33 -0.00    +0.000 A 
DOCKED: ATOM      9  C   UNL     1      19.713 -11.111  -4.325 -0.42 -0.00    +0.000 A 
DOCKED: ATOM     10  C   UNL     1      19.758 -11.143  -2.928 -0.31 -0.00    +0.000 A 
DOCKED: BRANCH   5  12
DOCKED: ATOM     11  C   UNL     1      19.935 -11.267  -0.031 -0.59 -0.00    +0.000 C 
DOCKED: ATOM     12  C   UNL     1      20.594 -10.333  -0.734 -0.64 -0.00    +0.000 C 
DOCKED: BRANCH  11  14
DOCKED: ATOM     13  O   UNL     1      19.884 -12.461   1.997 -1.68 -0.00    +0.000 OA
DOCKED: ATOM     14  C   UNL     1      19.938 -11.331   1.445 -0.72 -0.00    +0.000 C 
DOCKED: ATOM     15  N   UNL     1      19.975 -10.153   2.264 -0.49 -0.00    +0.000 N 
DOCKED: ATOM     16  H   UNL     1      19.920  -9.263   1.848 -0.36 -0.00    +0.000 HD
DOCKED: BRANCH  15  17
DOCKED: ATOM     17  O   UNL     1      20.083 -10.265   3.610 -0.76 -0.00    +0.000 OA
DOCKED: ATOM     18  H   UNL     1      20.265  -9.393   3.994 -0.57 -0.00    +0.000 HD
DOCKED: ENDBRANCH  15  17
DOCKED: ENDBRANCH  11  14
DOCKED: ENDBRANCH   5  12
DOCKED: ENDBRANCH   4   8
DOCKED: ENDBRANCH   1   4
DOCKED: BRANCH   1  19
DOCKED: ATOM     19  C   UNL     1      22.773 -10.970  -6.572 -0.39 -0.00    +0.000 C 
DOCKED: BRANCH  19  20
DOCKED: ATOM     20  C   UNL     1      22.902 -12.143  -7.559 -0.37 -0.00    +0.000 C 
DOCKED: BRANCH  20  21
DOCKED: ATOM     21  C   UNL     1      24.142 -11.989  -8.392 -0.42 -0.00    +0.000 A 
DOCKED: ATOM     22  C   UNL     1      24.562 -12.796  -9.452 -0.36 -0.00    +0.000 A 
DOCKED: ATOM     23  N   UNL     1      25.765 -12.388  -9.917 -0.21 -0.00    +0.000 N 
DOCKED: ATOM     24  C   UNL     1      26.121 -11.345  -9.148 -0.33 -0.00    +0.000 A 
DOCKED: ATOM     25  C   UNL     1      25.163 -11.076  -8.204 -0.36 -0.00    +0.000 A 
DOCKED: ATOM     26  C   UNL     1      25.319 -10.051  -7.270 -0.15 -0.00    +0.000 A 
DOCKED: ATOM     27  C   UNL     1      26.498  -9.284  -7.327 -0.34 -0.00    +0.000 A 
DOCKED: ATOM     28  C   UNL     1      27.482  -9.558  -8.302 -0.31 -0.00    +0.000 A 
DOCKED: ATOM     29  C   UNL     1      27.299 -10.602  -9.228 -0.31 -0.00    +0.000 A 
DOCKED: ATOM     30  C   UNL     1      23.795 -13.941 -10.033 -0.41 -0.00    +0.000 C 
DOCKED: ATOM     31  H   UNL     1      26.274 -12.776 -10.666 -0.47 -0.00    +0.000 HD
DOCKED: ENDBRANCH  20  21
DOCKED: ENDBRANCH  19  20
DOCKED: ENDBRANCH   1  19
DOCKED: TORSDOF 8
DOCKED: TER
DOCKED: ENDMDL
________________________________________________________________________________


	BEGINNING GENETIC ALGORITHM DOCKING 41 of 100
Run: 41 Seed: 389911215 1390810842 [ Run 41 of 100 GA/GALS ]
Beginning LAMARCKIAN GENETIC ALGORITHM (LGA), with a maximum of 2500000 energy evaluations.

Final-Value: -14.524


	FINAL GENETIC ALGORITHM DOCKED STATE
	_______________________________________________


Detailed state:  trans 19.875 -11.343 2.682 quatxyzw 0.605389 -0.339529 -0.129587 -0.708118 center 0.698 0.076 -0.072 ntor 8 -3.6501 169.1208 -46.7272 136.1428 45.9030 166.1041 160.6100 -106.8886
State:	 19.875 -11.343   2.682   0.857 -0.481 -0.184 -89.836     -3.65  169.12  -46.73  136.14   45.90  166.10  160.61 -106.89

DOCKED: MODEL       41
DOCKED: USER    Run = 41
DOCKED: USER    DPF = ligand_dock.biased.dpf
DOCKED: USER  
DOCKED: USER    Estimated Free Energy of Binding    =  -10.38 kcal/mol  [=(1)+(2)+(3)-(4)]
DOCKED: USER    Estimated Inhibition Constant, Ki   =   24.77 nM (nanomolar)  [Temperature = 298.15 K]
DOCKED: USER    
DOCKED: USER    (1) Final Intermolecular Energy     =  -12.76 kcal/mol
DOCKED: USER        vdW + Hbond + desolv Energy     =  -12.76 kcal/mol
DOCKED: USER        Electrostatic Energy            =   +0.00 kcal/mol
DOCKED: USER    (2) Final Total Internal Energy     =   -1.76 kcal/mol
DOCKED: USER    (3) Torsional Free Energy           =   +2.39 kcal/mol
DOCKED: USER    (4) Unbound System's Energy  [=(2)] =   -1.76 kcal/mol
DOCKED: USER    
DOCKED: USER    
DOCKED: USER    NEWDPF move ligand.pdbqt
DOCKED: USER    NEWDPF about 0.698000 0.076000 -0.072000
DOCKED: USER    NEWDPF tran0 19.875188 -11.342813 2.682105
DOCKED: USER    NEWDPF quaternion0 0.605389 -0.339529 -0.129587 -0.708118
DOCKED: USER    NEWDPF axisangle0 0.857377 -0.480856 -0.183527 -89.835953
DOCKED: USER    NEWDPF quat0 0.857377 -0.480856 -0.183527 -89.835953
DOCKED: USER    NEWDPF dihe0 -3.65 169.12 -46.73 136.14 45.90 166.10 160.61 -106.89 
DOCKED: USER  keepresnum = 1 
DOCKED: USER  
DOCKED: REMARK  Name = 
DOCKED: REMARK  9 active torsions:
DOCKED: REMARK  status: ('A' for Active; 'I' for Inactive)
DOCKED: REMARK    1  A    between atoms: C_2  and  C_3
DOCKED: REMARK    2  A    between atoms: C_4  and  C_5
DOCKED: REMARK    3  A    between atoms: C_8  and  C_9
DOCKED: REMARK    4  A    between atoms: C_9  and  N_10
DOCKED: REMARK    5  A    between atoms: N_10  and  C_11
DOCKED: REMARK    6  A    between atoms: C_11  and  C_12
DOCKED: REMARK    7  A    between atoms: C_12  and  C_13
DOCKED: REMARK    8  A    between atoms: C_14  and  C_22
DOCKED: REMARK    9  A    between atoms: N_25  and  O_26
DOCKED: REMARK                            x       y       z     vdW  Elec       q    Type
DOCKED: REMARK                         _______ _______ _______ _____ _____    ______ ____
DOCKED: USER                              x       y       z     vdW  Elec       q    Type
DOCKED: USER                           _______ _______ _______ _____ _____    ______ ____
DOCKED: ROOT
DOCKED: ATOM      1  N   UNL     1      19.162 -10.443   2.898 -0.60 -0.00    +0.000 N 
DOCKED: ATOM      2  H   UNL     1      19.899  -9.771   2.683 -0.50 -0.00    +0.000 HD
DOCKED: ATOM      3  H   UNL     1      19.212 -10.752   3.868 -0.02 -0.00    +0.000 HD
DOCKED: ENDROOT
DOCKED: BRANCH   1   4
DOCKED: ATOM      4  C   UNL     1      19.334 -11.624   2.040 -0.70 -0.00    +0.000 C 
DOCKED: BRANCH   4   8
DOCKED: ATOM      5  C   UNL     1      20.672 -10.457  -1.904 -0.50 -0.00    +0.000 A 
DOCKED: ATOM      6  C   UNL     1      19.428 -11.095  -1.728 -0.33 -0.00    +0.000 A 
DOCKED: ATOM      7  C   UNL     1      18.996 -11.465  -0.451 -0.45 -0.00    +0.000 A 
DOCKED: ATOM      8  C   UNL     1      19.785 -11.189   0.675 -0.59 -0.00    +0.000 A 
DOCKED: ATOM      9  C   UNL     1      21.024 -10.551   0.505 -0.60 -0.00    +0.000 A 
DOCKED: ATOM     10  C   UNL     1      21.455 -10.179  -0.772 -0.61 -0.00    +0.000 A 
DOCKED: BRANCH   5  12
DOCKED: ATOM     11  C   UNL     1      21.557 -10.887  -4.194 -0.52 -0.00    +0.000 C 
DOCKED: ATOM     12  C   UNL     1      21.173 -10.031  -3.235 -0.52 -0.00    +0.000 C 
DOCKED: BRANCH  11  14
DOCKED: ATOM     13  O   UNL     1      22.223  -9.229  -5.725 -0.32 -0.00    +0.000 OA
DOCKED: ATOM     14  C   UNL     1      22.057 -10.459  -5.517 -0.40 -0.00    +0.000 C 
DOCKED: ATOM     15  N   UNL     1      22.333 -11.391  -6.572 -0.44 -0.00    +0.000 N 
DOCKED: ATOM     16  H   UNL     1      22.116 -12.344  -6.455 -0.54 -0.00    +0.000 HD
DOCKED: BRANCH  15  17
DOCKED: ATOM     17  O   UNL     1      22.890 -10.962  -7.730 -0.36 -0.00    +0.000 OA
DOCKED: ATOM     18  H   UNL     1      22.986  -9.997  -7.705 +0.00 -0.00    +0.000 HD
DOCKED: ENDBRANCH  15  17
DOCKED: ENDBRANCH  11  14
DOCKED: ENDBRANCH   5  12
DOCKED: ENDBRANCH   4   8
DOCKED: ENDBRANCH   1   4
DOCKED: BRANCH   1  19
DOCKED: ATOM     19  C   UNL     1      17.856  -9.796   2.696 -0.47 -0.00    +0.000 C 
DOCKED: BRANCH  19  20
DOCKED: ATOM     20  C   UNL     1      16.767 -10.373   3.617 -0.35 +0.00    +0.000 C 
DOCKED: BRANCH  20  21
DOCKED: ATOM     21  C   UNL     1      15.544 -10.726   2.820 -0.42 +0.00    +0.000 A 
DOCKED: ATOM     22  C   UNL     1      14.217 -10.402   3.109 -0.34 +0.00    +0.000 A 
DOCKED: ATOM     23  N   UNL     1      13.381 -10.950   2.197 -0.35 +0.00    +0.000 N 
DOCKED: ATOM     24  C   UNL     1      14.164 -11.635   1.346 -0.41 +0.00    +0.000 A 
DOCKED: ATOM     25  C   UNL     1      15.487 -11.529   1.696 -0.40 +0.00    +0.000 A 
DOCKED: ATOM     26  C   UNL     1      16.491 -12.177   0.977 -0.42 +0.00    +0.000 A 
DOCKED: ATOM     27  C   UNL     1      16.109 -12.947  -0.137 -0.49 +0.00    +0.000 A 
DOCKED: ATOM     28  C   UNL     1      14.748 -13.053  -0.501 -0.40 +0.00    +0.000 A 
DOCKED: ATOM     29  C   UNL     1      13.757 -12.392   0.248 -0.31 +0.00    +0.000 A 
DOCKED: ATOM     30  C   UNL     1      13.755  -9.546   4.245 -0.38 +0.00    +0.000 C 
DOCKED: ATOM     31  H   UNL     1      12.401 -10.863   2.163 -0.02 +0.00    +0.000 HD
DOCKED: ENDBRANCH  20  21
DOCKED: ENDBRANCH  19  20
DOCKED: ENDBRANCH   1  19
DOCKED: TORSDOF 8
DOCKED: TER
DOCKED: ENDMDL
________________________________________________________________________________


	BEGINNING GENETIC ALGORITHM DOCKING 42 of 100
Run: 42 Seed: 1063839775 1280023011 [ Run 42 of 100 GA/GALS ]
Beginning LAMARCKIAN GENETIC ALGORITHM (LGA), with a maximum of 2500000 energy evaluations.

Final-Value: -14.317


	FINAL GENETIC ALGORITHM DOCKED STATE
	_______________________________________________


Detailed state:  trans 21.302 -6.953 -4.890 quatxyzw 0.437734 -0.347928 0.579844 -0.592550 center 0.698 0.076 -0.072 ntor 8 27.3711 179.5359 -179.8713 -49.3396 -73.0607 18.5067 -0.7974 72.8283
State:	 21.302  -6.953  -4.890   0.543 -0.432  0.720 -107.324     27.37  179.54 -179.87  -49.34  -73.06   18.51   -0.80   72.83

DOCKED: MODEL       42
DOCKED: USER    Run = 42
DOCKED: USER    DPF = ligand_dock.biased.dpf
DOCKED: USER  
DOCKED: USER    Estimated Free Energy of Binding    =  -10.07 kcal/mol  [=(1)+(2)+(3)-(4)]
DOCKED: USER    Estimated Inhibition Constant, Ki   =   41.77 nM (nanomolar)  [Temperature = 298.15 K]
DOCKED: USER    
DOCKED: USER    (1) Final Intermolecular Energy     =  -12.45 kcal/mol
DOCKED: USER        vdW + Hbond + desolv Energy     =  -12.45 kcal/mol
DOCKED: USER        Electrostatic Energy            =   +0.00 kcal/mol
DOCKED: USER    (2) Final Total Internal Energy     =   -1.86 kcal/mol
DOCKED: USER    (3) Torsional Free Energy           =   +2.39 kcal/mol
DOCKED: USER    (4) Unbound System's Energy  [=(2)] =   -1.86 kcal/mol
DOCKED: USER    
DOCKED: USER    
DOCKED: USER    NEWDPF move ligand.pdbqt
DOCKED: USER    NEWDPF about 0.698000 0.076000 -0.072000
DOCKED: USER    NEWDPF tran0 21.301636 -6.953345 -4.889782
DOCKED: USER    NEWDPF quaternion0 0.437734 -0.347928 0.579844 -0.592550
DOCKED: USER    NEWDPF axisangle0 0.543408 -0.431922 0.719827 -107.323628
DOCKED: USER    NEWDPF quat0 0.543408 -0.431922 0.719827 -107.323628
DOCKED: USER    NEWDPF dihe0 27.37 179.54 -179.87 -49.34 -73.06 18.51 -0.80 72.83 
DOCKED: USER  keepresnum = 1 
DOCKED: USER  
DOCKED: REMARK  Name = 
DOCKED: REMARK  9 active torsions:
DOCKED: REMARK  status: ('A' for Active; 'I' for Inactive)
DOCKED: REMARK    1  A    between atoms: C_2  and  C_3
DOCKED: REMARK    2  A    between atoms: C_4  and  C_5
DOCKED: REMARK    3  A    between atoms: C_8  and  C_9
DOCKED: REMARK    4  A    between atoms: C_9  and  N_10
DOCKED: REMARK    5  A    between atoms: N_10  and  C_11
DOCKED: REMARK    6  A    between atoms: C_11  and  C_12
DOCKED: REMARK    7  A    between atoms: C_12  and  C_13
DOCKED: REMARK    8  A    between atoms: C_14  and  C_22
DOCKED: REMARK    9  A    between atoms: N_25  and  O_26
DOCKED: REMARK                            x       y       z     vdW  Elec       q    Type
DOCKED: REMARK                         _______ _______ _______ _____ _____    ______ ____
DOCKED: USER                              x       y       z     vdW  Elec       q    Type
DOCKED: USER                           _______ _______ _______ _____ _____    ______ ____
DOCKED: ROOT
DOCKED: ATOM      1  N   UNL     1      20.624  -7.153  -5.820 -0.11 -0.00    +0.000 N 
DOCKED: ATOM      2  H   UNL     1      20.748  -6.195  -6.150 +0.00 -0.00    +0.000 HD
DOCKED: ATOM      3  H   UNL     1      19.865  -7.216  -5.142 +0.00 -0.00    +0.000 HD
DOCKED: ENDROOT
DOCKED: BRANCH   1   4
DOCKED: ATOM      4  C   UNL     1      21.860  -7.587  -5.155 -0.23 -0.00    +0.000 C 
DOCKED: BRANCH   4   8
DOCKED: ATOM      5  C   UNL     1      20.776  -9.987  -1.724 -0.53 -0.00    +0.000 A 
DOCKED: ATOM      6  C   UNL     1      20.810 -10.553  -3.013 -0.47 -0.00    +0.000 A 
DOCKED: ATOM      7  C   UNL     1      21.166  -9.776  -4.120 -0.39 -0.00    +0.000 A 
DOCKED: ATOM      8  C   UNL     1      21.515  -8.428  -3.958 -0.30 -0.00    +0.000 A 
DOCKED: ATOM      9  C   UNL     1      21.486  -7.860  -2.676 -0.36 -0.00    +0.000 A 
DOCKED: ATOM     10  C   UNL     1      21.132  -8.637  -1.569 -0.47 -0.00    +0.000 A 
DOCKED: BRANCH   5  12
DOCKED: ATOM     11  C   UNL     1      20.781 -10.424   0.730 -0.66 -0.00    +0.000 C 
DOCKED: ATOM     12  C   UNL     1      20.418 -10.769  -0.514 -0.61 -0.00    +0.000 C 
DOCKED: BRANCH  11  14
DOCKED: ATOM     13  O   UNL     1      20.012 -12.387   1.777 -1.74 -0.00    +0.000 OA
DOCKED: ATOM     14  C   UNL     1      20.423 -11.207   1.931 -0.75 -0.00    +0.000 C 
DOCKED: ATOM     15  N   UNL     1      20.504 -10.662   3.256 -0.68 -0.00    +0.000 N 
DOCKED: ATOM     16  H   UNL     1      20.730  -9.713   3.383 -0.58 -0.00    +0.000 HD
DOCKED: BRANCH  15  17
DOCKED: ATOM     17  O   UNL     1      20.268 -11.451   4.331 -0.77 -0.00    +0.000 OA
DOCKED: ATOM     18  H   UNL     1      20.485 -12.371   4.113 -0.41 -0.00    +0.000 HD
DOCKED: ENDBRANCH  15  17
DOCKED: ENDBRANCH  11  14
DOCKED: ENDBRANCH   5  12
DOCKED: ENDBRANCH   4   8
DOCKED: ENDBRANCH   1   4
DOCKED: BRANCH   1  19
DOCKED: ATOM     19  C   UNL     1      20.279  -8.009  -6.966 -0.09 -0.00    +0.000 C 
DOCKED: BRANCH  19  20
DOCKED: ATOM     20  C   UNL     1      21.391  -8.044  -8.027 -0.08 -0.00    +0.000 C 
DOCKED: BRANCH  20  21
DOCKED: ATOM     21  C   UNL     1      22.037  -9.400  -8.060 -0.15 -0.00    +0.000 A 
DOCKED: ATOM     22  C   UNL     1      21.407 -10.644  -7.995 -0.24 -0.00    +0.000 A 
DOCKED: ATOM     23  N   UNL     1      22.321 -11.642  -7.984 -0.31 -0.00    +0.000 N 
DOCKED: ATOM     24  C   UNL     1      23.523 -11.041  -8.018 -0.34 -0.00    +0.000 A 
DOCKED: ATOM     25  C   UNL     1      23.391  -9.676  -8.058 -0.19 -0.00    +0.000 A 
DOCKED: ATOM     26  C   UNL     1      24.502  -8.831  -8.072 -0.18 -0.00    +0.000 A 
DOCKED: ATOM     27  C   UNL     1      25.778  -9.424  -8.052 -0.27 -0.00    +0.000 A 
DOCKED: ATOM     28  C   UNL     1      25.913 -10.829  -8.016 -0.35 -0.00    +0.000 A 
DOCKED: ATOM     29  C   UNL     1      24.774 -11.655  -7.997 -0.40 -0.00    +0.000 A 
DOCKED: ATOM     30  C   UNL     1      19.930 -10.875  -7.972 -0.19 -0.00    +0.000 C 
DOCKED: ATOM     31  H   UNL     1      22.142 -12.610  -7.956 -0.63 -0.00    +0.000 HD
DOCKED: ENDBRANCH  20  21
DOCKED: ENDBRANCH  19  20
DOCKED: ENDBRANCH   1  19
DOCKED: TORSDOF 8
DOCKED: TER
DOCKED: ENDMDL
________________________________________________________________________________


	BEGINNING GENETIC ALGORITHM DOCKING 43 of 100
Run: 43 Seed: 501816441 588809266 [ Run 43 of 100 GA/GALS ]
Beginning LAMARCKIAN GENETIC ALGORITHM (LGA), with a maximum of 2500000 energy evaluations.

Final-Value: -14.986


	FINAL GENETIC ALGORITHM DOCKED STATE
	_______________________________________________


Detailed state:  trans 21.324 -10.645 -5.617 quatxyzw 0.674043 0.291955 0.574372 0.361283 center 0.698 0.076 -0.072 ntor 8 29.0882 -109.6171 -177.6394 -49.3933 -94.8483 132.3740 178.9613 -18.4043
State:	 21.324 -10.645  -5.617   0.723  0.313  0.616 137.642     29.09 -109.62 -177.64  -49.39  -94.85  132.37  178.96  -18.40

DOCKED: MODEL       43
DOCKED: USER    Run = 43
DOCKED: USER    DPF = ligand_dock.biased.dpf
DOCKED: USER  
DOCKED: USER    Estimated Free Energy of Binding    =  -11.16 kcal/mol  [=(1)+(2)+(3)-(4)]
DOCKED: USER    Estimated Inhibition Constant, Ki   =    6.62 nM (nanomolar)  [Temperature = 298.15 K]
DOCKED: USER    
DOCKED: USER    (1) Final Intermolecular Energy     =  -13.54 kcal/mol
DOCKED: USER        vdW + Hbond + desolv Energy     =  -13.54 kcal/mol
DOCKED: USER        Electrostatic Energy            =   +0.00 kcal/mol
DOCKED: USER    (2) Final Total Internal Energy     =   -1.44 kcal/mol
DOCKED: USER    (3) Torsional Free Energy           =   +2.39 kcal/mol
DOCKED: USER    (4) Unbound System's Energy  [=(2)] =   -1.44 kcal/mol
DOCKED: USER    
DOCKED: USER    
DOCKED: USER    NEWDPF move ligand.pdbqt
DOCKED: USER    NEWDPF about 0.698000 0.076000 -0.072000
DOCKED: USER    NEWDPF tran0 21.324110 -10.644901 -5.616754
DOCKED: USER    NEWDPF quaternion0 0.674043 0.291955 0.574372 0.361283
DOCKED: USER    NEWDPF axisangle0 0.722868 0.313103 0.615978 137.642022
DOCKED: USER    NEWDPF quat0 0.722868 0.313103 0.615978 137.642022
DOCKED: USER    NEWDPF dihe0 29.09 -109.62 -177.64 -49.39 -94.85 132.37 178.96 -18.40 
DOCKED: USER  keepresnum = 1 
DOCKED: USER  
DOCKED: REMARK  Name = 
DOCKED: REMARK  9 active torsions:
DOCKED: REMARK  status: ('A' for Active; 'I' for Inactive)
DOCKED: REMARK    1  A    between atoms: C_2  and  C_3
DOCKED: REMARK    2  A    between atoms: C_4  and  C_5
DOCKED: REMARK    3  A    between atoms: C_8  and  C_9
DOCKED: REMARK    4  A    between atoms: C_9  and  N_10
DOCKED: REMARK    5  A    between atoms: N_10  and  C_11
DOCKED: REMARK    6  A    between atoms: C_11  and  C_12
DOCKED: REMARK    7  A    between atoms: C_12  and  C_13
DOCKED: REMARK    8  A    between atoms: C_14  and  C_22
DOCKED: REMARK    9  A    between atoms: N_25  and  O_26
DOCKED: REMARK                            x       y       z     vdW  Elec       q    Type
DOCKED: REMARK                         _______ _______ _______ _____ _____    ______ ____
DOCKED: USER                              x       y       z     vdW  Elec       q    Type
DOCKED: USER                           _______ _______ _______ _____ _____    ______ ____
DOCKED: ROOT
DOCKED: ATOM      1  N   UNL     1      21.493 -11.139  -6.661 -0.33 -0.00    +0.000 N 
DOCKED: ATOM      2  H   UNL     1      20.772 -11.838  -6.478 -0.43 -0.00    +0.000 HD
DOCKED: ATOM      3  H   UNL     1      22.393 -11.428  -6.280 -0.07 -0.00    +0.000 HD
DOCKED: ENDROOT
DOCKED: BRANCH   1   4
DOCKED: ATOM      4  C   UNL     1      21.109  -9.881  -6.009 -0.31 -0.00    +0.000 C 
DOCKED: BRANCH   4   8
DOCKED: ATOM      5  C   UNL     1      20.096 -10.559  -1.858 -0.45 -0.00    +0.000 A 
DOCKED: ATOM      6  C   UNL     1      19.086 -10.459  -2.836 -0.35 -0.00    +0.000 A 
DOCKED: ATOM      7  C   UNL     1      19.417 -10.246  -4.177 -0.32 -0.00    +0.000 A 
DOCKED: ATOM      8  C   UNL     1      20.760 -10.149  -4.572 -0.38 -0.00    +0.000 A 
DOCKED: ATOM      9  C   UNL     1      21.769 -10.250  -3.602 -0.36 -0.00    +0.000 A 
DOCKED: ATOM     10  C   UNL     1      21.439 -10.466  -2.261 -0.48 -0.00    +0.000 A 
DOCKED: BRANCH   5  12
DOCKED: ATOM     11  C   UNL     1      20.697 -11.280   0.451 -0.65 -0.00    +0.000 C 
DOCKED: ATOM     12  C   UNL     1      19.801 -10.797  -0.423 -0.57 -0.00    +0.000 C 
DOCKED: BRANCH  11  14
DOCKED: ATOM     13  O   UNL     1      19.892 -12.623   2.208 -1.54 -0.00    +0.000 OA
DOCKED: ATOM     14  C   UNL     1      20.398 -11.518   1.878 -0.77 -0.00    +0.000 C 
DOCKED: ATOM     15  N   UNL     1      20.640 -10.529   2.889 -0.62 -0.00    +0.000 N 
DOCKED: ATOM     16  H   UNL     1      20.944  -9.629   2.632 -0.57 -0.00    +0.000 HD
DOCKED: BRANCH  15  17
DOCKED: ATOM     17  O   UNL     1      20.449 -10.832   4.196 -0.75 -0.00    +0.000 OA
DOCKED: ATOM     18  H   UNL     1      20.606 -11.779   4.335 -0.43 -0.00    +0.000 HD
DOCKED: ENDBRANCH  15  17
DOCKED: ENDBRANCH  11  14
DOCKED: ENDBRANCH   5  12
DOCKED: ENDBRANCH   4   8
DOCKED: ENDBRANCH   1   4
DOCKED: BRANCH   1  19
DOCKED: ATOM     19  C   UNL     1      21.646 -10.987  -8.117 -0.25 -0.00    +0.000 C 
DOCKED: BRANCH  19  20
DOCKED: ATOM     20  C   UNL     1      22.643  -9.876  -8.488 -0.20 -0.00    +0.000 C 
DOCKED: BRANCH  20  21
DOCKED: ATOM     21  C   UNL     1      24.034 -10.433  -8.579 -0.23 -0.00    +0.000 A 
DOCKED: ATOM     22  C   UNL     1      24.432 -11.638  -9.162 -0.31 -0.00    +0.000 A 
DOCKED: ATOM     23  N   UNL     1      25.760 -11.836  -8.992 -0.40 -0.00    +0.000 N 
DOCKED: ATOM     24  C   UNL     1      26.202 -10.780  -8.288 -0.36 -0.00    +0.000 A 
DOCKED: ATOM     25  C   UNL     1      25.180  -9.907  -8.012 -0.29 -0.00    +0.000 A 
DOCKED: ATOM     26  C   UNL     1      25.387  -8.745  -7.268 -0.25 -0.00    +0.000 A 
DOCKED: ATOM     27  C   UNL     1      26.691  -8.483  -6.809 -0.31 -0.00    +0.000 A 
DOCKED: ATOM     28  C   UNL     1      27.745  -9.378  -7.098 -0.44 -0.00    +0.000 A 
DOCKED: ATOM     29  C   UNL     1      27.503 -10.545  -7.846 -0.33 -0.00    +0.000 A 
DOCKED: ATOM     30  C   UNL     1      23.543 -12.584  -9.904 -0.35 -0.00    +0.000 C 
DOCKED: ATOM     31  H   UNL     1      26.293 -12.598  -9.318 -0.47 -0.00    +0.000 HD
DOCKED: ENDBRANCH  20  21
DOCKED: ENDBRANCH  19  20
DOCKED: ENDBRANCH   1  19
DOCKED: TORSDOF 8
DOCKED: TER
DOCKED: ENDMDL
________________________________________________________________________________


	BEGINNING GENETIC ALGORITHM DOCKING 44 of 100
Run: 44 Seed: 1424443912 730104232 [ Run 44 of 100 GA/GALS ]
Beginning LAMARCKIAN GENETIC ALGORITHM (LGA), with a maximum of 2500000 energy evaluations.

Final-Value: -13.379


	FINAL GENETIC ALGORITHM DOCKED STATE
	_______________________________________________


Detailed state:  trans 18.987 -10.544 0.977 quatxyzw 0.245611 -0.484800 -0.417183 0.728425 center 0.698 0.076 -0.072 ntor 8 -4.4198 -133.0946 -139.2708 158.6590 165.4888 -115.6819 -76.2431 -13.0709
State:	 18.987 -10.544   0.977   0.358 -0.708 -0.609 86.491     -4.42 -133.09 -139.27  158.66  165.49 -115.68  -76.24  -13.07

DOCKED: MODEL       44
DOCKED: USER    Run = 44
DOCKED: USER    DPF = ligand_dock.biased.dpf
DOCKED: USER  
DOCKED: USER    Estimated Free Energy of Binding    =   -8.85 kcal/mol  [=(1)+(2)+(3)-(4)]
DOCKED: USER    Estimated Inhibition Constant, Ki   =  325.31 nM (nanomolar)  [Temperature = 298.15 K]
DOCKED: USER    
DOCKED: USER    (1) Final Intermolecular Energy     =  -11.24 kcal/mol
DOCKED: USER        vdW + Hbond + desolv Energy     =  -11.24 kcal/mol
DOCKED: USER        Electrostatic Energy            =   +0.00 kcal/mol
DOCKED: USER    (2) Final Total Internal Energy     =   -2.14 kcal/mol
DOCKED: USER    (3) Torsional Free Energy           =   +2.39 kcal/mol
DOCKED: USER    (4) Unbound System's Energy  [=(2)] =   -2.14 kcal/mol
DOCKED: USER    
DOCKED: USER    
DOCKED: USER    NEWDPF move ligand.pdbqt
DOCKED: USER    NEWDPF about 0.698000 0.076000 -0.072000
DOCKED: USER    NEWDPF tran0 18.986880 -10.544288 0.977070
DOCKED: USER    NEWDPF quaternion0 0.245611 -0.484800 -0.417183 0.728425
DOCKED: USER    NEWDPF axisangle0 0.358490 -0.707607 -0.608914 86.491008
DOCKED: USER    NEWDPF quat0 0.358490 -0.707607 -0.608914 86.491008
DOCKED: USER    NEWDPF dihe0 -4.42 -133.09 -139.27 158.66 165.49 -115.68 -76.24 -13.07 
DOCKED: USER  keepresnum = 1 
DOCKED: USER  
DOCKED: REMARK  Name = 
DOCKED: REMARK  9 active torsions:
DOCKED: REMARK  status: ('A' for Active; 'I' for Inactive)
DOCKED: REMARK    1  A    between atoms: C_2  and  C_3
DOCKED: REMARK    2  A    between atoms: C_4  and  C_5
DOCKED: REMARK    3  A    between atoms: C_8  and  C_9
DOCKED: REMARK    4  A    between atoms: C_9  and  N_10
DOCKED: REMARK    5  A    between atoms: N_10  and  C_11
DOCKED: REMARK    6  A    between atoms: C_11  and  C_12
DOCKED: REMARK    7  A    between atoms: C_12  and  C_13
DOCKED: REMARK    8  A    between atoms: C_14  and  C_22
DOCKED: REMARK    9  A    between atoms: N_25  and  O_26
DOCKED: REMARK                            x       y       z     vdW  Elec       q    Type
DOCKED: REMARK                         _______ _______ _______ _____ _____    ______ ____
DOCKED: USER                              x       y       z     vdW  Elec       q    Type
DOCKED: USER                           _______ _______ _______ _____ _____    ______ ____
DOCKED: ROOT
DOCKED: ATOM      1  N   UNL     1      18.205 -10.779   1.812 -0.46 -0.00    +0.000 N 
DOCKED: ATOM      2  H   UNL     1      17.900 -11.624   1.329 -0.00 -0.00    +0.000 HD
DOCKED: ATOM      3  H   UNL     1      17.717  -9.955   1.462 -0.02 -0.00    +0.000 HD
DOCKED: ENDROOT
DOCKED: BRANCH   1   4
DOCKED: ATOM      4  C   UNL     1      19.641 -10.588   1.572 -0.64 -0.00    +0.000 C 
DOCKED: BRANCH   4   8
DOCKED: ATOM      5  C   UNL     1      20.381 -10.554  -2.690 -0.45 -0.00    +0.000 A 
DOCKED: ATOM      6  C   UNL     1      19.063 -10.581  -2.191 -0.36 -0.00    +0.000 A 
DOCKED: ATOM      7  C   UNL     1      18.828 -10.586  -0.813 -0.34 -0.00    +0.000 A 
DOCKED: ATOM      8  C   UNL     1      19.899 -10.543   0.092 -0.53 -0.00    +0.000 A 
DOCKED: ATOM      9  C   UNL     1      21.212 -10.514  -0.401 -0.63 -0.00    +0.000 A 
DOCKED: ATOM     10  C   UNL     1      21.448 -10.507  -1.778 -0.50 -0.00    +0.000 A 
DOCKED: BRANCH   5  12
DOCKED: ATOM     11  C   UNL     1      21.884 -10.856  -4.655 -0.44 -0.00    +0.000 C 
DOCKED: ATOM     12  C   UNL     1      20.687 -10.535  -4.142 -0.49 -0.00    +0.000 C 
DOCKED: BRANCH  11  14
DOCKED: ATOM     13  O   UNL     1      22.121  -9.733  -6.710 -0.28 -0.00    +0.000 OA
DOCKED: ATOM     14  C   UNL     1      22.185 -10.833  -6.102 -0.44 -0.00    +0.000 C 
DOCKED: ATOM     15  N   UNL     1      22.521 -12.019  -6.835 -0.41 -0.00    +0.000 N 
DOCKED: ATOM     16  H   UNL     1      22.480 -12.898  -6.393 -0.51 -0.00    +0.000 HD
DOCKED: BRANCH  15  17
DOCKED: ATOM     17  O   UNL     1      22.892 -11.933  -8.135 -0.45 -0.00    +0.000 OA
DOCKED: ATOM     18  H   UNL     1      22.812 -11.014  -8.434 -0.01 -0.00    +0.000 HD
DOCKED: ENDBRANCH  15  17
DOCKED: ENDBRANCH  11  14
DOCKED: ENDBRANCH   5  12
DOCKED: ENDBRANCH   4   8
DOCKED: ENDBRANCH   1   4
DOCKED: BRANCH   1  19
DOCKED: ATOM     19  C   UNL     1      17.894 -10.914   3.244 -0.45 +0.00    +0.000 C 
DOCKED: BRANCH  19  20
DOCKED: ATOM     20  C   UNL     1      16.387 -10.801   3.530 -0.52 +0.00    +0.000 C 
DOCKED: BRANCH  20  21
DOCKED: ATOM     21  C   UNL     1      15.658 -10.327   2.306 -0.36 +0.00    +0.000 A 
DOCKED: ATOM     22  C   UNL     1      15.055  -9.084   2.102 -0.27 +0.00    +0.000 A 
DOCKED: ATOM     23  N   UNL     1      14.434  -9.045   0.900 -0.22 +0.00    +0.000 N 
DOCKED: ATOM     24  C   UNL     1      14.619 -10.258   0.352 -0.24 +0.00    +0.000 A 
DOCKED: ATOM     25  C   UNL     1      15.353 -11.069   1.180 -0.33 +0.00    +0.000 A 
DOCKED: ATOM     26  C   UNL     1      15.653 -12.388   0.839 -0.42 +0.00    +0.000 A 
DOCKED: ATOM     27  C   UNL     1      15.185 -12.870  -0.397 -0.49 +0.00    +0.000 A 
DOCKED: ATOM     28  C   UNL     1      14.433 -12.033  -1.252 -0.37 +0.00    +0.000 A 
DOCKED: ATOM     29  C   UNL     1      14.142 -10.709  -0.879 -0.27 +0.00    +0.000 A 
DOCKED: ATOM     30  C   UNL     1      15.099  -7.927   3.049 -0.33 +0.00    +0.000 C 
DOCKED: ATOM     31  H   UNL     1      13.948  -8.283   0.509 -0.00 +0.00    +0.000 HD
DOCKED: ENDBRANCH  20  21
DOCKED: ENDBRANCH  19  20
DOCKED: ENDBRANCH   1  19
DOCKED: TORSDOF 8
DOCKED: TER
DOCKED: ENDMDL
________________________________________________________________________________


	BEGINNING GENETIC ALGORITHM DOCKING 45 of 100
Run: 45 Seed: 935851167 1584024707 [ Run 45 of 100 GA/GALS ]
Beginning LAMARCKIAN GENETIC ALGORITHM (LGA), with a maximum of 2500000 energy evaluations.

Final-Value: -14.930


	FINAL GENETIC ALGORITHM DOCKED STATE
	_______________________________________________


Detailed state:  trans 15.221 -11.931 -0.787 quatxyzw -0.427157 -0.324243 0.815963 0.215887 center 0.698 0.076 -0.072 ntor 8 -10.0122 -180.0000 -25.0233 153.0388 90.0483 -26.6864 -16.5349 -133.2348
State:	 15.221 -11.931  -0.787  -0.437 -0.332  0.836 155.065    -10.01 -180.00  -25.02  153.04   90.05  -26.69  -16.53 -133.23

DOCKED: MODEL       45
DOCKED: USER    Run = 45
DOCKED: USER    DPF = ligand_dock.biased.dpf
DOCKED: USER  
DOCKED: USER    Estimated Free Energy of Binding    =  -10.55 kcal/mol  [=(1)+(2)+(3)-(4)]
DOCKED: USER    Estimated Inhibition Constant, Ki   =   18.54 nM (nanomolar)  [Temperature = 298.15 K]
DOCKED: USER    
DOCKED: USER    (1) Final Intermolecular Energy     =  -12.93 kcal/mol
DOCKED: USER        vdW + Hbond + desolv Energy     =  -12.93 kcal/mol
DOCKED: USER        Electrostatic Energy            =   +0.00 kcal/mol
DOCKED: USER    (2) Final Total Internal Energy     =   -2.00 kcal/mol
DOCKED: USER    (3) Torsional Free Energy           =   +2.39 kcal/mol
DOCKED: USER    (4) Unbound System's Energy  [=(2)] =   -2.00 kcal/mol
DOCKED: USER    
DOCKED: USER    
DOCKED: USER    NEWDPF move ligand.pdbqt
DOCKED: USER    NEWDPF about 0.698000 0.076000 -0.072000
DOCKED: USER    NEWDPF tran0 15.220514 -11.931174 -0.786980
DOCKED: USER    NEWDPF quaternion0 -0.427157 -0.324243 0.815963 0.215887
DOCKED: USER    NEWDPF axisangle0 -0.437473 -0.332074 0.835670 155.064827
DOCKED: USER    NEWDPF quat0 -0.437473 -0.332074 0.835670 155.064827
DOCKED: USER    NEWDPF dihe0 -10.01 -180.00 -25.02 153.04 90.05 -26.69 -16.53 -133.23 
DOCKED: USER  keepresnum = 1 
DOCKED: USER  
DOCKED: REMARK  Name = 
DOCKED: REMARK  9 active torsions:
DOCKED: REMARK  status: ('A' for Active; 'I' for Inactive)
DOCKED: REMARK    1  A    between atoms: C_2  and  C_3
DOCKED: REMARK    2  A    between atoms: C_4  and  C_5
DOCKED: REMARK    3  A    between atoms: C_8  and  C_9
DOCKED: REMARK    4  A    between atoms: C_9  and  N_10
DOCKED: REMARK    5  A    between atoms: N_10  and  C_11
DOCKED: REMARK    6  A    between atoms: C_11  and  C_12
DOCKED: REMARK    7  A    between atoms: C_12  and  C_13
DOCKED: REMARK    8  A    between atoms: C_14  and  C_22
DOCKED: REMARK    9  A    between atoms: N_25  and  O_26
DOCKED: REMARK                            x       y       z     vdW  Elec       q    Type
DOCKED: REMARK                         _______ _______ _______ _____ _____    ______ ____
DOCKED: USER                              x       y       z     vdW  Elec       q    Type
DOCKED: USER                           _______ _______ _______ _____ _____    ______ ____
DOCKED: ROOT
DOCKED: ATOM      1  N   UNL     1      16.247 -12.094  -0.254 -0.41 +0.00    +0.000 N 
DOCKED: ATOM      2  H   UNL     1      16.627 -11.241  -0.664 -0.00 -0.00    +0.000 HD
DOCKED: ATOM      3  H   UNL     1      16.348 -12.887  -0.887 -0.02 +0.00    +0.000 HD
DOCKED: ENDROOT
DOCKED: BRANCH   1   4
DOCKED: ATOM      4  C   UNL     1      14.813 -11.900  -0.002 -0.46 +0.00    +0.000 C 
DOCKED: BRANCH   4   8
DOCKED: ATOM      5  C   UNL     1      14.370  -8.796   2.978 -0.26 +0.00    +0.000 A 
DOCKED: ATOM      6  C   UNL     1      14.893  -8.497   1.704 -0.25 +0.00    +0.000 A 
DOCKED: ATOM      7  C   UNL     1      15.030  -9.502   0.741 -0.24 +0.00    +0.000 A 
DOCKED: ATOM      8  C   UNL     1      14.628 -10.816   1.023 -0.29 +0.00    +0.000 A 
DOCKED: ATOM      9  C   UNL     1      14.104 -11.117   2.289 -0.38 +0.00    +0.000 A 
DOCKED: ATOM     10  C   UNL     1      13.966 -10.113   3.252 -0.31 +0.00    +0.000 A 
DOCKED: BRANCH   5  12
DOCKED: ATOM     11  C   UNL     1      15.140  -6.879   4.373 -0.43 +0.00    +0.000 C 
DOCKED: ATOM     12  C   UNL     1      14.193  -7.766   4.032 -0.33 +0.00    +0.000 C 
DOCKED: BRANCH  11  14
DOCKED: ATOM     13  O   UNL     1      14.008  -5.995   6.238 -1.06 +0.00    +0.000 OA
DOCKED: ATOM     14  C   UNL     1      14.960  -5.857   5.425 -0.44 +0.00    +0.000 C 
DOCKED: ATOM     15  N   UNL     1      15.811  -4.707   5.534 -0.49 +0.00    +0.000 N 
DOCKED: ATOM     16  H   UNL     1      16.497  -4.538   4.848 -0.37 -0.00    +0.000 HD
DOCKED: BRANCH  15  17
DOCKED: ATOM     17  O   UNL     1      15.673  -3.854   6.577 -0.63 +0.00    +0.000 OA
DOCKED: ATOM     18  H   UNL     1      14.864  -4.070   7.067 -0.09 +0.00    +0.000 HD
DOCKED: ENDBRANCH  15  17
DOCKED: ENDBRANCH  11  14
DOCKED: ENDBRANCH   5  12
DOCKED: ENDBRANCH   4   8
DOCKED: ENDBRANCH   1   4
DOCKED: BRANCH   1  19
DOCKED: ATOM     19  C   UNL     1      16.992 -12.401   0.977 -0.50 +0.00    +0.000 C 
DOCKED: BRANCH  19  20
DOCKED: ATOM     20  C   UNL     1      17.793 -11.194   1.494 -0.50 -0.00    +0.000 C 
DOCKED: BRANCH  20  21
DOCKED: ATOM     21  C   UNL     1      19.137 -11.136   0.826 -0.52 -0.00    +0.000 A 
DOCKED: ATOM     22  C   UNL     1      20.391 -11.283   1.422 -0.66 -0.00    +0.000 A 
DOCKED: ATOM     23  N   UNL     1      21.377 -11.100   0.514 -0.60 -0.00    +0.000 N 
DOCKED: ATOM     24  C   UNL     1      20.760 -10.816  -0.646 -0.52 -0.00    +0.000 A 
DOCKED: ATOM     25  C   UNL     1      19.396 -10.821  -0.495 -0.46 -0.00    +0.000 A 
DOCKED: ATOM     26  C   UNL     1      18.538 -10.528  -1.556 -0.29 -0.00    +0.000 A 
DOCKED: ATOM     27  C   UNL     1      19.115 -10.231  -2.804 -0.33 -0.00    +0.000 A 
DOCKED: ATOM     28  C   UNL     1      20.519 -10.231  -2.961 -0.45 -0.00    +0.000 A 
DOCKED: ATOM     29  C   UNL     1      21.359 -10.525  -1.871 -0.52 -0.00    +0.000 A 
DOCKED: ATOM     30  C   UNL     1      20.640 -11.626   2.856 -0.65 -0.00    +0.000 C 
DOCKED: ATOM     31  H   UNL     1      22.347 -11.163   0.671 -0.46 -0.00    +0.000 HD
DOCKED: ENDBRANCH  20  21
DOCKED: ENDBRANCH  19  20
DOCKED: ENDBRANCH   1  19
DOCKED: TORSDOF 8
DOCKED: TER
DOCKED: ENDMDL
________________________________________________________________________________


	BEGINNING GENETIC ALGORITHM DOCKING 46 of 100
Run: 46 Seed: 1829532377 1526772448 [ Run 46 of 100 GA/GALS ]
Beginning LAMARCKIAN GENETIC ALGORITHM (LGA), with a maximum of 2500000 energy evaluations.

Final-Value: -14.612


	FINAL GENETIC ALGORITHM DOCKED STATE
	_______________________________________________


Detailed state:  trans 21.194 -7.542 -5.822 quatxyzw 0.446716 0.808389 -0.344845 0.167435 center 0.698 0.076 -0.072 ntor 8 27.4521 177.8162 -161.3433 9.0907 -32.0169 -179.4402 161.0309 -117.0531
State:	 21.194  -7.542  -5.822   0.453  0.820 -0.350 160.723     27.45  177.82 -161.34    9.09  -32.02 -179.44  161.03 -117.05

DOCKED: MODEL       46
DOCKED: USER    Run = 46
DOCKED: USER    DPF = ligand_dock.biased.dpf
DOCKED: USER  
DOCKED: USER    Estimated Free Energy of Binding    =  -10.78 kcal/mol  [=(1)+(2)+(3)-(4)]
DOCKED: USER    Estimated Inhibition Constant, Ki   =   12.53 nM (nanomolar)  [Temperature = 298.15 K]
DOCKED: USER    
DOCKED: USER    (1) Final Intermolecular Energy     =  -13.17 kcal/mol
DOCKED: USER        vdW + Hbond + desolv Energy     =  -13.17 kcal/mol
DOCKED: USER        Electrostatic Energy            =   +0.00 kcal/mol
DOCKED: USER    (2) Final Total Internal Energy     =   -1.45 kcal/mol
DOCKED: USER    (3) Torsional Free Energy           =   +2.39 kcal/mol
DOCKED: USER    (4) Unbound System's Energy  [=(2)] =   -1.45 kcal/mol
DOCKED: USER    
DOCKED: USER    
DOCKED: USER    NEWDPF move ligand.pdbqt
DOCKED: USER    NEWDPF about 0.698000 0.076000 -0.072000
DOCKED: USER    NEWDPF tran0 21.193913 -7.542200 -5.822194
DOCKED: USER    NEWDPF quaternion0 0.446716 0.808389 -0.344845 0.167435
DOCKED: USER    NEWDPF axisangle0 0.453112 0.819964 -0.349782 160.722589
DOCKED: USER    NEWDPF quat0 0.453112 0.819964 -0.349782 160.722589
DOCKED: USER    NEWDPF dihe0 27.45 177.82 -161.34 9.09 -32.02 -179.44 161.03 -117.05 
DOCKED: USER  keepresnum = 1 
DOCKED: USER  
DOCKED: REMARK  Name = 
DOCKED: REMARK  9 active torsions:
DOCKED: REMARK  status: ('A' for Active; 'I' for Inactive)
DOCKED: REMARK    1  A    between atoms: C_2  and  C_3
DOCKED: REMARK    2  A    between atoms: C_4  and  C_5
DOCKED: REMARK    3  A    between atoms: C_8  and  C_9
DOCKED: REMARK    4  A    between atoms: C_9  and  N_10
DOCKED: REMARK    5  A    between atoms: N_10  and  C_11
DOCKED: REMARK    6  A    between atoms: C_11  and  C_12
DOCKED: REMARK    7  A    between atoms: C_12  and  C_13
DOCKED: REMARK    8  A    between atoms: C_14  and  C_22
DOCKED: REMARK    9  A    between atoms: N_25  and  O_26
DOCKED: REMARK                            x       y       z     vdW  Elec       q    Type
DOCKED: REMARK                         _______ _______ _______ _____ _____    ______ ____
DOCKED: USER                              x       y       z     vdW  Elec       q    Type
DOCKED: USER                           _______ _______ _______ _____ _____    ______ ____
DOCKED: ROOT
DOCKED: ATOM      1  N   UNL     1      22.215  -8.069  -6.031 -0.20 -0.00    +0.000 N 
DOCKED: ATOM      2  H   UNL     1      22.622  -7.680  -5.180 -0.02 -0.00    +0.000 HD
DOCKED: ATOM      3  H   UNL     1      22.291  -7.416  -6.810 -0.00 -0.00    +0.000 HD
DOCKED: ENDROOT
DOCKED: BRANCH   1   4
DOCKED: ATOM      4  C   UNL     1      20.789  -8.329  -5.797 -0.19 -0.00    +0.000 C 
DOCKED: BRANCH   4   8
DOCKED: ATOM      5  C   UNL     1      20.214 -10.404  -2.046 -0.46 -0.00    +0.000 A 
DOCKED: ATOM      6  C   UNL     1      19.862 -11.016  -3.265 -0.39 -0.00    +0.000 A 
DOCKED: ATOM      7  C   UNL     1      20.055 -10.345  -4.477 -0.36 -0.00    +0.000 A 
DOCKED: ATOM      8  C   UNL     1      20.620  -9.061  -4.496 -0.29 -0.00    +0.000 A 
DOCKED: ATOM      9  C   UNL     1      20.974  -8.449  -3.285 -0.37 -0.00    +0.000 A 
DOCKED: ATOM     10  C   UNL     1      20.784  -9.120  -2.073 -0.45 -0.00    +0.000 A 
DOCKED: BRANCH   5  12
DOCKED: ATOM     11  C   UNL     1      20.442 -10.546   0.432 -0.67 -0.00    +0.000 C 
DOCKED: ATOM     12  C   UNL     1      20.043 -11.076  -0.734 -0.45 -0.00    +0.000 C 
DOCKED: BRANCH  11  14
DOCKED: ATOM     13  O   UNL     1      19.975 -12.443   1.744 -1.72 -0.00    +0.000 OA
DOCKED: ATOM     14  C   UNL     1      20.271 -11.220   1.736 -0.75 -0.00    +0.000 C 
DOCKED: ATOM     15  N   UNL     1      20.406 -10.524   2.984 -0.66 -0.00    +0.000 N 
DOCKED: ATOM     16  H   UNL     1      20.542  -9.549   2.990 -0.57 -0.00    +0.000 HD
DOCKED: BRANCH  15  17
DOCKED: ATOM     17  O   UNL     1      20.346 -11.206   4.152 -0.77 -0.00    +0.000 OA
DOCKED: ATOM     18  H   UNL     1      20.640 -12.120   4.010 -0.54 -0.00    +0.000 HD
DOCKED: ENDBRANCH  15  17
DOCKED: ENDBRANCH  11  14
DOCKED: ENDBRANCH   5  12
DOCKED: ENDBRANCH   4   8
DOCKED: ENDBRANCH   1   4
DOCKED: BRANCH   1  19
DOCKED: ATOM     19  C   UNL     1      22.951  -9.291  -6.391 -0.23 -0.00    +0.000 C 
DOCKED: BRANCH  19  20
DOCKED: ATOM     20  C   UNL     1      23.265  -9.364  -7.895 -0.21 -0.00    +0.000 C 
DOCKED: BRANCH  20  21
DOCKED: ATOM     21  C   UNL     1      24.513 -10.165  -8.129 -0.27 -0.00    +0.000 A 
DOCKED: ATOM     22  C   UNL     1      24.606 -11.495  -8.546 -0.37 -0.00    +0.000 A 
DOCKED: ATOM     23  N   UNL     1      25.897 -11.897  -8.581 -0.40 -0.00    +0.000 N 
DOCKED: ATOM     24  C   UNL     1      26.621 -10.842  -8.168 -0.31 -0.00    +0.000 A 
DOCKED: ATOM     25  C   UNL     1      25.814  -9.771  -7.877 -0.31 -0.00    +0.000 A 
DOCKED: ATOM     26  C   UNL     1      26.334  -8.567  -7.403 -0.27 -0.00    +0.000 A 
DOCKED: ATOM     27  C   UNL     1      27.728  -8.473  -7.236 -0.31 -0.00    +0.000 A 
DOCKED: ATOM     28  C   UNL     1      28.560  -9.574  -7.541 -0.43 -0.00    +0.000 A 
DOCKED: ATOM     29  C   UNL     1      28.006 -10.778  -8.012 -0.30 -0.00    +0.000 A 
DOCKED: ATOM     30  C   UNL     1      23.457 -12.369  -8.937 -0.43 -0.00    +0.000 C 
DOCKED: ATOM     31  H   UNL     1      26.237 -12.780  -8.853 -0.46 -0.00    +0.000 HD
DOCKED: ENDBRANCH  20  21
DOCKED: ENDBRANCH  19  20
DOCKED: ENDBRANCH   1  19
DOCKED: TORSDOF 8
DOCKED: TER
DOCKED: ENDMDL
________________________________________________________________________________


	BEGINNING GENETIC ALGORITHM DOCKING 47 of 100
Run: 47 Seed: 1793895243 1456374535 [ Run 47 of 100 GA/GALS ]
Beginning LAMARCKIAN GENETIC ALGORITHM (LGA), with a maximum of 2500000 energy evaluations.

Final-Value: -14.656


	FINAL GENETIC ALGORITHM DOCKED STATE
	_______________________________________________


Detailed state:  trans 20.320 -7.820 -4.945 quatxyzw -0.693739 0.423113 -0.553433 0.182797 center 0.698 0.076 -0.072 ntor 8 17.1487 22.2125 155.7823 4.1265 138.2541 174.5572 177.8587 6.0788
State:	 20.320  -7.820  -4.945  -0.706  0.430 -0.563 158.935     17.15   22.21  155.78    4.13  138.25  174.56  177.86    6.08

DOCKED: MODEL       47
DOCKED: USER    Run = 47
DOCKED: USER    DPF = ligand_dock.biased.dpf
DOCKED: USER  
DOCKED: USER    Estimated Free Energy of Binding    =   -9.87 kcal/mol  [=(1)+(2)+(3)-(4)]
DOCKED: USER    Estimated Inhibition Constant, Ki   =   58.53 nM (nanomolar)  [Temperature = 298.15 K]
DOCKED: USER    
DOCKED: USER    (1) Final Intermolecular Energy     =  -12.25 kcal/mol
DOCKED: USER        vdW + Hbond + desolv Energy     =  -12.25 kcal/mol
DOCKED: USER        Electrostatic Energy            =   +0.00 kcal/mol
DOCKED: USER    (2) Final Total Internal Energy     =   -2.40 kcal/mol
DOCKED: USER    (3) Torsional Free Energy           =   +2.39 kcal/mol
DOCKED: USER    (4) Unbound System's Energy  [=(2)] =   -2.40 kcal/mol
DOCKED: USER    
DOCKED: USER    
DOCKED: USER    NEWDPF move ligand.pdbqt
DOCKED: USER    NEWDPF about 0.698000 0.076000 -0.072000
DOCKED: USER    NEWDPF tran0 20.320181 -7.820255 -4.944785
DOCKED: USER    NEWDPF quaternion0 -0.693739 0.423113 -0.553433 0.182797
DOCKED: USER    NEWDPF axisangle0 -0.705628 0.430364 -0.562917 158.934568
DOCKED: USER    NEWDPF quat0 -0.705628 0.430364 -0.562917 158.934568
DOCKED: USER    NEWDPF dihe0 17.15 22.21 155.78 4.13 138.25 174.56 177.86 6.08 
DOCKED: USER  keepresnum = 1 
DOCKED: USER  
DOCKED: REMARK  Name = 
DOCKED: REMARK  9 active torsions:
DOCKED: REMARK  status: ('A' for Active; 'I' for Inactive)
DOCKED: REMARK    1  A    between atoms: C_2  and  C_3
DOCKED: REMARK    2  A    between atoms: C_4  and  C_5
DOCKED: REMARK    3  A    between atoms: C_8  and  C_9
DOCKED: REMARK    4  A    between atoms: C_9  and  N_10
DOCKED: REMARK    5  A    between atoms: N_10  and  C_11
DOCKED: REMARK    6  A    between atoms: C_11  and  C_12
DOCKED: REMARK    7  A    between atoms: C_12  and  C_13
DOCKED: REMARK    8  A    between atoms: C_14  and  C_22
DOCKED: REMARK    9  A    between atoms: N_25  and  O_26
DOCKED: REMARK                            x       y       z     vdW  Elec       q    Type
DOCKED: REMARK                         _______ _______ _______ _____ _____    ______ ____
DOCKED: USER                              x       y       z     vdW  Elec       q    Type
DOCKED: USER                           _______ _______ _______ _____ _____    ______ ____
DOCKED: ROOT
DOCKED: ATOM      1  N   UNL     1      19.696  -7.605  -5.908 -0.10 -0.00    +0.000 N 
DOCKED: ATOM      2  H   UNL     1      19.257  -6.792  -5.476 -0.00 -0.00    +0.000 HD
DOCKED: ATOM      3  H   UNL     1      19.201  -8.464  -5.671 +0.00 -0.00    +0.000 HD
DOCKED: ENDROOT
DOCKED: BRANCH   1   4
DOCKED: ATOM      4  C   UNL     1      21.071  -7.724  -5.404 -0.20 -0.00    +0.000 C 
DOCKED: BRANCH   4   8
DOCKED: ATOM      5  C   UNL     1      21.089  -9.268  -1.364 -0.54 -0.00    +0.000 A 
DOCKED: ATOM      6  C   UNL     1      21.229  -7.887  -1.604 -0.38 -0.00    +0.000 A 
DOCKED: ATOM      7  C   UNL     1      21.216  -7.390  -2.911 -0.38 -0.00    +0.000 A 
DOCKED: ATOM      8  C   UNL     1      21.044  -8.258  -4.000 -0.31 -0.00    +0.000 A 
DOCKED: ATOM      9  C   UNL     1      20.901  -9.634  -3.765 -0.40 -0.00    +0.000 A 
DOCKED: ATOM     10  C   UNL     1      20.912 -10.130  -2.458 -0.50 -0.00    +0.000 A 
DOCKED: BRANCH   5  12
DOCKED: ATOM     11  C   UNL     1      20.181 -10.745   0.427 -0.66 -0.00    +0.000 C 
DOCKED: ATOM     12  C   UNL     1      21.082  -9.846   0.003 -0.69 -0.00    +0.000 C 
DOCKED: BRANCH  11  14
DOCKED: ATOM     13  O   UNL     1      19.886 -12.533   1.928 -1.66 -0.00    +0.000 OA
DOCKED: ATOM     14  C   UNL     1      20.177 -11.317   1.790 -0.76 -0.00    +0.000 C 
DOCKED: ATOM     15  N   UNL     1      20.466 -10.529   2.953 -0.65 -0.00    +0.000 N 
DOCKED: ATOM     16  H   UNL     1      20.600  -9.558   2.868 -0.57 -0.00    +0.000 HD
DOCKED: BRANCH  15  17
DOCKED: ATOM     17  O   UNL     1      20.554 -11.120   4.169 -0.70 -0.00    +0.000 OA
DOCKED: ATOM     18  H   UNL     1      20.669 -12.076   4.058 -0.53 -0.00    +0.000 HD
DOCKED: ENDBRANCH  15  17
DOCKED: ENDBRANCH  11  14
DOCKED: ENDBRANCH   5  12
DOCKED: ENDBRANCH   4   8
DOCKED: ENDBRANCH   1   4
DOCKED: BRANCH   1  19
DOCKED: ATOM     19  C   UNL     1      19.651  -7.447  -7.370 -0.06 -0.00    +0.000 C 
DOCKED: BRANCH  19  20
DOCKED: ATOM     20  C   UNL     1      19.381  -8.776  -8.096 -0.10 -0.00    +0.000 C 
DOCKED: BRANCH  20  21
DOCKED: ATOM     21  C   UNL     1      20.095  -9.902  -7.406 -0.20 -0.00    +0.000 A 
DOCKED: ATOM     22  C   UNL     1      19.576 -10.781  -6.453 -0.31 -0.00    +0.000 A 
DOCKED: ATOM     23  N   UNL     1      20.536 -11.623  -6.005 -0.17 -0.00    +0.000 N 
DOCKED: ATOM     24  C   UNL     1      21.663 -11.270  -6.648 -0.23 -0.00    +0.000 A 
DOCKED: ATOM     25  C   UNL     1      21.436 -10.221  -7.504 -0.24 -0.00    +0.000 A 
DOCKED: ATOM     26  C   UNL     1      22.462  -9.659  -8.265 -0.16 -0.00    +0.000 A 
DOCKED: ATOM     27  C   UNL     1      23.751 -10.208  -8.137 -0.24 -0.00    +0.000 A 
DOCKED: ATOM     28  C   UNL     1      23.983 -11.291  -7.260 -0.34 -0.00    +0.000 A 
DOCKED: ATOM     29  C   UNL     1      22.930 -11.833  -6.501 -0.44 -0.00    +0.000 A 
DOCKED: ATOM     30  C   UNL     1      18.153 -10.831  -5.994 -0.35 -0.00    +0.000 C 
DOCKED: ATOM     31  H   UNL     1      20.431 -12.346  -5.345 -0.38 -0.00    +0.000 HD
DOCKED: ENDBRANCH  20  21
DOCKED: ENDBRANCH  19  20
DOCKED: ENDBRANCH   1  19
DOCKED: TORSDOF 8
DOCKED: TER
DOCKED: ENDMDL
________________________________________________________________________________


	BEGINNING GENETIC ALGORITHM DOCKING 48 of 100
Run: 48 Seed: 62359980 344858679 [ Run 48 of 100 GA/GALS ]
Beginning LAMARCKIAN GENETIC ALGORITHM (LGA), with a maximum of 2500000 energy evaluations.

Final-Value: -14.315


	FINAL GENETIC ALGORITHM DOCKED STATE
	_______________________________________________


Detailed state:  trans 20.812 -11.682 1.848 quatxyzw 0.443923 0.187132 0.498481 0.720715 center 0.698 0.076 -0.072 ntor 8 28.1897 -4.7114 112.2845 166.8008 -22.0295 -122.9483 130.5765 -118.6368
State:	 20.812 -11.682   1.848   0.640  0.270  0.719 87.773     28.19   -4.71  112.28  166.80  -22.03 -122.95  130.58 -118.64

DOCKED: MODEL       48
DOCKED: USER    Run = 48
DOCKED: USER    DPF = ligand_dock.biased.dpf
DOCKED: USER  
DOCKED: USER    Estimated Free Energy of Binding    =  -10.48 kcal/mol  [=(1)+(2)+(3)-(4)]
DOCKED: USER    Estimated Inhibition Constant, Ki   =   20.65 nM (nanomolar)  [Temperature = 298.15 K]
DOCKED: USER    
DOCKED: USER    (1) Final Intermolecular Energy     =  -12.87 kcal/mol
DOCKED: USER        vdW + Hbond + desolv Energy     =  -12.87 kcal/mol
DOCKED: USER        Electrostatic Energy            =   +0.00 kcal/mol
DOCKED: USER    (2) Final Total Internal Energy     =   -1.44 kcal/mol
DOCKED: USER    (3) Torsional Free Energy           =   +2.39 kcal/mol
DOCKED: USER    (4) Unbound System's Energy  [=(2)] =   -1.44 kcal/mol
DOCKED: USER    
DOCKED: USER    
DOCKED: USER    NEWDPF move ligand.pdbqt
DOCKED: USER    NEWDPF about 0.698000 0.076000 -0.072000
DOCKED: USER    NEWDPF tran0 20.812362 -11.682321 1.847843
DOCKED: USER    NEWDPF quaternion0 0.443923 0.187132 0.498481 0.720715
DOCKED: USER    NEWDPF axisangle0 0.640367 0.269942 0.719069 87.772887
DOCKED: USER    NEWDPF quat0 0.640367 0.269942 0.719069 87.772887
DOCKED: USER    NEWDPF dihe0 28.19 -4.71 112.28 166.80 -22.03 -122.95 130.58 -118.64 
DOCKED: USER  keepresnum = 1 
DOCKED: USER  
DOCKED: REMARK  Name = 
DOCKED: REMARK  9 active torsions:
DOCKED: REMARK  status: ('A' for Active; 'I' for Inactive)
DOCKED: REMARK    1  A    between atoms: C_2  and  C_3
DOCKED: REMARK    2  A    between atoms: C_4  and  C_5
DOCKED: REMARK    3  A    between atoms: C_8  and  C_9
DOCKED: REMARK    4  A    between atoms: C_9  and  N_10
DOCKED: REMARK    5  A    between atoms: N_10  and  C_11
DOCKED: REMARK    6  A    between atoms: C_11  and  C_12
DOCKED: REMARK    7  A    between atoms: C_12  and  C_13
DOCKED: REMARK    8  A    between atoms: C_14  and  C_22
DOCKED: REMARK    9  A    between atoms: N_25  and  O_26
DOCKED: REMARK                            x       y       z     vdW  Elec       q    Type
DOCKED: REMARK                         _______ _______ _______ _____ _____    ______ ____
DOCKED: USER                              x       y       z     vdW  Elec       q    Type
DOCKED: USER                           _______ _______ _______ _____ _____    ______ ____
DOCKED: ROOT
DOCKED: ATOM      1  N   UNL     1      20.854 -11.262   0.759 -0.66 -0.00    +0.000 N 
DOCKED: ATOM      2  H   UNL     1      20.524 -12.148   0.375 -0.05 -0.00    +0.000 HD
DOCKED: ATOM      3  H   UNL     1      21.865 -11.268   0.890 -0.47 -0.00    +0.000 HD
DOCKED: ENDROOT
DOCKED: BRANCH   1   4
DOCKED: ATOM      4  C   UNL     1      20.230 -11.055   2.072 -0.74 -0.00    +0.000 C 
DOCKED: BRANCH   4   8
DOCKED: ATOM      5  C   UNL     1      15.967 -11.750   1.824 -0.40 +0.00    +0.000 A 
DOCKED: ATOM      6  C   UNL     1      16.487 -10.788   2.714 -0.43 +0.00    +0.000 A 
DOCKED: ATOM      7  C   UNL     1      17.865 -10.562   2.787 -0.47 -0.00    +0.000 A 
DOCKED: ATOM      8  C   UNL     1      18.747 -11.274   1.962 -0.53 -0.00    +0.000 A 
DOCKED: ATOM      9  C   UNL     1      18.234 -12.231   1.072 -0.49 -0.00    +0.000 A 
DOCKED: ATOM     10  C   UNL     1      16.857 -12.456   0.997 -0.38 +0.00    +0.000 A 
DOCKED: BRANCH   5  12
DOCKED: ATOM     11  C   UNL     1      13.708 -11.373   0.842 -0.40 +0.00    +0.000 C 
DOCKED: ATOM     12  C   UNL     1      14.514 -12.020   1.697 -0.48 +0.00    +0.000 C 
DOCKED: BRANCH  11  14
DOCKED: ATOM     13  O   UNL     1      11.636 -11.144  -0.252 -0.36 +0.00    +0.000 OA
DOCKED: ATOM     14  C   UNL     1      12.260 -11.644   0.721 -0.43 +0.00    +0.000 C 
DOCKED: ATOM     15  N   UNL     1      11.543 -12.430   1.682 -0.39 +0.00    +0.000 N 
DOCKED: ATOM     16  H   UNL     1      11.997 -12.745   2.497 -0.59 +0.00    +0.000 HD
DOCKED: BRANCH  15  17
DOCKED: ATOM     17  O   UNL     1      10.241 -12.740   1.472 -0.52 +0.00    +0.000 OA
DOCKED: ATOM     18  H   UNL     1      10.065 -12.771   0.519 -0.51 -0.00    +0.000 HD
DOCKED: ENDBRANCH  15  17
DOCKED: ENDBRANCH  11  14
DOCKED: ENDBRANCH   5  12
DOCKED: ENDBRANCH   4   8
DOCKED: ENDBRANCH   1   4
DOCKED: BRANCH   1  19
DOCKED: ATOM     19  C   UNL     1      20.527 -10.184  -0.188 -0.65 -0.00    +0.000 C 
DOCKED: BRANCH  19  20
DOCKED: ATOM     20  C   UNL     1      21.523 -10.111  -1.358 -0.57 -0.00    +0.000 C 
DOCKED: BRANCH  20  21
DOCKED: ATOM     21  C   UNL     1      20.932  -9.329  -2.496 -0.47 -0.00    +0.000 A 
DOCKED: ATOM     22  C   UNL     1      20.365  -9.830  -3.670 -0.38 -0.00    +0.000 A 
DOCKED: ATOM     23  N   UNL     1      20.001  -8.821  -4.494 -0.23 -0.00    +0.000 N 
DOCKED: ATOM     24  C   UNL     1      20.352  -7.687  -3.864 -0.26 -0.00    +0.000 A 
DOCKED: ATOM     25  C   UNL     1      20.929  -7.955  -2.648 -0.37 -0.00    +0.000 A 
DOCKED: ATOM     26  C   UNL     1      21.402  -6.937  -1.819 -0.35 -0.00    +0.000 A 
DOCKED: ATOM     27  C   UNL     1      21.262  -5.609  -2.264 -0.40 -0.00    +0.000 A 
DOCKED: ATOM     28  C   UNL     1      20.664  -5.333  -3.514 -0.23 -0.00    +0.000 A 
DOCKED: ATOM     29  C   UNL     1      20.202  -6.381  -4.331 -0.18 -0.00    +0.000 A 
DOCKED: ATOM     30  C   UNL     1      20.148 -11.276  -3.986 -0.48 -0.00    +0.000 C 
DOCKED: ATOM     31  H   UNL     1      19.566  -8.901  -5.374 +0.01 -0.00    +0.000 HD
DOCKED: ENDBRANCH  20  21
DOCKED: ENDBRANCH  19  20
DOCKED: ENDBRANCH   1  19
DOCKED: TORSDOF 8
DOCKED: TER
DOCKED: ENDMDL
________________________________________________________________________________


	BEGINNING GENETIC ALGORITHM DOCKING 49 of 100
Run: 49 Seed: 1243416933 1352135011 [ Run 49 of 100 GA/GALS ]
Beginning LAMARCKIAN GENETIC ALGORITHM (LGA), with a maximum of 2500000 energy evaluations.

Final-Value: -14.204


	FINAL GENETIC ALGORITHM DOCKED STATE
	_______________________________________________


Detailed state:  trans 20.966 -7.493 -4.796 quatxyzw -0.631291 0.473617 -0.611600 0.055715 center 0.698 0.076 -0.072 ntor 8 20.5944 -177.3336 175.4549 156.0394 -179.9469 168.5301 -12.0450 12.2602
State:	 20.966  -7.493  -4.796  -0.632  0.474 -0.613 173.612     20.59 -177.33  175.45  156.04 -179.95  168.53  -12.05   12.26

DOCKED: MODEL       49
DOCKED: USER    Run = 49
DOCKED: USER    DPF = ligand_dock.biased.dpf
DOCKED: USER  
DOCKED: USER    Estimated Free Energy of Binding    =   -9.62 kcal/mol  [=(1)+(2)+(3)-(4)]
DOCKED: USER    Estimated Inhibition Constant, Ki   =   88.37 nM (nanomolar)  [Temperature = 298.15 K]
DOCKED: USER    
DOCKED: USER    (1) Final Intermolecular Energy     =  -12.01 kcal/mol
DOCKED: USER        vdW + Hbond + desolv Energy     =  -12.01 kcal/mol
DOCKED: USER        Electrostatic Energy            =   +0.00 kcal/mol
DOCKED: USER    (2) Final Total Internal Energy     =   -2.19 kcal/mol
DOCKED: USER    (3) Torsional Free Energy           =   +2.39 kcal/mol
DOCKED: USER    (4) Unbound System's Energy  [=(2)] =   -2.19 kcal/mol
DOCKED: USER    
DOCKED: USER    
DOCKED: USER    NEWDPF move ligand.pdbqt
DOCKED: USER    NEWDPF about 0.698000 0.076000 -0.072000
DOCKED: USER    NEWDPF tran0 20.966241 -7.492893 -4.796408
DOCKED: USER    NEWDPF quaternion0 -0.631291 0.473617 -0.611600 0.055715
DOCKED: USER    NEWDPF axisangle0 -0.632273 0.474353 -0.612552 173.612230
DOCKED: USER    NEWDPF quat0 -0.632273 0.474353 -0.612552 173.612230
DOCKED: USER    NEWDPF dihe0 20.59 -177.33 175.45 156.04 -179.95 168.53 -12.05 12.26 
DOCKED: USER  keepresnum = 1 
DOCKED: USER  
DOCKED: REMARK  Name = 
DOCKED: REMARK  9 active torsions:
DOCKED: REMARK  status: ('A' for Active; 'I' for Inactive)
DOCKED: REMARK    1  A    between atoms: C_2  and  C_3
DOCKED: REMARK    2  A    between atoms: C_4  and  C_5
DOCKED: REMARK    3  A    between atoms: C_8  and  C_9
DOCKED: REMARK    4  A    between atoms: C_9  and  N_10
DOCKED: REMARK    5  A    between atoms: N_10  and  C_11
DOCKED: REMARK    6  A    between atoms: C_11  and  C_12
DOCKED: REMARK    7  A    between atoms: C_12  and  C_13
DOCKED: REMARK    8  A    between atoms: C_14  and  C_22
DOCKED: REMARK    9  A    between atoms: N_25  and  O_26
DOCKED: REMARK                            x       y       z     vdW  Elec       q    Type
DOCKED: REMARK                         _______ _______ _______ _____ _____    ______ ____
DOCKED: USER                              x       y       z     vdW  Elec       q    Type
DOCKED: USER                           _______ _______ _______ _____ _____    ______ ____
DOCKED: ROOT
DOCKED: ATOM      1  N   UNL     1      20.613  -7.134  -5.850 -0.11 -0.00    +0.000 N 
DOCKED: ATOM      2  H   UNL     1      20.025  -6.409  -5.436 +0.00 -0.00    +0.000 HD
DOCKED: ATOM      3  H   UNL     1      20.124  -8.028  -5.892 +0.01 -0.00    +0.000 HD
DOCKED: ENDROOT
DOCKED: BRANCH   1   4
DOCKED: ATOM      4  C   UNL     1      21.805  -7.311  -5.011 -0.23 -0.00    +0.000 C 
DOCKED: BRANCH   4   8
DOCKED: ATOM      5  C   UNL     1      20.745  -9.840  -1.666 -0.53 -0.00    +0.000 A 
DOCKED: ATOM      6  C   UNL     1      20.834 -10.372  -2.968 -0.47 -0.00    +0.000 A 
DOCKED: ATOM      7  C   UNL     1      21.183  -9.553  -4.046 -0.38 -0.00    +0.000 A 
DOCKED: ATOM      8  C   UNL     1      21.469  -8.195  -3.844 -0.31 -0.00    +0.000 A 
DOCKED: ATOM      9  C   UNL     1      21.384  -7.661  -2.549 -0.41 -0.00    +0.000 A 
DOCKED: ATOM     10  C   UNL     1      21.037  -8.480  -1.470 -0.45 -0.00    +0.000 A 
DOCKED: BRANCH   5  12
DOCKED: ATOM     11  C   UNL     1      20.786 -10.384   0.766 -0.65 -0.00    +0.000 C 
DOCKED: ATOM     12  C   UNL     1      20.391 -10.666  -0.485 -0.62 -0.00    +0.000 C 
DOCKED: BRANCH  11  14
DOCKED: ATOM     13  O   UNL     1      20.050 -12.395   1.743 -1.74 -0.00    +0.000 OA
DOCKED: ATOM     14  C   UNL     1      20.433 -11.212   1.938 -0.74 -0.00    +0.000 C 
DOCKED: ATOM     15  N   UNL     1      20.489 -10.706   3.280 -0.68 -0.00    +0.000 N 
DOCKED: ATOM     16  H   UNL     1      20.693  -9.757   3.438 -0.57 -0.00    +0.000 HD
DOCKED: BRANCH  15  17
DOCKED: ATOM     17  O   UNL     1      20.259 -11.533   4.328 -0.77 -0.00    +0.000 OA
DOCKED: ATOM     18  H   UNL     1      20.396 -12.452   4.052 -0.35 -0.00    +0.000 HD
DOCKED: ENDBRANCH  15  17
DOCKED: ENDBRANCH  11  14
DOCKED: ENDBRANCH   5  12
DOCKED: ENDBRANCH   4   8
DOCKED: ENDBRANCH   1   4
DOCKED: BRANCH   1  19
DOCKED: ATOM     19  C   UNL     1      20.954  -6.739  -7.226 -0.06 -0.00    +0.000 C 
DOCKED: BRANCH  19  20
DOCKED: ATOM     20  C   UNL     1      21.115  -7.950  -8.160 -0.07 -0.00    +0.000 C 
DOCKED: BRANCH  20  21
DOCKED: ATOM     21  C   UNL     1      20.783  -9.220  -7.430 -0.14 -0.00    +0.000 A 
DOCKED: ATOM     22  C   UNL     1      21.656 -10.251  -7.076 -0.27 -0.00    +0.000 A 
DOCKED: ATOM     23  N   UNL     1      20.983 -11.266  -6.487 -0.28 -0.00    +0.000 N 
DOCKED: ATOM     24  C   UNL     1      19.691 -10.898  -6.485 -0.31 -0.00    +0.000 A 
DOCKED: ATOM     25  C   UNL     1      19.528  -9.661  -7.057 -0.18 -0.00    +0.000 A 
DOCKED: ATOM     26  C   UNL     1      18.269  -9.075  -7.194 -0.11 -0.00    +0.000 A 
DOCKED: ATOM     27  C   UNL     1      17.156  -9.791  -6.716 -0.15 -0.00    +0.000 A 
DOCKED: ATOM     28  C   UNL     1      17.324 -11.062  -6.122 -0.31 -0.00    +0.000 A 
DOCKED: ATOM     29  C   UNL     1      18.606 -11.629  -6.003 -0.26 -0.00    +0.000 A 
DOCKED: ATOM     30  C   UNL     1      23.138 -10.248  -7.280 -0.34 -0.00    +0.000 C 
DOCKED: ATOM     31  H   UNL     1      21.363 -12.102  -6.132 -0.55 -0.00    +0.000 HD
DOCKED: ENDBRANCH  20  21
DOCKED: ENDBRANCH  19  20
DOCKED: ENDBRANCH   1  19
DOCKED: TORSDOF 8
DOCKED: TER
DOCKED: ENDMDL
________________________________________________________________________________


	BEGINNING GENETIC ALGORITHM DOCKING 50 of 100
Run: 50 Seed: 330921616 1239187979 [ Run 50 of 100 GA/GALS ]
Beginning LAMARCKIAN GENETIC ALGORITHM (LGA), with a maximum of 2500000 energy evaluations.

Final-Value: -14.104


	FINAL GENETIC ALGORITHM DOCKED STATE
	_______________________________________________


Detailed state:  trans 20.663 -8.378 -6.073 quatxyzw -0.102731 -0.916364 0.378517 -0.080308 center 0.698 0.076 -0.072 ntor 8 29.8468 7.9456 -162.0132 64.6628 12.8867 117.2669 -84.0549 -88.3213
State:	 20.663  -8.378  -6.073  -0.103 -0.919  0.380 -170.787     29.85    7.95 -162.01   64.66   12.89  117.27  -84.05  -88.32

DOCKED: MODEL       50
DOCKED: USER    Run = 50
DOCKED: USER    DPF = ligand_dock.biased.dpf
DOCKED: USER  
DOCKED: USER    Estimated Free Energy of Binding    =  -10.56 kcal/mol  [=(1)+(2)+(3)-(4)]
DOCKED: USER    Estimated Inhibition Constant, Ki   =   18.07 nM (nanomolar)  [Temperature = 298.15 K]
DOCKED: USER    
DOCKED: USER    (1) Final Intermolecular Energy     =  -12.95 kcal/mol
DOCKED: USER        vdW + Hbond + desolv Energy     =  -12.95 kcal/mol
DOCKED: USER        Electrostatic Energy            =   +0.00 kcal/mol
DOCKED: USER    (2) Final Total Internal Energy     =   -1.15 kcal/mol
DOCKED: USER    (3) Torsional Free Energy           =   +2.39 kcal/mol
DOCKED: USER    (4) Unbound System's Energy  [=(2)] =   -1.15 kcal/mol
DOCKED: USER    
DOCKED: USER    
DOCKED: USER    NEWDPF move ligand.pdbqt
DOCKED: USER    NEWDPF about 0.698000 0.076000 -0.072000
DOCKED: USER    NEWDPF tran0 20.662966 -8.377690 -6.072716
DOCKED: USER    NEWDPF quaternion0 -0.102731 -0.916364 0.378517 -0.080308
DOCKED: USER    NEWDPF axisangle0 -0.103064 -0.919333 0.379743 -170.787429
DOCKED: USER    NEWDPF quat0 -0.103064 -0.919333 0.379743 -170.787429
DOCKED: USER    NEWDPF dihe0 29.85 7.95 -162.01 64.66 12.89 117.27 -84.05 -88.32 
DOCKED: USER  keepresnum = 1 
DOCKED: USER  
DOCKED: REMARK  Name = 
DOCKED: REMARK  9 active torsions:
DOCKED: REMARK  status: ('A' for Active; 'I' for Inactive)
DOCKED: REMARK    1  A    between atoms: C_2  and  C_3
DOCKED: REMARK    2  A    between atoms: C_4  and  C_5
DOCKED: REMARK    3  A    between atoms: C_8  and  C_9
DOCKED: REMARK    4  A    between atoms: C_9  and  N_10
DOCKED: REMARK    5  A    between atoms: N_10  and  C_11
DOCKED: REMARK    6  A    between atoms: C_11  and  C_12
DOCKED: REMARK    7  A    between atoms: C_12  and  C_13
DOCKED: REMARK    8  A    between atoms: C_14  and  C_22
DOCKED: REMARK    9  A    between atoms: N_25  and  O_26
DOCKED: REMARK                            x       y       z     vdW  Elec       q    Type
DOCKED: REMARK                         _______ _______ _______ _____ _____    ______ ____
DOCKED: USER                              x       y       z     vdW  Elec       q    Type
DOCKED: USER                           _______ _______ _______ _____ _____    ______ ____
DOCKED: ROOT
DOCKED: ATOM      1  N   UNL     1      21.744  -8.070  -6.390 -0.16 -0.00    +0.000 N 
DOCKED: ATOM      2  H   UNL     1      21.870  -7.527  -5.536 -0.01 -0.00    +0.000 HD
DOCKED: ATOM      3  H   UNL     1      21.280  -7.522  -7.113 +0.00 -0.00    +0.000 HD
DOCKED: ENDROOT
DOCKED: BRANCH   1   4
DOCKED: ATOM      4  C   UNL     1      20.896  -9.231  -6.090 -0.23 -0.00    +0.000 C 
DOCKED: BRANCH   4   8
DOCKED: ATOM      5  C   UNL     1      20.977 -10.011  -1.836 -0.54 -0.00    +0.000 A 
DOCKED: ATOM      6  C   UNL     1      21.731  -8.956  -2.386 -0.25 -0.00    +0.000 A 
DOCKED: ATOM      7  C   UNL     1      21.698  -8.703  -3.761 -0.28 -0.00    +0.000 A 
DOCKED: ATOM      8  C   UNL     1      20.898  -9.483  -4.608 -0.32 -0.00    +0.000 A 
DOCKED: ATOM      9  C   UNL     1      20.142 -10.533  -4.065 -0.40 -0.00    +0.000 A 
DOCKED: ATOM     10  C   UNL     1      20.173 -10.785  -2.690 -0.40 -0.00    +0.000 A 
DOCKED: BRANCH   5  12
DOCKED: ATOM     11  C   UNL     1      20.186 -11.253   0.175 -0.62 -0.00    +0.000 C 
DOCKED: ATOM     12  C   UNL     1      20.965 -10.315  -0.383 -0.69 -0.00    +0.000 C 
DOCKED: BRANCH  11  14
DOCKED: ATOM     13  O   UNL     1      19.799 -12.692   1.997 -1.54 -0.00    +0.000 OA
DOCKED: ATOM     14  C   UNL     1      20.177 -11.551   1.622 -0.76 -0.00    +0.000 C 
DOCKED: ATOM     15  N   UNL     1      20.557 -10.581   2.608 -0.62 -0.00    +0.000 N 
DOCKED: ATOM     16  H   UNL     1      20.761  -9.657   2.335 -0.54 -0.00    +0.000 HD
DOCKED: BRANCH  15  17
DOCKED: ATOM     17  O   UNL     1      20.633 -10.932   3.914 -0.79 -0.00    +0.000 OA
DOCKED: ATOM     18  H   UNL     1      20.873 -11.870   3.984 -0.54 -0.00    +0.000 HD
DOCKED: ENDBRANCH  15  17
DOCKED: ENDBRANCH  11  14
DOCKED: ENDBRANCH   5  12
DOCKED: ENDBRANCH   4   8
DOCKED: ENDBRANCH   1   4
DOCKED: BRANCH   1  19
DOCKED: ATOM     19  C   UNL     1      23.067  -8.465  -6.900 -0.22 -0.00    +0.000 C 
DOCKED: BRANCH  19  20
DOCKED: ATOM     20  C   UNL     1      22.989  -9.650  -7.877 -0.23 -0.00    +0.000 C 
DOCKED: BRANCH  20  21
DOCKED: ATOM     21  C   UNL     1      24.344 -10.273  -8.050 -0.28 -0.00    +0.000 A 
DOCKED: ATOM     22  C   UNL     1      24.636 -11.578  -8.453 -0.39 -0.00    +0.000 A 
DOCKED: ATOM     23  N   UNL     1      25.971 -11.799  -8.427 -0.37 -0.00    +0.000 N 
DOCKED: ATOM     24  C   UNL     1      26.525 -10.655  -7.991 -0.32 -0.00    +0.000 A 
DOCKED: ATOM     25  C   UNL     1      25.566  -9.704  -7.743 -0.30 -0.00    +0.000 A 
DOCKED: ATOM     26  C   UNL     1      25.895  -8.439  -7.256 -0.25 -0.00    +0.000 A 
DOCKED: ATOM     27  C   UNL     1      27.255  -8.156  -7.029 -0.29 -0.00    +0.000 A 
DOCKED: ATOM     28  C   UNL     1      28.242  -9.132  -7.288 -0.39 -0.00    +0.000 A 
DOCKED: ATOM     29  C   UNL     1      27.879 -10.402  -7.775 -0.40 -0.00    +0.000 A 
DOCKED: ATOM     30  C   UNL     1      23.636 -12.602  -8.887 -0.43 -0.00    +0.000 C 
DOCKED: ATOM     31  H   UNL     1      26.440 -12.628  -8.678 -0.36 -0.00    +0.000 HD
DOCKED: ENDBRANCH  20  21
DOCKED: ENDBRANCH  19  20
DOCKED: ENDBRANCH   1  19
DOCKED: TORSDOF 8
DOCKED: TER
DOCKED: ENDMDL
________________________________________________________________________________


	BEGINNING GENETIC ALGORITHM DOCKING 51 of 100
Run: 51 Seed: 1374202806 926026768 [ Run 51 of 100 GA/GALS ]
Beginning LAMARCKIAN GENETIC ALGORITHM (LGA), with a maximum of 2500000 energy evaluations.

Final-Value: -14.764


	FINAL GENETIC ALGORITHM DOCKED STATE
	_______________________________________________


Detailed state:  trans 21.265 -7.589 -5.942 quatxyzw -0.336135 -0.838268 0.409389 -0.129306 center 0.698 0.076 -0.072 ntor 8 18.7138 54.1409 -67.2799 11.4677 -15.4162 -170.9462 176.7909 -112.8993
State:	 21.265  -7.589  -5.942  -0.339 -0.845  0.413 -165.141     18.71   54.14  -67.28   11.47  -15.42 -170.95  176.79 -112.90

DOCKED: MODEL       51
DOCKED: USER    Run = 51
DOCKED: USER    DPF = ligand_dock.biased.dpf
DOCKED: USER  
DOCKED: USER    Estimated Free Energy of Binding    =  -10.88 kcal/mol  [=(1)+(2)+(3)-(4)]
DOCKED: USER    Estimated Inhibition Constant, Ki   =   10.65 nM (nanomolar)  [Temperature = 298.15 K]
DOCKED: USER    
DOCKED: USER    (1) Final Intermolecular Energy     =  -13.26 kcal/mol
DOCKED: USER        vdW + Hbond + desolv Energy     =  -13.26 kcal/mol
DOCKED: USER        Electrostatic Energy            =   +0.00 kcal/mol
DOCKED: USER    (2) Final Total Internal Energy     =   -1.50 kcal/mol
DOCKED: USER    (3) Torsional Free Energy           =   +2.39 kcal/mol
DOCKED: USER    (4) Unbound System's Energy  [=(2)] =   -1.50 kcal/mol
DOCKED: USER    
DOCKED: USER    
DOCKED: USER    NEWDPF move ligand.pdbqt
DOCKED: USER    NEWDPF about 0.698000 0.076000 -0.072000
DOCKED: USER    NEWDPF tran0 21.264774 -7.588572 -5.942147
DOCKED: USER    NEWDPF quaternion0 -0.336135 -0.838268 0.409389 -0.129306
DOCKED: USER    NEWDPF axisangle0 -0.338981 -0.845365 0.412855 -165.141062
DOCKED: USER    NEWDPF quat0 -0.338981 -0.845365 0.412855 -165.141062
DOCKED: USER    NEWDPF dihe0 18.71 54.14 -67.28 11.47 -15.42 -170.95 176.79 -112.90 
DOCKED: USER  keepresnum = 1 
DOCKED: USER  
DOCKED: REMARK  Name = 
DOCKED: REMARK  9 active torsions:
DOCKED: REMARK  status: ('A' for Active; 'I' for Inactive)
DOCKED: REMARK    1  A    between atoms: C_2  and  C_3
DOCKED: REMARK    2  A    between atoms: C_4  and  C_5
DOCKED: REMARK    3  A    between atoms: C_8  and  C_9
DOCKED: REMARK    4  A    between atoms: C_9  and  N_10
DOCKED: REMARK    5  A    between atoms: N_10  and  C_11
DOCKED: REMARK    6  A    between atoms: C_11  and  C_12
DOCKED: REMARK    7  A    between atoms: C_12  and  C_13
DOCKED: REMARK    8  A    between atoms: C_14  and  C_22
DOCKED: REMARK    9  A    between atoms: N_25  and  O_26
DOCKED: REMARK                            x       y       z     vdW  Elec       q    Type
DOCKED: REMARK                         _______ _______ _______ _____ _____    ______ ____
DOCKED: USER                              x       y       z     vdW  Elec       q    Type
DOCKED: USER                           _______ _______ _______ _____ _____    ______ ____
DOCKED: ROOT
DOCKED: ATOM      1  N   UNL     1      22.374  -7.861  -6.185 -0.19 -0.00    +0.000 N 
DOCKED: ATOM      2  H   UNL     1      22.712  -7.310  -5.396 -0.02 -0.00    +0.000 HD
DOCKED: ATOM      3  H   UNL     1      22.242  -7.281  -7.013 -0.00 -0.00    +0.000 HD
DOCKED: ENDROOT
DOCKED: BRANCH   1   4
DOCKED: ATOM      4  C   UNL     1      21.074  -8.446  -5.832 -0.21 -0.00    +0.000 C 
DOCKED: BRANCH   4   8
DOCKED: ATOM      5  C   UNL     1      21.153 -10.027  -1.806 -0.54 -0.00    +0.000 A 
DOCKED: ATOM      6  C   UNL     1      21.285 -10.885  -2.917 -0.34 -0.00    +0.000 A 
DOCKED: ATOM      7  C   UNL     1      21.265 -10.370  -4.216 -0.44 -0.00    +0.000 A 
DOCKED: ATOM      8  C   UNL     1      21.134  -8.990  -4.432 -0.31 -0.00    +0.000 A 
DOCKED: ATOM      9  C   UNL     1      21.006  -8.132  -3.330 -0.36 -0.00    +0.000 A 
DOCKED: ATOM     10  C   UNL     1      21.028  -8.646  -2.030 -0.46 -0.00    +0.000 A 
DOCKED: BRANCH   5  12
DOCKED: ATOM     11  C   UNL     1      20.087 -10.903   0.269 -0.65 -0.00    +0.000 C 
DOCKED: ATOM     12  C   UNL     1      21.181 -10.520  -0.406 -0.71 -0.00    +0.000 C 
DOCKED: BRANCH  11  14
DOCKED: ATOM     13  O   UNL     1      19.889 -12.609   1.878 -1.63 -0.00    +0.000 OA
DOCKED: ATOM     14  C   UNL     1      20.118 -11.390   1.664 -0.75 -0.00    +0.000 C 
DOCKED: ATOM     15  N   UNL     1      20.374 -10.521   2.776 -0.65 -0.00    +0.000 N 
DOCKED: ATOM     16  H   UNL     1      20.459  -9.551   2.631 -0.53 -0.00    +0.000 HD
DOCKED: BRANCH  15  17
DOCKED: ATOM     17  O   UNL     1      20.498 -11.032   4.025 -0.77 -0.00    +0.000 OA
DOCKED: ATOM     18  H   UNL     1      20.684 -11.982   3.969 -0.53 -0.00    +0.000 HD
DOCKED: ENDBRANCH  15  17
DOCKED: ENDBRANCH  11  14
DOCKED: ENDBRANCH   5  12
DOCKED: ENDBRANCH   4   8
DOCKED: ENDBRANCH   1   4
DOCKED: BRANCH   1  19
DOCKED: ATOM     19  C   UNL     1      23.376  -8.889  -6.509 -0.16 -0.00    +0.000 C 
DOCKED: BRANCH  19  20
DOCKED: ATOM     20  C   UNL     1      23.774  -8.873  -7.994 -0.19 -0.00    +0.000 C 
DOCKED: BRANCH  20  21
DOCKED: ATOM     21  C   UNL     1      24.984  -9.733  -8.219 -0.24 -0.00    +0.000 A 
DOCKED: ATOM     22  C   UNL     1      25.027 -11.014  -8.773 -0.32 -0.00    +0.000 A 
DOCKED: ATOM     23  N   UNL     1      26.288 -11.503  -8.753 -0.40 -0.00    +0.000 N 
DOCKED: ATOM     24  C   UNL     1      27.041 -10.553  -8.171 -0.37 -0.00    +0.000 A 
DOCKED: ATOM     25  C   UNL     1      26.282  -9.463  -7.826 -0.30 -0.00    +0.000 A 
DOCKED: ATOM     26  C   UNL     1      26.836  -8.356  -7.183 -0.29 -0.00    +0.000 A 
DOCKED: ATOM     27  C   UNL     1      28.214  -8.381  -6.901 -0.34 -0.00    +0.000 A 
DOCKED: ATOM     28  C   UNL     1      28.997  -9.501  -7.261 -0.43 -0.00    +0.000 A 
DOCKED: ATOM     29  C   UNL     1      28.408 -10.606  -7.904 -0.39 -0.00    +0.000 A 
DOCKED: ATOM     30  C   UNL     1      23.861 -11.757  -9.345 -0.33 -0.00    +0.000 C 
DOCKED: ATOM     31  H   UNL     1      26.593 -12.375  -9.095 -0.41 -0.00    +0.000 HD
DOCKED: ENDBRANCH  20  21
DOCKED: ENDBRANCH  19  20
DOCKED: ENDBRANCH   1  19
DOCKED: TORSDOF 8
DOCKED: TER
DOCKED: ENDMDL
________________________________________________________________________________


	BEGINNING GENETIC ALGORITHM DOCKING 52 of 100
Run: 52 Seed: 1111328683 2095802475 [ Run 52 of 100 GA/GALS ]
Beginning LAMARCKIAN GENETIC ALGORITHM (LGA), with a maximum of 2500000 energy evaluations.

Final-Value: -13.387


	FINAL GENETIC ALGORITHM DOCKED STATE
	_______________________________________________


Detailed state:  trans 21.490 -7.096 -5.290 quatxyzw -0.511166 0.502990 -0.542439 0.437573 center 0.698 0.076 -0.072 ntor 8 -154.5196 -157.2062 179.9820 177.3961 135.1722 179.4702 -145.5315 27.1139
State:	 21.490  -7.096  -5.290  -0.568  0.559 -0.603 128.102   -154.52 -157.21  179.98  177.40  135.17  179.47 -145.53   27.11

DOCKED: MODEL       52
DOCKED: USER    Run = 52
DOCKED: USER    DPF = ligand_dock.biased.dpf
DOCKED: USER  
DOCKED: USER    Estimated Free Energy of Binding    =   -8.44 kcal/mol  [=(1)+(2)+(3)-(4)]
DOCKED: USER    Estimated Inhibition Constant, Ki   =  655.23 nM (nanomolar)  [Temperature = 298.15 K]
DOCKED: USER    
DOCKED: USER    (1) Final Intermolecular Energy     =  -10.82 kcal/mol
DOCKED: USER        vdW + Hbond + desolv Energy     =  -10.82 kcal/mol
DOCKED: USER        Electrostatic Energy            =   +0.00 kcal/mol
DOCKED: USER    (2) Final Total Internal Energy     =   -2.56 kcal/mol
DOCKED: USER    (3) Torsional Free Energy           =   +2.39 kcal/mol
DOCKED: USER    (4) Unbound System's Energy  [=(2)] =   -2.56 kcal/mol
DOCKED: USER    
DOCKED: USER    
DOCKED: USER    NEWDPF move ligand.pdbqt
DOCKED: USER    NEWDPF about 0.698000 0.076000 -0.072000
DOCKED: USER    NEWDPF tran0 21.490289 -7.095543 -5.290076
DOCKED: USER    NEWDPF quaternion0 -0.511166 0.502990 -0.542439 0.437573
DOCKED: USER    NEWDPF axisangle0 -0.568479 0.559385 -0.603258 128.101685
DOCKED: USER    NEWDPF quat0 -0.568479 0.559385 -0.603258 128.101685
DOCKED: USER    NEWDPF dihe0 -154.52 -157.21 179.98 177.40 135.17 179.47 -145.53 27.11 
DOCKED: USER  keepresnum = 1 
DOCKED: USER  
DOCKED: REMARK  Name = 
DOCKED: REMARK  9 active torsions:
DOCKED: REMARK  status: ('A' for Active; 'I' for Inactive)
DOCKED: REMARK    1  A    between atoms: C_2  and  C_3
DOCKED: REMARK    2  A    between atoms: C_4  and  C_5
DOCKED: REMARK    3  A    between atoms: C_8  and  C_9
DOCKED: REMARK    4  A    between atoms: C_9  and  N_10
DOCKED: REMARK    5  A    between atoms: N_10  and  C_11
DOCKED: REMARK    6  A    between atoms: C_11  and  C_12
DOCKED: REMARK    7  A    between atoms: C_12  and  C_13
DOCKED: REMARK    8  A    between atoms: C_14  and  C_22
DOCKED: REMARK    9  A    between atoms: N_25  and  O_26
DOCKED: REMARK                            x       y       z     vdW  Elec       q    Type
DOCKED: REMARK                         _______ _______ _______ _____ _____    ______ ____
DOCKED: USER                              x       y       z     vdW  Elec       q    Type
DOCKED: USER                           _______ _______ _______ _____ _____    ______ ____
DOCKED: ROOT
DOCKED: ATOM      1  N   UNL     1      20.988  -6.893  -6.325 -0.08 -0.00    +0.000 N 
DOCKED: ATOM      2  H   UNL     1      21.079  -5.884  -6.203 +0.00 -0.00    +0.000 HD
DOCKED: ATOM      3  H   UNL     1      20.140  -7.245  -5.882 +0.00 -0.00    +0.000 HD
DOCKED: ENDROOT
DOCKED: BRANCH   1   4
DOCKED: ATOM      4  C   UNL     1      22.136  -7.551  -5.688 -0.20 -0.00    +0.000 C 
DOCKED: BRANCH   4   8
DOCKED: ATOM      5  C   UNL     1      21.126  -8.819  -1.678 -0.49 -0.00    +0.000 A 
DOCKED: ATOM      6  C   UNL     1      21.114  -7.453  -2.023 -0.40 -0.00    +0.000 A 
DOCKED: ATOM      7  C   UNL     1      21.435  -7.047  -3.321 -0.33 -0.00    +0.000 A 
DOCKED: ATOM      8  C   UNL     1      21.754  -7.996  -4.304 -0.24 -0.00    +0.000 A 
DOCKED: ATOM      9  C   UNL     1      21.765  -9.357  -3.966 -0.29 -0.00    +0.000 A 
DOCKED: ATOM     10  C   UNL     1      21.442  -9.764  -2.668 -0.44 -0.00    +0.000 A 
DOCKED: BRANCH   5  12
DOCKED: ATOM     11  C   UNL     1      20.359 -10.552  -0.059 -0.65 -0.00    +0.000 C 
DOCKED: ATOM     12  C   UNL     1      20.782  -9.305  -0.318 -0.53 -0.00    +0.000 C 
DOCKED: BRANCH  11  14
DOCKED: ATOM     13  O   UNL     1      19.409 -10.246   2.073 -0.69 -0.00    +0.000 OA
DOCKED: ATOM     14  C   UNL     1      20.014 -11.031   1.296 -0.70 -0.00    +0.000 C 
DOCKED: ATOM     15  N   UNL     1      20.367 -12.341   1.761 -0.70 -0.00    +0.000 N 
DOCKED: ATOM     16  H   UNL     1      20.924 -12.928   1.199 -0.49 -0.00    +0.000 HD
DOCKED: BRANCH  15  17
DOCKED: ATOM     17  O   UNL     1      19.938 -12.773   2.971 -1.06 -0.00    +0.000 OA
DOCKED: ATOM     18  H   UNL     1      20.546 -13.448   3.309 -0.59 -0.00    +0.000 HD
DOCKED: ENDBRANCH  15  17
DOCKED: ENDBRANCH  11  14
DOCKED: ENDBRANCH   5  12
DOCKED: ENDBRANCH   4   8
DOCKED: ENDBRANCH   1   4
DOCKED: BRANCH   1  19
DOCKED: ATOM     19  C   UNL     1      20.904  -7.191  -7.763 -0.05 -0.00    +0.000 C 
DOCKED: BRANCH  19  20
DOCKED: ATOM     20  C   UNL     1      19.829  -8.244  -8.082 -0.07 -0.00    +0.000 C 
DOCKED: BRANCH  20  21
DOCKED: ATOM     21  C   UNL     1      19.851  -9.338  -7.054 -0.15 -0.00    +0.000 A 
DOCKED: ATOM     22  C   UNL     1      20.582 -10.527  -7.092 -0.26 -0.00    +0.000 A 
DOCKED: ATOM     23  N   UNL     1      20.294 -11.301  -6.020 -0.36 -0.00    +0.000 N 
DOCKED: ATOM     24  C   UNL     1      19.370 -10.623  -5.316 -0.33 -0.00    +0.000 A 
DOCKED: ATOM     25  C   UNL     1      19.069  -9.427  -5.917 -0.17 -0.00    +0.000 A 
DOCKED: ATOM     26  C   UNL     1      18.116  -8.557  -5.386 -0.14 -0.00    +0.000 A 
DOCKED: ATOM     27  C   UNL     1      17.469  -8.939  -4.197 -0.17 -0.00    +0.000 A 
DOCKED: ATOM     28  C   UNL     1      17.782 -10.168  -3.575 -0.24 -0.00    +0.000 A 
DOCKED: ATOM     29  C   UNL     1      18.744 -11.027  -4.137 -0.20 -0.00    +0.000 A 
DOCKED: ATOM     30  C   UNL     1      21.577 -10.907  -8.142 -0.27 -0.00    +0.000 C 
DOCKED: ATOM     31  H   UNL     1      20.681 -12.179  -5.800 -0.51 -0.00    +0.000 HD
DOCKED: ENDBRANCH  20  21
DOCKED: ENDBRANCH  19  20
DOCKED: ENDBRANCH   1  19
DOCKED: TORSDOF 8
DOCKED: TER
DOCKED: ENDMDL
________________________________________________________________________________


	BEGINNING GENETIC ALGORITHM DOCKING 53 of 100
Run: 53 Seed: 1106577564 495498290 [ Run 53 of 100 GA/GALS ]
Beginning LAMARCKIAN GENETIC ALGORITHM (LGA), with a maximum of 2500000 energy evaluations.

Final-Value: -14.113


	FINAL GENETIC ALGORITHM DOCKED STATE
	_______________________________________________


Detailed state:  trans 21.480 -8.518 -6.383 quatxyzw -0.444801 0.166572 0.360363 -0.802835 center 0.698 0.076 -0.072 ntor 8 18.5941 -9.9753 168.4657 29.1644 4.1293 -67.5607 166.7372 -168.9748
State:	 21.480  -8.518  -6.383  -0.746  0.279  0.604 -73.197     18.59   -9.98  168.47   29.16    4.13  -67.56  166.74 -168.97

DOCKED: MODEL       53
DOCKED: USER    Run = 53
DOCKED: USER    DPF = ligand_dock.biased.dpf
DOCKED: USER  
DOCKED: USER    Estimated Free Energy of Binding    =   -9.36 kcal/mol  [=(1)+(2)+(3)-(4)]
DOCKED: USER    Estimated Inhibition Constant, Ki   =  137.37 nM (nanomolar)  [Temperature = 298.15 K]
DOCKED: USER    
DOCKED: USER    (1) Final Intermolecular Energy     =  -11.75 kcal/mol
DOCKED: USER        vdW + Hbond + desolv Energy     =  -11.75 kcal/mol
DOCKED: USER        Electrostatic Energy            =   +0.00 kcal/mol
DOCKED: USER    (2) Final Total Internal Energy     =   -2.36 kcal/mol
DOCKED: USER    (3) Torsional Free Energy           =   +2.39 kcal/mol
DOCKED: USER    (4) Unbound System's Energy  [=(2)] =   -2.36 kcal/mol
DOCKED: USER    
DOCKED: USER    
DOCKED: USER    NEWDPF move ligand.pdbqt
DOCKED: USER    NEWDPF about 0.698000 0.076000 -0.072000
DOCKED: USER    NEWDPF tran0 21.480267 -8.517862 -6.383011
DOCKED: USER    NEWDPF quaternion0 -0.444801 0.166572 0.360363 -0.802835
DOCKED: USER    NEWDPF axisangle0 -0.746059 0.279389 0.604432 -73.196566
DOCKED: USER    NEWDPF quat0 -0.746059 0.279389 0.604432 -73.196566
DOCKED: USER    NEWDPF dihe0 18.59 -9.98 168.47 29.16 4.13 -67.56 166.74 -168.97 
DOCKED: USER  keepresnum = 1 
DOCKED: USER  
DOCKED: REMARK  Name = 
DOCKED: REMARK  9 active torsions:
DOCKED: REMARK  status: ('A' for Active; 'I' for Inactive)
DOCKED: REMARK    1  A    between atoms: C_2  and  C_3
DOCKED: REMARK    2  A    between atoms: C_4  and  C_5
DOCKED: REMARK    3  A    between atoms: C_8  and  C_9
DOCKED: REMARK    4  A    between atoms: C_9  and  N_10
DOCKED: REMARK    5  A    between atoms: N_10  and  C_11
DOCKED: REMARK    6  A    between atoms: C_11  and  C_12
DOCKED: REMARK    7  A    between atoms: C_12  and  C_13
DOCKED: REMARK    8  A    between atoms: C_14  and  C_22
DOCKED: REMARK    9  A    between atoms: N_25  and  O_26
DOCKED: REMARK                            x       y       z     vdW  Elec       q    Type
DOCKED: REMARK                         _______ _______ _______ _____ _____    ______ ____
DOCKED: USER                              x       y       z     vdW  Elec       q    Type
DOCKED: USER                           _______ _______ _______ _____ _____    ______ ____
DOCKED: ROOT
DOCKED: ATOM      1  N   UNL     1      20.396  -8.937  -6.269 -0.14 -0.00    +0.000 N 
DOCKED: ATOM      2  H   UNL     1      20.654  -9.809  -6.731 +0.00 -0.00    +0.000 HD
DOCKED: ATOM      3  H   UNL     1      20.143  -8.219  -6.947 +0.00 -0.00    +0.000 HD
DOCKED: ENDROOT
DOCKED: BRANCH   1   4
DOCKED: ATOM      4  C   UNL     1      21.550  -8.447  -5.503 -0.25 -0.00    +0.000 C 
DOCKED: BRANCH   4   8
DOCKED: ATOM      5  C   UNL     1      21.152  -9.475  -1.320 -0.56 -0.00    +0.000 A 
DOCKED: ATOM      6  C   UNL     1      21.055  -8.134  -1.742 -0.41 -0.00    +0.000 A 
DOCKED: ATOM      7  C   UNL     1      21.179  -7.806  -3.096 -0.37 -0.00    +0.000 A 
DOCKED: ATOM      8  C   UNL     1      21.379  -8.809  -4.055 -0.34 -0.00    +0.000 A 
DOCKED: ATOM      9  C   UNL     1      21.473 -10.146  -3.640 -0.43 -0.00    +0.000 A 
DOCKED: ATOM     10  C   UNL     1      21.348 -10.475  -2.287 -0.50 -0.00    +0.000 A 
DOCKED: BRANCH   5  12
DOCKED: ATOM     11  C   UNL     1      20.458 -11.033   0.496 -0.69 -0.00    +0.000 C 
DOCKED: ATOM     12  C   UNL     1      21.016  -9.879   0.101 -0.68 -0.00    +0.000 C 
DOCKED: BRANCH  11  14
DOCKED: ATOM     13  O   UNL     1      19.891 -12.585   2.173 -1.58 -0.00    +0.000 OA
DOCKED: ATOM     14  C   UNL     1      20.323 -11.431   1.913 -0.77 -0.00    +0.000 C 
DOCKED: ATOM     15  N   UNL     1      20.640 -10.543   2.994 -0.63 -0.00    +0.000 N 
DOCKED: ATOM     16  H   UNL     1      20.885  -9.608   2.806 -0.58 -0.00    +0.000 HD
DOCKED: BRANCH  15  17
DOCKED: ATOM     17  O   UNL     1      20.601 -10.987   4.273 -0.72 -0.00    +0.000 OA
DOCKED: ATOM     18  H   UNL     1      20.637 -11.956   4.281 -0.48 -0.00    +0.000 HD
DOCKED: ENDBRANCH  15  17
DOCKED: ENDBRANCH  11  14
DOCKED: ENDBRANCH   5  12
DOCKED: ENDBRANCH   4   8
DOCKED: ENDBRANCH   1   4
DOCKED: BRANCH   1  19
DOCKED: ATOM     19  C   UNL     1      19.225  -9.182  -5.413 -0.20 -0.00    +0.000 C 
DOCKED: BRANCH  19  20
DOCKED: ATOM     20  C   UNL     1      18.401 -10.395  -5.879 -0.30 -0.00    +0.000 C 
DOCKED: BRANCH  20  21
DOCKED: ATOM     21  C   UNL     1      17.121 -10.486  -5.100 -0.23 -0.00    +0.000 A 
DOCKED: ATOM     22  C   UNL     1      15.817 -10.460  -5.599 -0.20 -0.00    +0.000 A 
DOCKED: ATOM     23  N   UNL     1      14.917 -10.497  -4.589 -0.22 -0.00    +0.000 N 
DOCKED: ATOM     24  C   UNL     1      15.639 -10.524  -3.456 -0.22 -0.00    +0.000 A 
DOCKED: ATOM     25  C   UNL     1      16.984 -10.511  -3.725 -0.10 -0.00    +0.000 A 
DOCKED: ATOM     26  C   UNL     1      17.937 -10.508  -2.706 -0.22 -0.00    +0.000 A 
DOCKED: ATOM     27  C   UNL     1      17.477 -10.527  -1.376 -0.22 -0.00    +0.000 A 
DOCKED: ATOM     28  C   UNL     1      16.092 -10.545  -1.099 -0.27 -0.00    +0.000 A 
DOCKED: ATOM     29  C   UNL     1      15.155 -10.542  -2.148 -0.26 -0.00    +0.000 A 
DOCKED: ATOM     30  C   UNL     1      15.436 -10.426  -7.045 -0.18 -0.00    +0.000 C 
DOCKED: ATOM     31  H   UNL     1      13.936 -10.504  -4.669 -0.01 -0.00    +0.000 HD
DOCKED: ENDBRANCH  20  21
DOCKED: ENDBRANCH  19  20
DOCKED: ENDBRANCH   1  19
DOCKED: TORSDOF 8
DOCKED: TER
DOCKED: ENDMDL
________________________________________________________________________________


	BEGINNING GENETIC ALGORITHM DOCKING 54 of 100
Run: 54 Seed: 572677102 1917377342 [ Run 54 of 100 GA/GALS ]
Beginning LAMARCKIAN GENETIC ALGORITHM (LGA), with a maximum of 2500000 energy evaluations.

Final-Value: -14.268


	FINAL GENETIC ALGORITHM DOCKED STATE
	_______________________________________________


Detailed state:  trans 21.284 -9.661 -5.823 quatxyzw -0.588826 -0.534203 -0.336345 -0.504760 center 0.698 0.076 -0.072 ntor 8 27.4953 -136.0330 179.3469 147.8093 -95.5038 -151.0594 171.5113 -35.3830
State:	 21.284  -9.661  -5.823  -0.682 -0.619 -0.390 -119.369     27.50 -136.03  179.35  147.81  -95.50 -151.06  171.51  -35.38

DOCKED: MODEL       54
DOCKED: USER    Run = 54
DOCKED: USER    DPF = ligand_dock.biased.dpf
DOCKED: USER  
DOCKED: USER    Estimated Free Energy of Binding    =  -10.46 kcal/mol  [=(1)+(2)+(3)-(4)]
DOCKED: USER    Estimated Inhibition Constant, Ki   =   21.55 nM (nanomolar)  [Temperature = 298.15 K]
DOCKED: USER    
DOCKED: USER    (1) Final Intermolecular Energy     =  -12.85 kcal/mol
DOCKED: USER        vdW + Hbond + desolv Energy     =  -12.85 kcal/mol
DOCKED: USER        Electrostatic Energy            =   +0.00 kcal/mol
DOCKED: USER    (2) Final Total Internal Energy     =   -1.42 kcal/mol
DOCKED: USER    (3) Torsional Free Energy           =   +2.39 kcal/mol
DOCKED: USER    (4) Unbound System's Energy  [=(2)] =   -1.42 kcal/mol
DOCKED: USER    
DOCKED: USER    
DOCKED: USER    NEWDPF move ligand.pdbqt
DOCKED: USER    NEWDPF about 0.698000 0.076000 -0.072000
DOCKED: USER    NEWDPF tran0 21.283747 -9.661168 -5.823274
DOCKED: USER    NEWDPF quaternion0 -0.588826 -0.534203 -0.336345 -0.504760
DOCKED: USER    NEWDPF axisangle0 -0.682096 -0.618821 -0.389622 -119.369151
DOCKED: USER    NEWDPF quat0 -0.682096 -0.618821 -0.389622 -119.369151
DOCKED: USER    NEWDPF dihe0 27.50 -136.03 179.35 147.81 -95.50 -151.06 171.51 -35.38 
DOCKED: USER  keepresnum = 1 
DOCKED: USER  
DOCKED: REMARK  Name = 
DOCKED: REMARK  9 active torsions:
DOCKED: REMARK  status: ('A' for Active; 'I' for Inactive)
DOCKED: REMARK    1  A    between atoms: C_2  and  C_3
DOCKED: REMARK    2  A    between atoms: C_4  and  C_5
DOCKED: REMARK    3  A    between atoms: C_8  and  C_9
DOCKED: REMARK    4  A    between atoms: C_9  and  N_10
DOCKED: REMARK    5  A    between atoms: N_10  and  C_11
DOCKED: REMARK    6  A    between atoms: C_11  and  C_12
DOCKED: REMARK    7  A    between atoms: C_12  and  C_13
DOCKED: REMARK    8  A    between atoms: C_14  and  C_22
DOCKED: REMARK    9  A    between atoms: N_25  and  O_26
DOCKED: REMARK                            x       y       z     vdW  Elec       q    Type
DOCKED: REMARK                         _______ _______ _______ _____ _____    ______ ____
DOCKED: USER                              x       y       z     vdW  Elec       q    Type
DOCKED: USER                           _______ _______ _______ _____ _____    ______ ____
DOCKED: ROOT
DOCKED: ATOM      1  N   UNL     1      21.674 -10.120  -6.824 -0.27 -0.00    +0.000 N 
DOCKED: ATOM      2  H   UNL     1      21.624 -11.065  -6.443 -0.07 -0.00    +0.000 HD
DOCKED: ATOM      3  H   UNL     1      22.556  -9.669  -6.583 -0.01 -0.00    +0.000 HD
DOCKED: ENDROOT
DOCKED: BRANCH   1   4
DOCKED: ATOM      4  C   UNL     1      20.586  -9.319  -6.247 -0.21 -0.00    +0.000 C 
DOCKED: BRANCH   4   8
DOCKED: ATOM      5  C   UNL     1      19.799 -10.528  -2.169 -0.42 -0.00    +0.000 A 
DOCKED: ATOM      6  C   UNL     1      18.910 -10.877  -3.205 -0.29 -0.00    +0.000 A 
DOCKED: ATOM      7  C   UNL     1      19.171 -10.490  -4.523 -0.33 -0.00    +0.000 A 
DOCKED: ATOM      8  C   UNL     1      20.331  -9.766  -4.835 -0.29 -0.00    +0.000 A 
DOCKED: ATOM      9  C   UNL     1      21.220  -9.418  -3.807 -0.39 -0.00    +0.000 A 
DOCKED: ATOM     10  C   UNL     1      20.961  -9.807  -2.490 -0.50 -0.00    +0.000 A 
DOCKED: BRANCH   5  12
DOCKED: ATOM     11  C   UNL     1      20.560 -11.018   0.154 -0.65 -0.00    +0.000 C 
DOCKED: ATOM     12  C   UNL     1      19.578 -10.923  -0.756 -0.53 -0.00    +0.000 C 
DOCKED: BRANCH  11  14
DOCKED: ATOM     13  O   UNL     1      19.835 -12.547   1.790 -1.66 -0.00    +0.000 OA
DOCKED: ATOM     14  C   UNL     1      20.335 -11.415   1.559 -0.76 -0.00    +0.000 C 
DOCKED: ATOM     15  N   UNL     1      20.641 -10.548   2.661 -0.61 -0.00    +0.000 N 
DOCKED: ATOM     16  H   UNL     1      20.940  -9.626   2.491 -0.55 -0.00    +0.000 HD
DOCKED: BRANCH  15  17
DOCKED: ATOM     17  O   UNL     1      20.517 -10.995   3.933 -0.79 -0.00    +0.000 OA
DOCKED: ATOM     18  H   UNL     1      20.646 -11.956   3.953 -0.52 -0.00    +0.000 HD
DOCKED: ENDBRANCH  15  17
DOCKED: ENDBRANCH  11  14
DOCKED: ENDBRANCH   5  12
DOCKED: ENDBRANCH   4   8
DOCKED: ENDBRANCH   1   4
DOCKED: BRANCH   1  19
DOCKED: ATOM     19  C   UNL     1      21.590 -10.196  -8.291 -0.24 -0.00    +0.000 C 
DOCKED: BRANCH  19  20
DOCKED: ATOM     20  C   UNL     1      22.937  -9.897  -8.971 -0.16 -0.00    +0.000 C 
DOCKED: BRANCH  20  21
DOCKED: ATOM     21  C   UNL     1      23.740 -11.158  -9.115 -0.24 -0.00    +0.000 A 
DOCKED: ATOM     22  C   UNL     1      25.005 -11.426  -8.587 -0.37 -0.00    +0.000 A 
DOCKED: ATOM     23  N   UNL     1      25.440 -12.644  -8.983 -0.40 -0.00    +0.000 N 
DOCKED: ATOM     24  C   UNL     1      24.473 -13.140  -9.775 -0.35 -0.00    +0.000 A 
DOCKED: ATOM     25  C   UNL     1      23.425 -12.261  -9.885 -0.28 -0.00    +0.000 A 
DOCKED: ATOM     26  C   UNL     1      22.311 -12.542 -10.677 -0.16 -0.00    +0.000 A 
DOCKED: ATOM     27  C   UNL     1      22.286 -13.771 -11.363 -0.23 +0.00    +0.000 A 
DOCKED: ATOM     28  C   UNL     1      23.362 -14.678 -11.245 -0.37 +0.00    +0.000 A 
DOCKED: ATOM     29  C   UNL     1      24.475 -14.364 -10.443 -0.35 -0.00    +0.000 A 
DOCKED: ATOM     30  C   UNL     1      25.781 -10.524  -7.681 -0.34 -0.00    +0.000 C 
DOCKED: ATOM     31  H   UNL     1      26.290 -13.078  -8.741 -0.51 -0.00    +0.000 HD
DOCKED: ENDBRANCH  20  21
DOCKED: ENDBRANCH  19  20
DOCKED: ENDBRANCH   1  19
DOCKED: TORSDOF 8
DOCKED: TER
DOCKED: ENDMDL
________________________________________________________________________________


	BEGINNING GENETIC ALGORITHM DOCKING 55 of 100
Run: 55 Seed: 1444799420 727508678 [ Run 55 of 100 GA/GALS ]
Beginning LAMARCKIAN GENETIC ALGORITHM (LGA), with a maximum of 2500000 energy evaluations.

Final-Value: -14.554


	FINAL GENETIC ALGORITHM DOCKED STATE
	_______________________________________________


Detailed state:  trans 21.795 -9.371 -5.585 quatxyzw -0.657769 -0.580677 -0.062546 -0.475649 center 0.698 0.076 -0.072 ntor 8 13.7621 -153.4078 -149.2070 173.8232 -82.6765 -161.7977 157.8337 -70.4778
State:	 21.795  -9.371  -5.585  -0.748 -0.660 -0.071 -123.197     13.76 -153.41 -149.21  173.82  -82.68 -161.80  157.83  -70.48

DOCKED: MODEL       55
DOCKED: USER    Run = 55
DOCKED: USER    DPF = ligand_dock.biased.dpf
DOCKED: USER  
DOCKED: USER    Estimated Free Energy of Binding    =  -10.67 kcal/mol  [=(1)+(2)+(3)-(4)]
DOCKED: USER    Estimated Inhibition Constant, Ki   =   14.98 nM (nanomolar)  [Temperature = 298.15 K]
DOCKED: USER    
DOCKED: USER    (1) Final Intermolecular Energy     =  -13.06 kcal/mol
DOCKED: USER        vdW + Hbond + desolv Energy     =  -13.06 kcal/mol
DOCKED: USER        Electrostatic Energy            =   +0.00 kcal/mol
DOCKED: USER    (2) Final Total Internal Energy     =   -1.49 kcal/mol
DOCKED: USER    (3) Torsional Free Energy           =   +2.39 kcal/mol
DOCKED: USER    (4) Unbound System's Energy  [=(2)] =   -1.49 kcal/mol
DOCKED: USER    
DOCKED: USER    
DOCKED: USER    NEWDPF move ligand.pdbqt
DOCKED: USER    NEWDPF about 0.698000 0.076000 -0.072000
DOCKED: USER    NEWDPF tran0 21.795365 -9.371248 -5.585243
DOCKED: USER    NEWDPF quaternion0 -0.657769 -0.580677 -0.062546 -0.475649
DOCKED: USER    NEWDPF axisangle0 -0.747774 -0.660134 -0.071105 -123.196758
DOCKED: USER    NEWDPF quat0 -0.747774 -0.660134 -0.071105 -123.196758
DOCKED: USER    NEWDPF dihe0 13.76 -153.41 -149.21 173.82 -82.68 -161.80 157.83 -70.48 
DOCKED: USER  keepresnum = 1 
DOCKED: USER  
DOCKED: REMARK  Name = 
DOCKED: REMARK  9 active torsions:
DOCKED: REMARK  status: ('A' for Active; 'I' for Inactive)
DOCKED: REMARK    1  A    between atoms: C_2  and  C_3
DOCKED: REMARK    2  A    between atoms: C_4  and  C_5
DOCKED: REMARK    3  A    between atoms: C_8  and  C_9
DOCKED: REMARK    4  A    between atoms: C_9  and  N_10
DOCKED: REMARK    5  A    between atoms: N_10  and  C_11
DOCKED: REMARK    6  A    between atoms: C_11  and  C_12
DOCKED: REMARK    7  A    between atoms: C_12  and  C_13
DOCKED: REMARK    8  A    between atoms: C_14  and  C_22
DOCKED: REMARK    9  A    between atoms: N_25  and  O_26
DOCKED: REMARK                            x       y       z     vdW  Elec       q    Type
DOCKED: REMARK                         _______ _______ _______ _____ _____    ______ ____
DOCKED: USER                              x       y       z     vdW  Elec       q    Type
DOCKED: USER                           _______ _______ _______ _____ _____    ______ ____
DOCKED: ROOT
DOCKED: ATOM      1  N   UNL     1      22.063 -10.155  -6.409 -0.31 -0.00    +0.000 N 
DOCKED: ATOM      2  H   UNL     1      22.377 -10.826  -5.707 -0.02 -0.00    +0.000 HD
DOCKED: ATOM      3  H   UNL     1      22.807  -9.505  -6.660 -0.01 -0.00    +0.000 HD
DOCKED: ENDROOT
DOCKED: BRANCH   1   4
DOCKED: ATOM      4  C   UNL     1      20.951  -9.374  -5.851 -0.26 -0.00    +0.000 C 
DOCKED: BRANCH   4   8
DOCKED: ATOM      5  C   UNL     1      20.047 -10.679  -1.827 -0.42 -0.00    +0.000 A 
DOCKED: ATOM      6  C   UNL     1      19.072 -10.754  -2.841 -0.35 -0.00    +0.000 A 
DOCKED: ATOM      7  C   UNL     1      19.369 -10.337  -4.142 -0.33 -0.00    +0.000 A 
DOCKED: ATOM      8  C   UNL     1      20.648  -9.858  -4.460 -0.35 -0.00    +0.000 A 
DOCKED: ATOM      9  C   UNL     1      21.624  -9.784  -3.454 -0.35 -0.00    +0.000 A 
DOCKED: ATOM     10  C   UNL     1      21.327 -10.203  -2.154 -0.51 -0.00    +0.000 A 
DOCKED: BRANCH   5  12
DOCKED: ATOM     11  C   UNL     1      20.641 -10.916   0.582 -0.71 -0.00    +0.000 C 
DOCKED: ATOM     12  C   UNL     1      19.788 -11.120  -0.433 -0.54 -0.00    +0.000 C 
DOCKED: BRANCH  11  14
DOCKED: ATOM     13  O   UNL     1      19.892 -12.505   2.149 -1.63 -0.00    +0.000 OA
DOCKED: ATOM     14  C   UNL     1      20.381 -11.359   1.968 -0.76 -0.00    +0.000 C 
DOCKED: ATOM     15  N   UNL     1      20.641 -10.522   3.103 -0.64 -0.00    +0.000 N 
DOCKED: ATOM     16  H   UNL     1      20.931  -9.591   2.971 -0.59 -0.00    +0.000 HD
DOCKED: BRANCH  15  17
DOCKED: ATOM     17  O   UNL     1      20.486 -11.010   4.358 -0.70 -0.00    +0.000 OA
DOCKED: ATOM     18  H   UNL     1      20.412 -11.976   4.322 -0.33 -0.00    +0.000 HD
DOCKED: ENDBRANCH  15  17
DOCKED: ENDBRANCH  11  14
DOCKED: ENDBRANCH   5  12
DOCKED: ENDBRANCH   4   8
DOCKED: ENDBRANCH   1   4
DOCKED: BRANCH   1  19
DOCKED: ATOM     19  C   UNL     1      21.673 -10.888  -7.623 -0.30 -0.00    +0.000 C 
DOCKED: BRANCH  19  20
DOCKED: ATOM     20  C   UNL     1      22.528 -10.501  -8.842 -0.23 -0.00    +0.000 C 
DOCKED: BRANCH  20  21
DOCKED: ATOM     21  C   UNL     1      23.576 -11.545  -9.096 -0.28 -0.00    +0.000 A 
DOCKED: ATOM     22  C   UNL     1      24.898 -11.551  -8.646 -0.38 -0.00    +0.000 A 
DOCKED: ATOM     23  N   UNL     1      25.565 -12.623  -9.133 -0.37 -0.00    +0.000 N 
DOCKED: ATOM     24  C   UNL     1      24.685 -13.283  -9.905 -0.34 -0.00    +0.000 A 
DOCKED: ATOM     25  C   UNL     1      23.465 -12.654  -9.914 -0.31 -0.00    +0.000 A 
DOCKED: ATOM     26  C   UNL     1      22.394 -13.137 -10.667 -0.14 -0.00    +0.000 A 
DOCKED: ATOM     27  C   UNL     1      22.597 -14.307 -11.421 -0.34 +0.00    +0.000 A 
DOCKED: ATOM     28  C   UNL     1      23.851 -14.958 -11.408 -0.34 +0.00    +0.000 A 
DOCKED: ATOM     29  C   UNL     1      24.914 -14.444 -10.643 -0.34 -0.00    +0.000 A 
DOCKED: ATOM     30  C   UNL     1      25.512 -10.543  -7.727 -0.35 -0.00    +0.000 C 
DOCKED: ATOM     31  H   UNL     1      26.502 -12.869  -8.956 -0.49 -0.00    +0.000 HD
DOCKED: ENDBRANCH  20  21
DOCKED: ENDBRANCH  19  20
DOCKED: ENDBRANCH   1  19
DOCKED: TORSDOF 8
DOCKED: TER
DOCKED: ENDMDL
________________________________________________________________________________


	BEGINNING GENETIC ALGORITHM DOCKING 56 of 100
Run: 56 Seed: 627156705 1480601097 [ Run 56 of 100 GA/GALS ]
Beginning LAMARCKIAN GENETIC ALGORITHM (LGA), with a maximum of 2500000 energy evaluations.

Final-Value: -14.287


	FINAL GENETIC ALGORITHM DOCKED STATE
	_______________________________________________


Detailed state:  trans 12.794 -8.799 5.734 quatxyzw 0.434796 -0.682268 -0.094972 -0.580037 center 0.698 0.076 -0.072 ntor 8 -27.3678 29.7431 98.9700 -13.3590 -116.4955 142.2404 -71.8587 -98.6325
State:	 12.794  -8.799   5.734   0.534 -0.838 -0.117 -109.094    -27.37   29.74   98.97  -13.36 -116.50  142.24  -71.86  -98.63

DOCKED: MODEL       56
DOCKED: USER    Run = 56
DOCKED: USER    DPF = ligand_dock.biased.dpf
DOCKED: USER  
DOCKED: USER    Estimated Free Energy of Binding    =  -10.21 kcal/mol  [=(1)+(2)+(3)-(4)]
DOCKED: USER    Estimated Inhibition Constant, Ki   =   32.75 nM (nanomolar)  [Temperature = 298.15 K]
DOCKED: USER    
DOCKED: USER    (1) Final Intermolecular Energy     =  -12.60 kcal/mol
DOCKED: USER        vdW + Hbond + desolv Energy     =  -12.60 kcal/mol
DOCKED: USER        Electrostatic Energy            =   +0.00 kcal/mol
DOCKED: USER    (2) Final Total Internal Energy     =   -1.69 kcal/mol
DOCKED: USER    (3) Torsional Free Energy           =   +2.39 kcal/mol
DOCKED: USER    (4) Unbound System's Energy  [=(2)] =   -1.69 kcal/mol
DOCKED: USER    
DOCKED: USER    
DOCKED: USER    NEWDPF move ligand.pdbqt
DOCKED: USER    NEWDPF about 0.698000 0.076000 -0.072000
DOCKED: USER    NEWDPF tran0 12.793553 -8.799493 5.733977
DOCKED: USER    NEWDPF quaternion0 0.434796 -0.682268 -0.094972 -0.580037
DOCKED: USER    NEWDPF axisangle0 0.533760 -0.837560 -0.116589 -109.093642
DOCKED: USER    NEWDPF quat0 0.533760 -0.837560 -0.116589 -109.093642
DOCKED: USER    NEWDPF dihe0 -27.37 29.74 98.97 -13.36 -116.50 142.24 -71.86 -98.63 
DOCKED: USER  keepresnum = 1 
DOCKED: USER  
DOCKED: REMARK  Name = 
DOCKED: REMARK  9 active torsions:
DOCKED: REMARK  status: ('A' for Active; 'I' for Inactive)
DOCKED: REMARK    1  A    between atoms: C_2  and  C_3
DOCKED: REMARK    2  A    between atoms: C_4  and  C_5
DOCKED: REMARK    3  A    between atoms: C_8  and  C_9
DOCKED: REMARK    4  A    between atoms: C_9  and  N_10
DOCKED: REMARK    5  A    between atoms: N_10  and  C_11
DOCKED: REMARK    6  A    between atoms: C_11  and  C_12
DOCKED: REMARK    7  A    between atoms: C_12  and  C_13
DOCKED: REMARK    8  A    between atoms: C_14  and  C_22
DOCKED: REMARK    9  A    between atoms: N_25  and  O_26
DOCKED: REMARK                            x       y       z     vdW  Elec       q    Type
DOCKED: REMARK                         _______ _______ _______ _____ _____    ______ ____
DOCKED: USER                              x       y       z     vdW  Elec       q    Type
DOCKED: USER                           _______ _______ _______ _____ _____    ______ ____
DOCKED: ROOT
DOCKED: ATOM      1  N   UNL     1      12.665  -7.669   5.468 -0.33 +0.00    +0.000 N 
DOCKED: ATOM      2  H   UNL     1      13.642  -7.477   5.692 -0.02 +0.00    +0.000 HD
DOCKED: ATOM      3  H   UNL     1      12.080  -7.632   6.302 +0.00 +0.00    +0.000 HD
DOCKED: ENDROOT
DOCKED: BRANCH   1   4
DOCKED: ATOM      4  C   UNL     1      12.566  -9.024   4.908 -0.32 +0.00    +0.000 C 
DOCKED: BRANCH   4   8
DOCKED: ATOM      5  C   UNL     1      16.228  -9.961   2.805 -0.39 +0.00    +0.000 A 
DOCKED: ATOM      6  C   UNL     1      16.146  -8.821   3.629 -0.27 +0.00    +0.000 A 
DOCKED: ATOM      7  C   UNL     1      14.963  -8.525   4.313 -0.33 +0.00    +0.000 A 
DOCKED: ATOM      8  C   UNL     1      13.848  -9.368   4.203 -0.33 +0.00    +0.000 A 
DOCKED: ATOM      9  C   UNL     1      13.925 -10.506   3.385 -0.30 +0.00    +0.000 A 
DOCKED: ATOM     10  C   UNL     1      15.109 -10.804   2.703 -0.41 +0.00    +0.000 A 
DOCKED: BRANCH   5  12
DOCKED: ATOM     11  C   UNL     1      18.535 -10.891   2.646 -0.60 -0.00    +0.000 C 
DOCKED: ATOM     12  C   UNL     1      17.462 -10.329   2.068 -0.47 -0.00    +0.000 C 
DOCKED: BRANCH  11  14
DOCKED: ATOM     13  O   UNL     1      20.276 -12.384   2.118 -1.64 -0.00    +0.000 OA
DOCKED: ATOM     14  C   UNL     1      19.763 -11.253   1.908 -0.72 -0.00    +0.000 C 
DOCKED: ATOM     15  N   UNL     1      20.399 -10.356   0.988 -0.60 -0.00    +0.000 N 
DOCKED: ATOM     16  H   UNL     1      20.064  -9.436   0.888 -0.18 -0.00    +0.000 HD
DOCKED: BRANCH  15  17
DOCKED: ATOM     17  O   UNL     1      21.462 -10.771   0.257 -0.76 -0.00    +0.000 OA
DOCKED: ATOM     18  H   UNL     1      21.928 -11.475   0.734 -0.47 -0.00    +0.000 HD
DOCKED: ENDBRANCH  15  17
DOCKED: ENDBRANCH  11  14
DOCKED: ENDBRANCH   5  12
DOCKED: ENDBRANCH   4   8
DOCKED: ENDBRANCH   1   4
DOCKED: BRANCH   1  19
DOCKED: ATOM     19  C   UNL     1      12.183  -6.644   4.530 -0.21 +0.00    +0.000 C 
DOCKED: BRANCH  19  20
DOCKED: ATOM     20  C   UNL     1      10.677  -6.773   4.243 -0.14 +0.00    +0.000 C 
DOCKED: BRANCH  20  21
DOCKED: ATOM     21  C   UNL     1       9.882  -6.451   5.476 -0.21 +0.00    +0.000 A 
DOCKED: ATOM     22  C   UNL     1       9.587  -5.188   5.994 -0.32 +0.00    +0.000 A 
DOCKED: ATOM     23  N   UNL     1       8.905  -5.296   7.158 -0.48 +0.00    +0.000 N 
DOCKED: ATOM     24  C   UNL     1       8.786  -6.613   7.394 -0.38 +0.00    +0.000 A 
DOCKED: ATOM     25  C   UNL     1       9.374  -7.350   6.396 -0.27 +0.00    +0.000 A 
DOCKED: ATOM     26  C   UNL     1       9.402  -8.744   6.432 -0.39 +0.00    +0.000 A 
DOCKED: ATOM     27  C   UNL     1       8.796  -9.386   7.527 -0.48 +0.00    +0.000 A 
DOCKED: ATOM     28  C   UNL     1       8.187  -8.628   8.552 -0.59 +0.00    +0.000 A 
DOCKED: ATOM     29  C   UNL     1       8.179  -7.222   8.491 -0.58 +0.00    +0.000 A 
DOCKED: ATOM     30  C   UNL     1       9.936  -3.881   5.357 -0.38 +0.00    +0.000 C 
DOCKED: ATOM     31  H   UNL     1       8.566  -4.559   7.716 -0.06 +0.00    +0.000 HD
DOCKED: ENDBRANCH  20  21
DOCKED: ENDBRANCH  19  20
DOCKED: ENDBRANCH   1  19
DOCKED: TORSDOF 8
DOCKED: TER
DOCKED: ENDMDL
________________________________________________________________________________


	BEGINNING GENETIC ALGORITHM DOCKING 57 of 100
Run: 57 Seed: 814040101 610324544 [ Run 57 of 100 GA/GALS ]
Beginning LAMARCKIAN GENETIC ALGORITHM (LGA), with a maximum of 2500000 energy evaluations.

Final-Value: -12.784


	FINAL GENETIC ALGORITHM DOCKED STATE
	_______________________________________________


Detailed state:  trans 19.757 -12.464 0.971 quatxyzw 0.870143 -0.192288 -0.150380 0.428092 center 0.698 0.076 -0.072 ntor 8 3.7091 -166.4810 101.7281 -161.1459 -14.1594 73.0137 137.2668 66.0776
State:	 19.757 -12.464   0.971   0.963 -0.213 -0.166 129.307      3.71 -166.48  101.73 -161.15  -14.16   73.01  137.27   66.08

DOCKED: MODEL       57
DOCKED: USER    Run = 57
DOCKED: USER    DPF = ligand_dock.biased.dpf
DOCKED: USER  
DOCKED: USER    Estimated Free Energy of Binding    =   -8.68 kcal/mol  [=(1)+(2)+(3)-(4)]
DOCKED: USER    Estimated Inhibition Constant, Ki   =  433.71 nM (nanomolar)  [Temperature = 298.15 K]
DOCKED: USER    
DOCKED: USER    (1) Final Intermolecular Energy     =  -11.07 kcal/mol
DOCKED: USER        vdW + Hbond + desolv Energy     =  -11.07 kcal/mol
DOCKED: USER        Electrostatic Energy            =   +0.00 kcal/mol
DOCKED: USER    (2) Final Total Internal Energy     =   -1.72 kcal/mol
DOCKED: USER    (3) Torsional Free Energy           =   +2.39 kcal/mol
DOCKED: USER    (4) Unbound System's Energy  [=(2)] =   -1.72 kcal/mol
DOCKED: USER    
DOCKED: USER    
DOCKED: USER    NEWDPF move ligand.pdbqt
DOCKED: USER    NEWDPF about 0.698000 0.076000 -0.072000
DOCKED: USER    NEWDPF tran0 19.757425 -12.464167 0.970911
DOCKED: USER    NEWDPF quaternion0 0.870143 -0.192288 -0.150380 0.428092
DOCKED: USER    NEWDPF axisangle0 0.962829 -0.212771 -0.166399 129.306945
DOCKED: USER    NEWDPF quat0 0.962829 -0.212771 -0.166399 129.306945
DOCKED: USER    NEWDPF dihe0 3.71 -166.48 101.73 -161.15 -14.16 73.01 137.27 66.08 
DOCKED: USER  keepresnum = 1 
DOCKED: USER  
DOCKED: REMARK  Name = 
DOCKED: REMARK  9 active torsions:
DOCKED: REMARK  status: ('A' for Active; 'I' for Inactive)
DOCKED: REMARK    1  A    between atoms: C_2  and  C_3
DOCKED: REMARK    2  A    between atoms: C_4  and  C_5
DOCKED: REMARK    3  A    between atoms: C_8  and  C_9
DOCKED: REMARK    4  A    between atoms: C_9  and  N_10
DOCKED: REMARK    5  A    between atoms: N_10  and  C_11
DOCKED: REMARK    6  A    between atoms: C_11  and  C_12
DOCKED: REMARK    7  A    between atoms: C_12  and  C_13
DOCKED: REMARK    8  A    between atoms: C_14  and  C_22
DOCKED: REMARK    9  A    between atoms: N_25  and  O_26
DOCKED: REMARK                            x       y       z     vdW  Elec       q    Type
DOCKED: REMARK                         _______ _______ _______ _____ _____    ______ ____
DOCKED: USER                              x       y       z     vdW  Elec       q    Type
DOCKED: USER                           _______ _______ _______ _____ _____    ______ ____
DOCKED: ROOT
DOCKED: ATOM      1  N   UNL     1      18.641 -12.766   1.132 -0.46 -0.00    +0.000 N 
DOCKED: ATOM      2  H   UNL     1      18.901 -13.461   1.833 -0.38 -0.00    +0.000 HD
DOCKED: ATOM      3  H   UNL     1      18.702 -13.151   0.190 -0.35 -0.00    +0.000 HD
DOCKED: ENDROOT
DOCKED: BRANCH   1   4
DOCKED: ATOM      4  C   UNL     1      19.573 -11.635   1.219 -0.69 -0.00    +0.000 C 
DOCKED: BRANCH   4   8
DOCKED: ATOM      5  C   UNL     1      20.793 -10.389  -2.740 -0.48 -0.00    +0.000 A 
DOCKED: ATOM      6  C   UNL     1      21.720 -10.418  -1.679 -0.37 -0.00    +0.000 A 
DOCKED: ATOM      7  C   UNL     1      21.324 -10.826  -0.402 -0.54 -0.00    +0.000 A 
DOCKED: ATOM      8  C   UNL     1      20.003 -11.234  -0.164 -0.49 -0.00    +0.000 A 
DOCKED: ATOM      9  C   UNL     1      19.077 -11.210  -1.218 -0.39 -0.00    +0.000 A 
DOCKED: ATOM     10  C   UNL     1      19.473 -10.803  -2.495 -0.39 -0.00    +0.000 A 
DOCKED: BRANCH   5  12
DOCKED: ATOM     11  C   UNL     1      21.797 -10.775  -4.988 -0.49 -0.00    +0.000 C 
DOCKED: ATOM     12  C   UNL     1      21.163  -9.976  -4.117 -0.46 -0.00    +0.000 C 
DOCKED: BRANCH  11  14
DOCKED: ATOM     13  O   UNL     1      22.411  -9.143  -6.568 -0.27 -0.00    +0.000 OA
DOCKED: ATOM     14  C   UNL     1      22.166 -10.359  -6.357 -0.38 -0.00    +0.000 C 
DOCKED: ATOM     15  N   UNL     1      22.228 -11.285  -7.451 -0.35 -0.00    +0.000 N 
DOCKED: ATOM     16  H   UNL     1      21.945 -12.219  -7.321 -0.58 -0.00    +0.000 HD
DOCKED: BRANCH  15  17
DOCKED: ATOM     17  O   UNL     1      22.673 -10.877  -8.664 -0.26 -0.00    +0.000 OA
DOCKED: ATOM     18  H   UNL     1      22.964  -9.953  -8.608 +0.00 -0.00    +0.000 HD
DOCKED: ENDBRANCH  15  17
DOCKED: ENDBRANCH  11  14
DOCKED: ENDBRANCH   5  12
DOCKED: ENDBRANCH   4   8
DOCKED: ENDBRANCH   1   4
DOCKED: BRANCH   1  19
DOCKED: ATOM     19  C   UNL     1      17.247 -12.358   1.364 -0.37 +0.00    +0.000 C 
DOCKED: BRANCH  19  20
DOCKED: ATOM     20  C   UNL     1      17.125 -10.870   1.735 -0.45 +0.00    +0.000 C 
DOCKED: BRANCH  20  21
DOCKED: ATOM     21  C   UNL     1      15.686 -10.444   1.717 -0.32 +0.00    +0.000 A 
DOCKED: ATOM     22  C   UNL     1      14.853 -10.306   0.604 -0.25 +0.00    +0.000 A 
DOCKED: ATOM     23  N   UNL     1      13.638  -9.836   0.971 -0.19 +0.00    +0.000 N 
DOCKED: ATOM     24  C   UNL     1      13.702  -9.653   2.301 -0.23 +0.00    +0.000 A 
DOCKED: ATOM     25  C   UNL     1      14.934 -10.005   2.791 -0.34 +0.00    +0.000 A 
DOCKED: ATOM     26  C   UNL     1      15.251  -9.879   4.144 -0.39 +0.00    +0.000 A 
DOCKED: ATOM     27  C   UNL     1      14.257  -9.382   5.007 -0.42 +0.00    +0.000 A 
DOCKED: ATOM     28  C   UNL     1      12.986  -9.024   4.504 -0.29 +0.00    +0.000 A 
DOCKED: ATOM     29  C   UNL     1      12.698  -9.158   3.133 -0.19 +0.00    +0.000 A 
DOCKED: ATOM     30  C   UNL     1      15.215 -10.652  -0.805 -0.31 +0.00    +0.000 C 
DOCKED: ATOM     31  H   UNL     1      12.867  -9.664   0.384 +0.01 +0.00    +0.000 HD
DOCKED: ENDBRANCH  20  21
DOCKED: ENDBRANCH  19  20
DOCKED: ENDBRANCH   1  19
DOCKED: TORSDOF 8
DOCKED: TER
DOCKED: ENDMDL
________________________________________________________________________________


	BEGINNING GENETIC ALGORITHM DOCKING 58 of 100
Run: 58 Seed: 1762937443 1172308115 [ Run 58 of 100 GA/GALS ]
Beginning LAMARCKIAN GENETIC ALGORITHM (LGA), with a maximum of 2500000 energy evaluations.

Final-Value: -15.007


	FINAL GENETIC ALGORITHM DOCKED STATE
	_______________________________________________


Detailed state:  trans 20.807 -8.788 -5.603 quatxyzw -0.529117 0.077889 -0.840806 0.083748 center 0.698 0.076 -0.072 ntor 8 3.2869 29.3465 -48.3096 124.5949 32.0580 -169.0210 -46.9293 43.2644
State:	 20.807  -8.788  -5.603  -0.531  0.078 -0.844 170.392      3.29   29.35  -48.31  124.59   32.06 -169.02  -46.93   43.26

DOCKED: MODEL       58
DOCKED: USER    Run = 58
DOCKED: USER    DPF = ligand_dock.biased.dpf
DOCKED: USER  
DOCKED: USER    Estimated Free Energy of Binding    =  -10.93 kcal/mol  [=(1)+(2)+(3)-(4)]
DOCKED: USER    Estimated Inhibition Constant, Ki   =    9.71 nM (nanomolar)  [Temperature = 298.15 K]
DOCKED: USER    
DOCKED: USER    (1) Final Intermolecular Energy     =  -13.32 kcal/mol
DOCKED: USER        vdW + Hbond + desolv Energy     =  -13.32 kcal/mol
DOCKED: USER        Electrostatic Energy            =   +0.00 kcal/mol
DOCKED: USER    (2) Final Total Internal Energy     =   -1.69 kcal/mol
DOCKED: USER    (3) Torsional Free Energy           =   +2.39 kcal/mol
DOCKED: USER    (4) Unbound System's Energy  [=(2)] =   -1.69 kcal/mol
DOCKED: USER    
DOCKED: USER    
DOCKED: USER    NEWDPF move ligand.pdbqt
DOCKED: USER    NEWDPF about 0.698000 0.076000 -0.072000
DOCKED: USER    NEWDPF tran0 20.807405 -8.788092 -5.602987
DOCKED: USER    NEWDPF quaternion0 -0.529117 0.077889 -0.840806 0.083748
DOCKED: USER    NEWDPF axisangle0 -0.530982 0.078163 -0.843770 170.391951
DOCKED: USER    NEWDPF quat0 -0.530982 0.078163 -0.843770 170.391951
DOCKED: USER    NEWDPF dihe0 3.29 29.35 -48.31 124.59 32.06 -169.02 -46.93 43.26 
DOCKED: USER  keepresnum = 1 
DOCKED: USER  
DOCKED: REMARK  Name = 
DOCKED: REMARK  9 active torsions:
DOCKED: REMARK  status: ('A' for Active; 'I' for Inactive)
DOCKED: REMARK    1  A    between atoms: C_2  and  C_3
DOCKED: REMARK    2  A    between atoms: C_4  and  C_5
DOCKED: REMARK    3  A    between atoms: C_8  and  C_9
DOCKED: REMARK    4  A    between atoms: C_9  and  N_10
DOCKED: REMARK    5  A    between atoms: N_10  and  C_11
DOCKED: REMARK    6  A    between atoms: C_11  and  C_12
DOCKED: REMARK    7  A    between atoms: C_12  and  C_13
DOCKED: REMARK    8  A    between atoms: C_14  and  C_22
DOCKED: REMARK    9  A    between atoms: N_25  and  O_26
DOCKED: REMARK                            x       y       z     vdW  Elec       q    Type
DOCKED: REMARK                         _______ _______ _______ _____ _____    ______ ____
DOCKED: USER                              x       y       z     vdW  Elec       q    Type
DOCKED: USER                           _______ _______ _______ _____ _____    ______ ____
DOCKED: ROOT
DOCKED: ATOM      1  N   UNL     1      20.900  -9.357  -6.619 -0.18 -0.00    +0.000 N 
DOCKED: ATOM      2  H   UNL     1      20.044  -8.925  -6.970 +0.01 -0.00    +0.000 HD
DOCKED: ATOM      3  H   UNL     1      20.696 -10.190  -6.069 -0.00 -0.00    +0.000 HD
DOCKED: ENDROOT
DOCKED: BRANCH   1   4
DOCKED: ATOM      4  C   UNL     1      21.589  -8.397  -5.746 -0.24 -0.00    +0.000 C 
DOCKED: BRANCH   4   8
DOCKED: ATOM      5  C   UNL     1      21.405  -9.851  -1.676 -0.53 -0.00    +0.000 A 
DOCKED: ATOM      6  C   UNL     1      21.548 -10.749  -2.753 -0.32 -0.00    +0.000 A 
DOCKED: ATOM      7  C   UNL     1      21.613 -10.275  -4.066 -0.41 -0.00    +0.000 A 
DOCKED: ATOM      8  C   UNL     1      21.558  -8.899  -4.329 -0.30 -0.00    +0.000 A 
DOCKED: ATOM      9  C   UNL     1      21.418  -8.000  -3.261 -0.35 -0.00    +0.000 A 
DOCKED: ATOM     10  C   UNL     1      21.355  -8.474  -1.946 -0.45 -0.00    +0.000 A 
DOCKED: BRANCH   5  12
DOCKED: ATOM     11  C   UNL     1      20.297 -10.950   0.267 -0.67 -0.00    +0.000 C 
DOCKED: ATOM     12  C   UNL     1      21.344 -10.299  -0.262 -0.72 -0.00    +0.000 C 
DOCKED: BRANCH  11  14
DOCKED: ATOM     13  O   UNL     1      19.835 -12.559   1.922 -1.63 -0.00    +0.000 OA
DOCKED: ATOM     14  C   UNL     1      20.239 -11.392   1.676 -0.76 -0.00    +0.000 C 
DOCKED: ATOM     15  N   UNL     1      20.601 -10.533   2.766 -0.62 -0.00    +0.000 N 
DOCKED: ATOM     16  H   UNL     1      20.825  -9.590   2.595 -0.55 -0.00    +0.000 HD
DOCKED: BRANCH  15  17
DOCKED: ATOM     17  O   UNL     1      20.633 -11.016   4.032 -0.75 -0.00    +0.000 OA
DOCKED: ATOM     18  H   UNL     1      20.438 -11.966   4.021 -0.37 -0.00    +0.000 HD
DOCKED: ENDBRANCH  15  17
DOCKED: ENDBRANCH  11  14
DOCKED: ENDBRANCH   5  12
DOCKED: ENDBRANCH   4   8
DOCKED: ENDBRANCH   1   4
DOCKED: BRANCH   1  19
DOCKED: ATOM     19  C   UNL     1      21.730  -9.762  -7.764 -0.22 -0.00    +0.000 C 
DOCKED: BRANCH  19  20
DOCKED: ATOM     20  C   UNL     1      22.118 -11.249  -7.709 -0.31 -0.00    +0.000 C 
DOCKED: BRANCH  20  21
DOCKED: ATOM     21  C   UNL     1      23.509 -11.445  -8.241 -0.36 -0.00    +0.000 A 
DOCKED: ATOM     22  C   UNL     1      23.989 -12.518  -8.995 -0.38 -0.00    +0.000 A 
DOCKED: ATOM     23  N   UNL     1      25.314 -12.379  -9.235 -0.41 -0.00    +0.000 N 
DOCKED: ATOM     24  C   UNL     1      25.681 -11.242  -8.621 -0.37 -0.00    +0.000 A 
DOCKED: ATOM     25  C   UNL     1      24.612 -10.647  -7.999 -0.33 -0.00    +0.000 A 
DOCKED: ATOM     26  C   UNL     1      24.750  -9.465  -7.271 -0.23 -0.00    +0.000 A 
DOCKED: ATOM     27  C   UNL     1      26.029  -8.885  -7.197 -0.29 -0.00    +0.000 A 
DOCKED: ATOM     28  C   UNL     1      27.129  -9.493  -7.841 -0.34 -0.00    +0.000 A 
DOCKED: ATOM     29  C   UNL     1      26.960 -10.689  -8.564 -0.36 -0.00    +0.000 A 
DOCKED: ATOM     30  C   UNL     1      23.171 -13.660  -9.507 -0.36 -0.00    +0.000 C 
DOCKED: ATOM     31  H   UNL     1      25.889 -12.987  -9.753 -0.53 -0.00    +0.000 HD
DOCKED: ENDBRANCH  20  21
DOCKED: ENDBRANCH  19  20
DOCKED: ENDBRANCH   1  19
DOCKED: TORSDOF 8
DOCKED: TER
DOCKED: ENDMDL
________________________________________________________________________________


	BEGINNING GENETIC ALGORITHM DOCKING 59 of 100
Run: 59 Seed: 1152268975 1411215561 [ Run 59 of 100 GA/GALS ]
Beginning LAMARCKIAN GENETIC ALGORITHM (LGA), with a maximum of 2500000 energy evaluations.

Final-Value: -14.478


	FINAL GENETIC ALGORITHM DOCKED STATE
	_______________________________________________


Detailed state:  trans 20.951 -10.767 2.930 quatxyzw 0.649727 -0.053965 0.112523 -0.749854 center 0.698 0.076 -0.072 ntor 8 -12.0400 121.5874 111.1597 -32.9015 -12.6596 -33.4510 21.6750 -121.2600
State:	 20.951 -10.767   2.930   0.982 -0.082  0.170 -82.845    -12.04  121.59  111.16  -32.90  -12.66  -33.45   21.68 -121.26

DOCKED: MODEL       59
DOCKED: USER    Run = 59
DOCKED: USER    DPF = ligand_dock.biased.dpf
DOCKED: USER  
DOCKED: USER    Estimated Free Energy of Binding    =  -10.09 kcal/mol  [=(1)+(2)+(3)-(4)]
DOCKED: USER    Estimated Inhibition Constant, Ki   =   40.36 nM (nanomolar)  [Temperature = 298.15 K]
DOCKED: USER    
DOCKED: USER    (1) Final Intermolecular Energy     =  -12.47 kcal/mol
DOCKED: USER        vdW + Hbond + desolv Energy     =  -12.47 kcal/mol
DOCKED: USER        Electrostatic Energy            =   +0.00 kcal/mol
DOCKED: USER    (2) Final Total Internal Energy     =   -2.00 kcal/mol
DOCKED: USER    (3) Torsional Free Energy           =   +2.39 kcal/mol
DOCKED: USER    (4) Unbound System's Energy  [=(2)] =   -2.00 kcal/mol
DOCKED: USER    
DOCKED: USER    
DOCKED: USER    NEWDPF move ligand.pdbqt
DOCKED: USER    NEWDPF about 0.698000 0.076000 -0.072000
DOCKED: USER    NEWDPF tran0 20.950712 -10.767379 2.929948
DOCKED: USER    NEWDPF quaternion0 0.649727 -0.053965 0.112523 -0.749854
DOCKED: USER    NEWDPF axisangle0 0.982049 -0.081567 0.170076 -82.844517
DOCKED: USER    NEWDPF quat0 0.982049 -0.081567 0.170076 -82.844517
DOCKED: USER    NEWDPF dihe0 -12.04 121.59 111.16 -32.90 -12.66 -33.45 21.68 -121.26 
DOCKED: USER  keepresnum = 1 
DOCKED: USER  
DOCKED: REMARK  Name = 
DOCKED: REMARK  9 active torsions:
DOCKED: REMARK  status: ('A' for Active; 'I' for Inactive)
DOCKED: REMARK    1  A    between atoms: C_2  and  C_3
DOCKED: REMARK    2  A    between atoms: C_4  and  C_5
DOCKED: REMARK    3  A    between atoms: C_8  and  C_9
DOCKED: REMARK    4  A    between atoms: C_9  and  N_10
DOCKED: REMARK    5  A    between atoms: N_10  and  C_11
DOCKED: REMARK    6  A    between atoms: C_11  and  C_12
DOCKED: REMARK    7  A    between atoms: C_12  and  C_13
DOCKED: REMARK    8  A    between atoms: C_14  and  C_22
DOCKED: REMARK    9  A    between atoms: N_25  and  O_26
DOCKED: REMARK                            x       y       z     vdW  Elec       q    Type
DOCKED: REMARK                         _______ _______ _______ _____ _____    ______ ____
DOCKED: USER                              x       y       z     vdW  Elec       q    Type
DOCKED: USER                           _______ _______ _______ _____ _____    ______ ____
DOCKED: ROOT
DOCKED: ATOM      1  N   UNL     1      19.839 -10.564   3.225 -0.67 -0.00    +0.000 N 
DOCKED: ATOM      2  H   UNL     1      19.896  -9.603   2.887 -0.54 -0.00    +0.000 HD
DOCKED: ATOM      3  H   UNL     1      20.174 -10.639   4.185 -0.07 -0.00    +0.000 HD
DOCKED: ENDROOT
DOCKED: BRANCH   1   4
DOCKED: ATOM      4  C   UNL     1      20.692 -11.413   2.383 -0.68 -0.00    +0.000 C 
DOCKED: BRANCH   4   8
DOCKED: ATOM      5  C   UNL     1      19.636 -10.711  -1.753 -0.41 -0.00    +0.000 A 
DOCKED: ATOM      6  C   UNL     1      20.815 -10.162  -1.211 -0.57 -0.00    +0.000 A 
DOCKED: ATOM      7  C   UNL     1      21.156 -10.396   0.125 -0.61 -0.00    +0.000 A 
DOCKED: ATOM      8  C   UNL     1      20.341 -11.197   0.937 -0.64 -0.00    +0.000 A 
DOCKED: ATOM      9  C   UNL     1      19.167 -11.748   0.401 -0.53 -0.00    +0.000 A 
DOCKED: ATOM     10  C   UNL     1      18.826 -11.516  -0.935 -0.39 -0.00    +0.000 A 
DOCKED: BRANCH   5  12
DOCKED: ATOM     11  C   UNL     1      19.618 -11.302  -4.174 -0.48 -0.00    +0.000 C 
DOCKED: ATOM     12  C   UNL     1      19.233 -10.504  -3.167 -0.41 -0.00    +0.000 C 
DOCKED: BRANCH  11  14
DOCKED: ATOM     13  O   UNL     1      18.024 -10.772  -5.822 -0.32 -0.00    +0.000 OA
DOCKED: ATOM     14  C   UNL     1      19.217 -11.092  -5.581 -0.42 -0.00    +0.000 C 
DOCKED: ATOM     15  N   UNL     1      20.130 -11.265  -6.674 -0.22 -0.00    +0.000 N 
DOCKED: ATOM     16  H   UNL     1      21.037 -11.608  -6.507 -0.40 -0.00    +0.000 HD
DOCKED: BRANCH  15  17
DOCKED: ATOM     17  O   UNL     1      19.745 -10.957  -7.936 -0.32 -0.00    +0.000 OA
DOCKED: ATOM     18  H   UNL     1      18.785 -10.820  -7.958 -0.02 -0.00    +0.000 HD
DOCKED: ENDBRANCH  15  17
DOCKED: ENDBRANCH  11  14
DOCKED: ENDBRANCH   5  12
DOCKED: ENDBRANCH   4   8
DOCKED: ENDBRANCH   1   4
DOCKED: BRANCH   1  19
DOCKED: ATOM     19  C   UNL     1      18.432 -10.992   3.202 -0.49 -0.00    +0.000 C 
DOCKED: BRANCH  19  20
DOCKED: ATOM     20  C   UNL     1      17.526  -9.991   2.465 -0.48 -0.00    +0.000 C 
DOCKED: BRANCH  20  21
DOCKED: ATOM     21  C   UNL     1      16.152 -10.568   2.282 -0.38 +0.00    +0.000 A 
DOCKED: ATOM     22  C   UNL     1      15.272 -11.003   3.276 -0.47 +0.00    +0.000 A 
DOCKED: ATOM     23  N   UNL     1      14.151 -11.525   2.728 -0.45 +0.00    +0.000 N 
DOCKED: ATOM     24  C   UNL     1      14.322 -11.446   1.397 -0.39 +0.00    +0.000 A 
DOCKED: ATOM     25  C   UNL     1      15.531 -10.875   1.086 -0.31 +0.00    +0.000 A 
DOCKED: ATOM     26  C   UNL     1      15.947 -10.709  -0.235 -0.29 +0.00    +0.000 A 
DOCKED: ATOM     27  C   UNL     1      15.079 -11.139  -1.256 -0.30 +0.00    +0.000 A 
DOCKED: ATOM     28  C   UNL     1      13.833 -11.722  -0.937 -0.33 +0.00    +0.000 A 
DOCKED: ATOM     29  C   UNL     1      13.443 -11.882   0.406 -0.38 +0.00    +0.000 A 
DOCKED: ATOM     30  C   UNL     1      15.498 -10.892   4.751 -0.39 +0.00    +0.000 C 
DOCKED: ATOM     31  H   UNL     1      13.370 -11.888   3.206 -0.11 +0.00    +0.000 HD
DOCKED: ENDBRANCH  20  21
DOCKED: ENDBRANCH  19  20
DOCKED: ENDBRANCH   1  19
DOCKED: TORSDOF 8
DOCKED: TER
DOCKED: ENDMDL
________________________________________________________________________________


	BEGINNING GENETIC ALGORITHM DOCKING 60 of 100
Run: 60 Seed: 597592692 664376481 [ Run 60 of 100 GA/GALS ]
Beginning LAMARCKIAN GENETIC ALGORITHM (LGA), with a maximum of 2500000 energy evaluations.

Final-Value: -13.359


	FINAL GENETIC ALGORITHM DOCKED STATE
	_______________________________________________


Detailed state:  trans 21.400 -10.968 -5.803 quatxyzw 0.467804 0.339487 0.753236 0.313917 center 0.698 0.076 -0.072 ntor 8 95.9851 -167.0906 -155.9447 -148.9187 1.3856 -149.8282 175.7923 11.0242
State:	 21.400 -10.968  -5.803   0.493  0.358  0.793 143.409     95.99 -167.09 -155.94 -148.92    1.39 -149.83  175.79   11.02

DOCKED: MODEL       60
DOCKED: USER    Run = 60
DOCKED: USER    DPF = ligand_dock.biased.dpf
DOCKED: USER  
DOCKED: USER    Estimated Free Energy of Binding    =  -10.09 kcal/mol  [=(1)+(2)+(3)-(4)]
DOCKED: USER    Estimated Inhibition Constant, Ki   =   40.01 nM (nanomolar)  [Temperature = 298.15 K]
DOCKED: USER    
DOCKED: USER    (1) Final Intermolecular Energy     =  -12.48 kcal/mol
DOCKED: USER        vdW + Hbond + desolv Energy     =  -12.48 kcal/mol
DOCKED: USER        Electrostatic Energy            =   +0.00 kcal/mol
DOCKED: USER    (2) Final Total Internal Energy     =   -0.88 kcal/mol
DOCKED: USER    (3) Torsional Free Energy           =   +2.39 kcal/mol
DOCKED: USER    (4) Unbound System's Energy  [=(2)] =   -0.88 kcal/mol
DOCKED: USER    
DOCKED: USER    
DOCKED: USER    NEWDPF move ligand.pdbqt
DOCKED: USER    NEWDPF about 0.698000 0.076000 -0.072000
DOCKED: USER    NEWDPF tran0 21.400366 -10.967985 -5.802869
DOCKED: USER    NEWDPF quaternion0 0.467804 0.339487 0.753236 0.313917
DOCKED: USER    NEWDPF axisangle0 0.492710 0.357562 0.793339 143.409060
DOCKED: USER    NEWDPF quat0 0.492710 0.357562 0.793339 143.409060
DOCKED: USER    NEWDPF dihe0 95.99 -167.09 -155.94 -148.92 1.39 -149.83 175.79 11.02 
DOCKED: USER  keepresnum = 1 
DOCKED: USER  
DOCKED: REMARK  Name = 
DOCKED: REMARK  9 active torsions:
DOCKED: REMARK  status: ('A' for Active; 'I' for Inactive)
DOCKED: REMARK    1  A    between atoms: C_2  and  C_3
DOCKED: REMARK    2  A    between atoms: C_4  and  C_5
DOCKED: REMARK    3  A    between atoms: C_8  and  C_9
DOCKED: REMARK    4  A    between atoms: C_9  and  N_10
DOCKED: REMARK    5  A    between atoms: N_10  and  C_11
DOCKED: REMARK    6  A    between atoms: C_11  and  C_12
DOCKED: REMARK    7  A    between atoms: C_12  and  C_13
DOCKED: REMARK    8  A    between atoms: C_14  and  C_22
DOCKED: REMARK    9  A    between atoms: N_25  and  O_26
DOCKED: REMARK                            x       y       z     vdW  Elec       q    Type
DOCKED: REMARK                         _______ _______ _______ _____ _____    ______ ____
DOCKED: USER                              x       y       z     vdW  Elec       q    Type
DOCKED: USER                           _______ _______ _______ _____ _____    ______ ____
DOCKED: ROOT
DOCKED: ATOM      1  N   UNL     1      22.105 -11.328  -6.662 -0.40 -0.00    +0.000 N 
DOCKED: ATOM      2  H   UNL     1      21.420 -12.018  -6.972 -0.50 -0.00    +0.000 HD
DOCKED: ATOM      3  H   UNL     1      22.687 -11.696  -5.910 -0.06 -0.00    +0.000 HD
DOCKED: ENDROOT
DOCKED: BRANCH   1   4
DOCKED: ATOM      4  C   UNL     1      21.391 -10.152  -6.147 -0.35 -0.00    +0.000 C 
DOCKED: BRANCH   4   8
DOCKED: ATOM      5  C   UNL     1      20.035 -10.841  -2.097 -0.38 -0.00    +0.000 A 
DOCKED: ATOM      6  C   UNL     1      19.139 -10.939  -3.180 -0.34 -0.00    +0.000 A 
DOCKED: ATOM      7  C   UNL     1      19.582 -10.721  -4.489 -0.38 -0.00    +0.000 A 
DOCKED: ATOM      8  C   UNL     1      20.928 -10.424  -4.743 -0.41 -0.00    +0.000 A 
DOCKED: ATOM      9  C   UNL     1      21.825 -10.328  -3.668 -0.28 -0.00    +0.000 A 
DOCKED: ATOM     10  C   UNL     1      21.383 -10.548  -2.360 -0.48 -0.00    +0.000 A 
DOCKED: BRANCH   5  12
DOCKED: ATOM     11  C   UNL     1      20.450 -10.962   0.357 -0.68 -0.00    +0.000 C 
DOCKED: ATOM     12  C   UNL     1      19.621 -11.075  -0.692 -0.51 -0.00    +0.000 C 
DOCKED: BRANCH  11  14
DOCKED: ATOM     13  O   UNL     1      19.098 -12.012   1.973 -1.25 -0.00    +0.000 OA
DOCKED: ATOM     14  C   UNL     1      20.033 -11.198   1.755 -0.73 -0.00    +0.000 C 
DOCKED: ATOM     15  N   UNL     1      20.638 -10.515   2.863 -0.61 -0.00    +0.000 N 
DOCKED: ATOM     16  H   UNL     1      21.302  -9.807   2.699 -0.55 -0.00    +0.000 HD
DOCKED: BRANCH  15  17
DOCKED: ATOM     17  O   UNL     1      20.297 -10.842   4.132 -0.76 -0.00    +0.000 OA
DOCKED: ATOM     18  H   UNL     1      20.941 -11.474   4.488 -0.39 -0.00    +0.000 HD
DOCKED: ENDBRANCH  15  17
DOCKED: ENDBRANCH  11  14
DOCKED: ENDBRANCH   5  12
DOCKED: ENDBRANCH   4   8
DOCKED: ENDBRANCH   1   4
DOCKED: BRANCH   1  19
DOCKED: ATOM     19  C   UNL     1      22.985 -10.994  -7.793 -0.38 -0.00    +0.000 C 
DOCKED: BRANCH  19  20
DOCKED: ATOM     20  C   UNL     1      24.387 -11.609  -7.647 -0.46 -0.00    +0.000 C 
DOCKED: BRANCH  20  21
DOCKED: ATOM     21  C   UNL     1      25.282 -11.134  -8.755 -0.34 -0.00    +0.000 A 
DOCKED: ATOM     22  C   UNL     1      25.076 -11.263 -10.130 -0.19 -0.00    +0.000 A 
DOCKED: ATOM     23  N   UNL     1      26.133 -10.775 -10.820 -0.15 -0.00    +0.000 N 
DOCKED: ATOM     24  C   UNL     1      27.015 -10.360  -9.895 -0.22 -0.00    +0.000 A 
DOCKED: ATOM     25  C   UNL     1      26.537 -10.568  -8.626 -0.35 -0.00    +0.000 A 
DOCKED: ATOM     26  C   UNL     1      27.286 -10.241  -7.495 -0.30 -0.00    +0.000 A 
DOCKED: ATOM     27  C   UNL     1      28.560  -9.676  -7.692 -0.43 -0.00    +0.000 A 
DOCKED: ATOM     28  C   UNL     1      29.050  -9.457  -8.999 -0.24 -0.00    +0.000 A 
DOCKED: ATOM     29  C   UNL     1      28.273  -9.802 -10.120 -0.19 -0.00    +0.000 A 
DOCKED: ATOM     30  C   UNL     1      23.854 -11.829 -10.780 -0.19 -0.00    +0.000 C 
DOCKED: ATOM     31  H   UNL     1      26.233 -10.732 -11.799 +0.00 -0.00    +0.000 HD
DOCKED: ENDBRANCH  20  21
DOCKED: ENDBRANCH  19  20
DOCKED: ENDBRANCH   1  19
DOCKED: TORSDOF 8
DOCKED: TER
DOCKED: ENDMDL
________________________________________________________________________________


	BEGINNING GENETIC ALGORITHM DOCKING 61 of 100
Run: 61 Seed: 1435289575 1670112791 [ Run 61 of 100 GA/GALS ]
Beginning LAMARCKIAN GENETIC ALGORITHM (LGA), with a maximum of 2500000 energy evaluations.

Final-Value: -13.072


	FINAL GENETIC ALGORITHM DOCKED STATE
	_______________________________________________


Detailed state:  trans 16.598 -10.188 -3.573 quatxyzw 0.062357 -0.186529 -0.967135 -0.161149 center 0.698 0.076 -0.072 ntor 8 162.0978 -42.7265 -97.3641 171.0229 79.1673 -153.9871 -134.9016 49.7477
State:	 16.598 -10.188  -3.573   0.063 -0.189 -0.980 -161.453    162.10  -42.73  -97.36  171.02   79.17 -153.99 -134.90   49.75

DOCKED: MODEL       61
DOCKED: USER    Run = 61
DOCKED: USER    DPF = ligand_dock.biased.dpf
DOCKED: USER  
DOCKED: USER    Estimated Free Energy of Binding    =   -8.53 kcal/mol  [=(1)+(2)+(3)-(4)]
DOCKED: USER    Estimated Inhibition Constant, Ki   =  557.57 nM (nanomolar)  [Temperature = 298.15 K]
DOCKED: USER    
DOCKED: USER    (1) Final Intermolecular Energy     =  -10.92 kcal/mol
DOCKED: USER        vdW + Hbond + desolv Energy     =  -10.92 kcal/mol
DOCKED: USER        Electrostatic Energy            =   +0.00 kcal/mol
DOCKED: USER    (2) Final Total Internal Energy     =   -2.15 kcal/mol
DOCKED: USER    (3) Torsional Free Energy           =   +2.39 kcal/mol
DOCKED: USER    (4) Unbound System's Energy  [=(2)] =   -2.15 kcal/mol
DOCKED: USER    
DOCKED: USER    
DOCKED: USER    NEWDPF move ligand.pdbqt
DOCKED: USER    NEWDPF about 0.698000 0.076000 -0.072000
DOCKED: USER    NEWDPF tran0 16.598335 -10.187571 -3.572781
DOCKED: USER    NEWDPF quaternion0 0.062357 -0.186529 -0.967135 -0.161149
DOCKED: USER    NEWDPF axisangle0 0.063183 -0.188999 -0.979942 -161.452858
DOCKED: USER    NEWDPF quat0 0.063183 -0.188999 -0.979942 -161.452858
DOCKED: USER    NEWDPF dihe0 162.10 -42.73 -97.36 171.02 79.17 -153.99 -134.90 49.75 
DOCKED: USER  keepresnum = 1 
DOCKED: USER  
DOCKED: REMARK  Name = 
DOCKED: REMARK  9 active torsions:
DOCKED: REMARK  status: ('A' for Active; 'I' for Inactive)
DOCKED: REMARK    1  A    between atoms: C_2  and  C_3
DOCKED: REMARK    2  A    between atoms: C_4  and  C_5
DOCKED: REMARK    3  A    between atoms: C_8  and  C_9
DOCKED: REMARK    4  A    between atoms: C_9  and  N_10
DOCKED: REMARK    5  A    between atoms: N_10  and  C_11
DOCKED: REMARK    6  A    between atoms: C_11  and  C_12
DOCKED: REMARK    7  A    between atoms: C_12  and  C_13
DOCKED: REMARK    8  A    between atoms: C_14  and  C_22
DOCKED: REMARK    9  A    between atoms: N_25  and  O_26
DOCKED: REMARK                            x       y       z     vdW  Elec       q    Type
DOCKED: REMARK                         _______ _______ _______ _____ _____    ______ ____
DOCKED: USER                              x       y       z     vdW  Elec       q    Type
DOCKED: USER                           _______ _______ _______ _____ _____    ______ ____
DOCKED: ROOT
DOCKED: ATOM      1  N   UNL     1      17.737 -10.440  -3.505 -0.25 -0.00    +0.000 N 
DOCKED: ATOM      2  H   UNL     1      17.786 -10.615  -4.509 -0.01 -0.00    +0.000 HD
DOCKED: ATOM      3  H   UNL     1      17.431 -11.270  -2.998 +0.03 -0.00    +0.000 HD
DOCKED: ENDROOT
DOCKED: BRANCH   1   4
DOCKED: ATOM      4  C   UNL     1      16.756  -9.375  -3.259 -0.14 -0.00    +0.000 C 
DOCKED: BRANCH   4   8
DOCKED: ATOM      5  C   UNL     1      13.496 -10.858  -0.833 -0.28 +0.00    +0.000 A 
DOCKED: ATOM      6  C   UNL     1      13.885 -11.538  -2.004 -0.29 -0.00    +0.000 A 
DOCKED: ATOM      7  C   UNL     1      14.943 -11.059  -2.783 -0.25 -0.00    +0.000 A 
DOCKED: ATOM      8  C   UNL     1      15.645  -9.907  -2.398 -0.23 -0.00    +0.000 A 
DOCKED: ATOM      9  C   UNL     1      15.263  -9.228  -1.231 -0.18 -0.00    +0.000 A 
DOCKED: ATOM     10  C   UNL     1      14.206  -9.708  -0.451 -0.21 +0.00    +0.000 A 
DOCKED: BRANCH   5  12
DOCKED: ATOM     11  C   UNL     1      11.291 -10.606   0.301 -0.29 +0.00    +0.000 C 
DOCKED: ATOM     12  C   UNL     1      12.389 -11.330   0.036 -0.37 +0.00    +0.000 C 
DOCKED: BRANCH  11  14
DOCKED: ATOM     13  O   UNL     1       9.488 -10.222   1.764 -0.22 +0.00    +0.000 OA
DOCKED: ATOM     14  C   UNL     1      10.192 -11.079   1.169 -0.34 +0.00    +0.000 C 
DOCKED: ATOM     15  N   UNL     1       9.920 -12.472   1.374 -0.40 +0.00    +0.000 N 
DOCKED: ATOM     16  H   UNL     1      10.522 -13.151   0.993 -0.60 +0.00    +0.000 HD
DOCKED: BRANCH  15  17
DOCKED: ATOM     17  O   UNL     1       8.838 -12.856   2.093 -0.51 +0.00    +0.000 OA
DOCKED: ATOM     18  H   UNL     1       8.638 -13.786   1.907 -0.57 -0.00    +0.000 HD
DOCKED: ENDBRANCH  15  17
DOCKED: ENDBRANCH  11  14
DOCKED: ENDBRANCH   5  12
DOCKED: ENDBRANCH   4   8
DOCKED: ENDBRANCH   1   4
DOCKED: BRANCH   1  19
DOCKED: ATOM     19  C   UNL     1      19.079 -10.083  -3.019 -0.35 -0.00    +0.000 C 
DOCKED: BRANCH  19  20
DOCKED: ATOM     20  C   UNL     1      19.689 -11.175  -2.125 -0.25 -0.00    +0.000 C 
DOCKED: BRANCH  20  21
DOCKED: ATOM     21  C   UNL     1      19.468 -10.847  -0.677 -0.46 -0.00    +0.000 A 
DOCKED: ATOM     22  C   UNL     1      20.361 -10.229   0.202 -0.57 -0.00    +0.000 A 
DOCKED: ATOM     23  N   UNL     1      19.836 -10.161   1.447 -0.55 -0.00    +0.000 N 
DOCKED: ATOM     24  C   UNL     1      18.630 -10.750   1.371 -0.46 -0.00    +0.000 A 
DOCKED: ATOM     25  C   UNL     1      18.373 -11.187   0.095 -0.43 -0.00    +0.000 A 
DOCKED: ATOM     26  C   UNL     1      17.192 -11.855  -0.228 -0.41 +0.00    +0.000 A 
DOCKED: ATOM     27  C   UNL     1      16.253 -12.065   0.799 -0.43 +0.00    +0.000 A 
DOCKED: ATOM     28  C   UNL     1      16.516 -11.611   2.111 -0.35 +0.00    +0.000 A 
DOCKED: ATOM     29  C   UNL     1      17.719 -10.945   2.408 -0.45 +0.00    +0.000 A 
DOCKED: ATOM     30  C   UNL     1      21.704  -9.681  -0.161 -0.59 -0.00    +0.000 C 
DOCKED: ATOM     31  H   UNL     1      20.252  -9.762   2.245 -0.50 -0.00    +0.000 HD
DOCKED: ENDBRANCH  20  21
DOCKED: ENDBRANCH  19  20
DOCKED: ENDBRANCH   1  19
DOCKED: TORSDOF 8
DOCKED: TER
DOCKED: ENDMDL
________________________________________________________________________________


	BEGINNING GENETIC ALGORITHM DOCKING 62 of 100
Run: 62 Seed: 1900719848 578804515 [ Run 62 of 100 GA/GALS ]
Beginning LAMARCKIAN GENETIC ALGORITHM (LGA), with a maximum of 2500000 energy evaluations.

Final-Value: -13.235


	FINAL GENETIC ALGORITHM DOCKED STATE
	_______________________________________________


Detailed state:  trans 21.863 -8.375 -5.485 quatxyzw -0.041768 0.285428 0.633874 0.717628 center 0.698 0.076 -0.072 ntor 8 15.2930 53.0753 -64.6764 -122.7395 61.2562 162.3522 -179.9925 55.7219
State:	 21.863  -8.375  -5.485  -0.060  0.410  0.910 88.282     15.29   53.08  -64.68 -122.74   61.26  162.35 -179.99   55.72

DOCKED: MODEL       62
DOCKED: USER    Run = 62
DOCKED: USER    DPF = ligand_dock.biased.dpf
DOCKED: USER  
DOCKED: USER    Estimated Free Energy of Binding    =   -9.00 kcal/mol  [=(1)+(2)+(3)-(4)]
DOCKED: USER    Estimated Inhibition Constant, Ki   =  254.51 nM (nanomolar)  [Temperature = 298.15 K]
DOCKED: USER    
DOCKED: USER    (1) Final Intermolecular Energy     =  -11.38 kcal/mol
DOCKED: USER        vdW + Hbond + desolv Energy     =  -11.38 kcal/mol
DOCKED: USER        Electrostatic Energy            =   +0.00 kcal/mol
DOCKED: USER    (2) Final Total Internal Energy     =   -1.85 kcal/mol
DOCKED: USER    (3) Torsional Free Energy           =   +2.39 kcal/mol
DOCKED: USER    (4) Unbound System's Energy  [=(2)] =   -1.85 kcal/mol
DOCKED: USER    
DOCKED: USER    
DOCKED: USER    NEWDPF move ligand.pdbqt
DOCKED: USER    NEWDPF about 0.698000 0.076000 -0.072000
DOCKED: USER    NEWDPF tran0 21.863112 -8.375146 -5.484612
DOCKED: USER    NEWDPF quaternion0 -0.041768 0.285428 0.633874 0.717628
DOCKED: USER    NEWDPF axisangle0 -0.059975 0.409846 0.910181 88.282016
DOCKED: USER    NEWDPF quat0 -0.059975 0.409846 0.910181 88.282016
DOCKED: USER    NEWDPF dihe0 15.29 53.08 -64.68 -122.74 61.26 162.35 -179.99 55.72 
DOCKED: USER  keepresnum = 1 
DOCKED: USER  
DOCKED: REMARK  Name = 
DOCKED: REMARK  9 active torsions:
DOCKED: REMARK  status: ('A' for Active; 'I' for Inactive)
DOCKED: REMARK    1  A    between atoms: C_2  and  C_3
DOCKED: REMARK    2  A    between atoms: C_4  and  C_5
DOCKED: REMARK    3  A    between atoms: C_8  and  C_9
DOCKED: REMARK    4  A    between atoms: C_9  and  N_10
DOCKED: REMARK    5  A    between atoms: N_10  and  C_11
DOCKED: REMARK    6  A    between atoms: C_11  and  C_12
DOCKED: REMARK    7  A    between atoms: C_12  and  C_13
DOCKED: REMARK    8  A    between atoms: C_14  and  C_22
DOCKED: REMARK    9  A    between atoms: N_25  and  O_26
DOCKED: REMARK                            x       y       z     vdW  Elec       q    Type
DOCKED: REMARK                         _______ _______ _______ _____ _____    ______ ____
DOCKED: USER                              x       y       z     vdW  Elec       q    Type
DOCKED: USER                           _______ _______ _______ _____ _____    ______ ____
DOCKED: ROOT
DOCKED: ATOM      1  N   UNL     1      22.446  -7.409  -5.786 -0.19 -0.00    +0.000 N 
DOCKED: ATOM      2  H   UNL     1      22.719  -7.819  -6.679 -0.01 -0.00    +0.000 HD
DOCKED: ATOM      3  H   UNL     1      23.092  -7.675  -5.043 +0.01 -0.00    +0.000 HD
DOCKED: ENDROOT
DOCKED: BRANCH   1   4
DOCKED: ATOM      4  C   UNL     1      21.113  -7.909  -5.424 -0.21 -0.00    +0.000 C 
DOCKED: BRANCH   4   8
DOCKED: ATOM      5  C   UNL     1      21.175  -9.728  -1.500 -0.56 -0.00    +0.000 A 
DOCKED: ATOM      6  C   UNL     1      21.274 -10.521  -2.660 -0.49 -0.00    +0.000 A 
DOCKED: ATOM      7  C   UNL     1      21.260  -9.930  -3.927 -0.42 -0.00    +0.000 A 
DOCKED: ATOM      8  C   UNL     1      21.167  -8.537  -4.060 -0.32 -0.00    +0.000 A 
DOCKED: ATOM      9  C   UNL     1      21.071  -7.742  -2.908 -0.38 -0.00    +0.000 A 
DOCKED: ATOM     10  C   UNL     1      21.087  -8.333  -1.641 -0.44 -0.00    +0.000 A 
DOCKED: BRANCH   5  12
DOCKED: ATOM     11  C   UNL     1      20.104 -10.741   0.509 -0.65 -0.00    +0.000 C 
DOCKED: ATOM     12  C   UNL     1      21.198 -10.303  -0.132 -0.71 -0.00    +0.000 C 
DOCKED: BRANCH  11  14
DOCKED: ATOM     13  O   UNL     1      19.897 -12.540   2.013 -1.64 -0.00    +0.000 OA
DOCKED: ATOM     14  C   UNL     1      20.131 -11.311   1.873 -0.75 -0.00    +0.000 C 
DOCKED: ATOM     15  N   UNL     1      20.387 -10.510   3.035 -0.66 -0.00    +0.000 N 
DOCKED: ATOM     16  H   UNL     1      20.474  -9.533   2.949 -0.57 -0.00    +0.000 HD
DOCKED: BRANCH  15  17
DOCKED: ATOM     17  O   UNL     1      20.506 -11.094   4.251 -0.70 -0.00    +0.000 OA
DOCKED: ATOM     18  H   UNL     1      20.636 -12.049   4.140 -0.51 -0.00    +0.000 HD
DOCKED: ENDBRANCH  15  17
DOCKED: ENDBRANCH  11  14
DOCKED: ENDBRANCH   5  12
DOCKED: ENDBRANCH   4   8
DOCKED: ENDBRANCH   1   4
DOCKED: BRANCH   1  19
DOCKED: ATOM     19  C   UNL     1      22.476  -5.943  -5.908 -0.13 -0.00    +0.000 C 
DOCKED: BRANCH  19  20
DOCKED: ATOM     20  C   UNL     1      22.708  -5.247  -4.556 -0.17 -0.00    +0.000 C 
DOCKED: BRANCH  20  21
DOCKED: ATOM     21  C   UNL     1      21.501  -4.442  -4.170 -0.13 -0.00    +0.000 A 
DOCKED: ATOM     22  C   UNL     1      20.597  -3.802  -5.021 -0.06 -0.00    +0.000 A 
DOCKED: ATOM     23  N   UNL     1      19.674  -3.115  -4.309 -0.08 -0.00    +0.000 N 
DOCKED: ATOM     24  C   UNL     1      19.997  -3.296  -3.017 -0.15 -0.00    +0.000 A 
DOCKED: ATOM     25  C   UNL     1      21.108  -4.092  -2.892 -0.22 -0.00    +0.000 A 
DOCKED: ATOM     26  C   UNL     1      21.653  -4.401  -1.645 -0.37 +0.00    +0.000 A 
DOCKED: ATOM     27  C   UNL     1      21.021  -3.876  -0.503 -0.35 +0.00    +0.000 A 
DOCKED: ATOM     28  C   UNL     1      19.874  -3.061  -0.632 -0.33 -0.00    +0.000 A 
DOCKED: ATOM     29  C   UNL     1      19.351  -2.762  -1.903 -0.16 -0.00    +0.000 A 
DOCKED: ATOM     30  C   UNL     1      20.605  -3.872  -6.515 -0.03 -0.00    +0.000 C 
DOCKED: ATOM     31  H   UNL     1      18.919  -2.592  -4.665 +0.00 -0.00    +0.000 HD
DOCKED: ENDBRANCH  20  21
DOCKED: ENDBRANCH  19  20
DOCKED: ENDBRANCH   1  19
DOCKED: TORSDOF 8
DOCKED: TER
DOCKED: ENDMDL
________________________________________________________________________________


	BEGINNING GENETIC ALGORITHM DOCKING 63 of 100
Run: 63 Seed: 388729742 963376988 [ Run 63 of 100 GA/GALS ]
Beginning LAMARCKIAN GENETIC ALGORITHM (LGA), with a maximum of 2500000 energy evaluations.

Final-Value: -13.412


	FINAL GENETIC ALGORITHM DOCKED STATE
	_______________________________________________


Detailed state:  trans 21.775 -8.678 -4.596 quatxyzw 0.708499 0.181478 -0.449973 -0.512464 center 0.698 0.076 -0.072 ntor 8 176.1647 -35.0052 -79.9290 -35.1713 39.4066 178.5728 178.3430 35.5258
State:	 21.775  -8.678  -4.596   0.825  0.211 -0.524 -118.344    176.16  -35.01  -79.93  -35.17   39.41  178.57  178.34   35.53

DOCKED: MODEL       63
DOCKED: USER    Run = 63
DOCKED: USER    DPF = ligand_dock.biased.dpf
DOCKED: USER  
DOCKED: USER    Estimated Free Energy of Binding    =   -9.84 kcal/mol  [=(1)+(2)+(3)-(4)]
DOCKED: USER    Estimated Inhibition Constant, Ki   =   61.78 nM (nanomolar)  [Temperature = 298.15 K]
DOCKED: USER    
DOCKED: USER    (1) Final Intermolecular Energy     =  -12.22 kcal/mol
DOCKED: USER        vdW + Hbond + desolv Energy     =  -12.22 kcal/mol
DOCKED: USER        Electrostatic Energy            =   +0.00 kcal/mol
DOCKED: USER    (2) Final Total Internal Energy     =   -1.19 kcal/mol
DOCKED: USER    (3) Torsional Free Energy           =   +2.39 kcal/mol
DOCKED: USER    (4) Unbound System's Energy  [=(2)] =   -1.19 kcal/mol
DOCKED: USER    
DOCKED: USER    
DOCKED: USER    NEWDPF move ligand.pdbqt
DOCKED: USER    NEWDPF about 0.698000 0.076000 -0.072000
DOCKED: USER    NEWDPF tran0 21.775048 -8.678151 -4.596463
DOCKED: USER    NEWDPF quaternion0 0.708499 0.181478 -0.449973 -0.512464
DOCKED: USER    NEWDPF axisangle0 0.825075 0.211339 -0.524011 -118.343854
DOCKED: USER    NEWDPF quat0 0.825075 0.211339 -0.524011 -118.343854
DOCKED: USER    NEWDPF dihe0 176.16 -35.01 -79.93 -35.17 39.41 178.57 178.34 35.53 
DOCKED: USER  keepresnum = 1 
DOCKED: USER  
DOCKED: REMARK  Name = 
DOCKED: REMARK  9 active torsions:
DOCKED: REMARK  status: ('A' for Active; 'I' for Inactive)
DOCKED: REMARK    1  A    between atoms: C_2  and  C_3
DOCKED: REMARK    2  A    between atoms: C_4  and  C_5
DOCKED: REMARK    3  A    between atoms: C_8  and  C_9
DOCKED: REMARK    4  A    between atoms: C_9  and  N_10
DOCKED: REMARK    5  A    between atoms: N_10  and  C_11
DOCKED: REMARK    6  A    between atoms: C_11  and  C_12
DOCKED: REMARK    7  A    between atoms: C_12  and  C_13
DOCKED: REMARK    8  A    between atoms: C_14  and  C_22
DOCKED: REMARK    9  A    between atoms: N_25  and  O_26
DOCKED: REMARK                            x       y       z     vdW  Elec       q    Type
DOCKED: REMARK                         _______ _______ _______ _____ _____    ______ ____
DOCKED: USER                              x       y       z     vdW  Elec       q    Type
DOCKED: USER                           _______ _______ _______ _____ _____    ______ ____
DOCKED: ROOT
DOCKED: ATOM      1  N   UNL     1      21.768  -8.508  -3.441 -0.37 -0.00    +0.000 N 
DOCKED: ATOM      2  H   UNL     1      22.103  -7.550  -3.552 -0.03 -0.00    +0.000 HD
DOCKED: ATOM      3  H   UNL     1      22.542  -9.172  -3.429 -0.02 -0.00    +0.000 HD
DOCKED: ENDROOT
DOCKED: BRANCH   1   4
DOCKED: ATOM      4  C   UNL     1      20.905  -8.843  -4.581 -0.32 -0.00    +0.000 C 
DOCKED: BRANCH   4   8
DOCKED: ATOM      5  C   UNL     1      22.969 -11.454  -7.345 -0.42 -0.00    +0.000 A 
DOCKED: ATOM      6  C   UNL     1      22.884 -10.069  -7.593 -0.25 -0.00    +0.000 A 
DOCKED: ATOM      7  C   UNL     1      22.222  -9.227  -6.695 -0.22 -0.00    +0.000 A 
DOCKED: ATOM      8  C   UNL     1      21.650  -9.746  -5.524 -0.31 -0.00    +0.000 A 
DOCKED: ATOM      9  C   UNL     1      21.734 -11.123  -5.271 -0.48 -0.00    +0.000 A 
DOCKED: ATOM     10  C   UNL     1      22.398 -11.965  -6.168 -0.36 -0.00    +0.000 A 
DOCKED: BRANCH   5  12
DOCKED: ATOM     11  C   UNL     1      23.040 -13.201  -9.121 -0.34 -0.00    +0.000 C 
DOCKED: ATOM     12  C   UNL     1      23.671 -12.390  -8.258 -0.48 -0.00    +0.000 C 
DOCKED: BRANCH  11  14
DOCKED: ATOM     13  O   UNL     1      23.093 -15.089 -10.525 -0.64 +0.00    +0.000 OA
DOCKED: ATOM     14  C   UNL     1      23.743 -14.133 -10.027 -0.38 -0.00    +0.000 C 
DOCKED: ATOM     15  N   UNL     1      25.138 -14.001 -10.333 -0.37 -0.00    +0.000 N 
DOCKED: ATOM     16  H   UNL     1      25.679 -13.318  -9.875 -0.48 -0.00    +0.000 HD
DOCKED: BRANCH  15  17
DOCKED: ATOM     17  O   UNL     1      25.713 -14.815 -11.251 -0.35 -0.00    +0.000 OA
DOCKED: ATOM     18  H   UNL     1      26.638 -14.555 -11.381 -0.56 -0.00    +0.000 HD
DOCKED: ENDBRANCH  15  17
DOCKED: ENDBRANCH  11  14
DOCKED: ENDBRANCH   5  12
DOCKED: ENDBRANCH   4   8
DOCKED: ENDBRANCH   1   4
DOCKED: BRANCH   1  19
DOCKED: ATOM     19  C   UNL     1      21.059  -8.616  -2.156 -0.51 -0.00    +0.000 C 
DOCKED: BRANCH  19  20
DOCKED: ATOM     20  C   UNL     1      21.399  -9.916  -1.407 -0.63 -0.00    +0.000 C 
DOCKED: BRANCH  20  21
DOCKED: ATOM     21  C   UNL     1      20.154 -10.528  -0.833 -0.52 -0.00    +0.000 A 
DOCKED: ATOM     22  C   UNL     1      18.995 -10.899  -1.518 -0.40 -0.00    +0.000 A 
DOCKED: ATOM     23  N   UNL     1      18.055 -11.354  -0.657 -0.40 -0.00    +0.000 N 
DOCKED: ATOM     24  C   UNL     1      18.600 -11.254   0.567 -0.47 -0.00    +0.000 A 
DOCKED: ATOM     25  C   UNL     1      19.874 -10.748   0.502 -0.56 -0.00    +0.000 A 
DOCKED: ATOM     26  C   UNL     1      20.636 -10.527   1.650 -0.50 -0.00    +0.000 A 
DOCKED: ATOM     27  C   UNL     1      20.060 -10.848   2.893 -0.65 -0.00    +0.000 A 
DOCKED: ATOM     28  C   UNL     1      18.750 -11.373   2.960 -0.42 -0.00    +0.000 A 
DOCKED: ATOM     29  C   UNL     1      18.004 -11.580   1.785 -0.43 -0.00    +0.000 A 
DOCKED: ATOM     30  C   UNL     1      18.800 -10.841  -3.000 -0.33 -0.00    +0.000 C 
DOCKED: ATOM     31  H   UNL     1      17.157 -11.691  -0.883 -0.01 -0.00    +0.000 HD
DOCKED: ENDBRANCH  20  21
DOCKED: ENDBRANCH  19  20
DOCKED: ENDBRANCH   1  19
DOCKED: TORSDOF 8
DOCKED: TER
DOCKED: ENDMDL
________________________________________________________________________________


	BEGINNING GENETIC ALGORITHM DOCKING 64 of 100
Run: 64 Seed: 1764805752 294368899 [ Run 64 of 100 GA/GALS ]
Beginning LAMARCKIAN GENETIC ALGORITHM (LGA), with a maximum of 2500000 energy evaluations.

Final-Value: -14.417


	FINAL GENETIC ALGORITHM DOCKED STATE
	_______________________________________________


Detailed state:  trans 20.045 -10.139 1.505 quatxyzw -0.057835 0.786825 -0.524556 0.320004 center 0.698 0.076 -0.072 ntor 8 60.7474 -2.2284 -78.5940 43.2863 -74.8529 176.7947 8.8012 55.5797
State:	 20.045 -10.139   1.505  -0.061  0.830 -0.554 142.674     60.75   -2.23  -78.59   43.29  -74.85  176.79    8.80   55.58

DOCKED: MODEL       64
DOCKED: USER    Run = 64
DOCKED: USER    DPF = ligand_dock.biased.dpf
DOCKED: USER  
DOCKED: USER    Estimated Free Energy of Binding    =  -10.74 kcal/mol  [=(1)+(2)+(3)-(4)]
DOCKED: USER    Estimated Inhibition Constant, Ki   =   13.38 nM (nanomolar)  [Temperature = 298.15 K]
DOCKED: USER    
DOCKED: USER    (1) Final Intermolecular Energy     =  -13.13 kcal/mol
DOCKED: USER        vdW + Hbond + desolv Energy     =  -13.13 kcal/mol
DOCKED: USER        Electrostatic Energy            =   +0.00 kcal/mol
DOCKED: USER    (2) Final Total Internal Energy     =   -1.29 kcal/mol
DOCKED: USER    (3) Torsional Free Energy           =   +2.39 kcal/mol
DOCKED: USER    (4) Unbound System's Energy  [=(2)] =   -1.29 kcal/mol
DOCKED: USER    
DOCKED: USER    
DOCKED: USER    NEWDPF move ligand.pdbqt
DOCKED: USER    NEWDPF about 0.698000 0.076000 -0.072000
DOCKED: USER    NEWDPF tran0 20.045375 -10.138956 1.504949
DOCKED: USER    NEWDPF quaternion0 -0.057835 0.786825 -0.524556 0.320004
DOCKED: USER    NEWDPF axisangle0 -0.061045 0.830496 -0.553670 142.673645
DOCKED: USER    NEWDPF quat0 -0.061045 0.830496 -0.553670 142.673645
DOCKED: USER    NEWDPF dihe0 60.75 -2.23 -78.59 43.29 -74.85 176.79 8.80 55.58 
DOCKED: USER  keepresnum = 1 
DOCKED: USER  
DOCKED: REMARK  Name = 
DOCKED: REMARK  9 active torsions:
DOCKED: REMARK  status: ('A' for Active; 'I' for Inactive)
DOCKED: REMARK    1  A    between atoms: C_2  and  C_3
DOCKED: REMARK    2  A    between atoms: C_4  and  C_5
DOCKED: REMARK    3  A    between atoms: C_8  and  C_9
DOCKED: REMARK    4  A    between atoms: C_9  and  N_10
DOCKED: REMARK    5  A    between atoms: N_10  and  C_11
DOCKED: REMARK    6  A    between atoms: C_11  and  C_12
DOCKED: REMARK    7  A    between atoms: C_12  and  C_13
DOCKED: REMARK    8  A    between atoms: C_14  and  C_22
DOCKED: REMARK    9  A    between atoms: N_25  and  O_26
DOCKED: REMARK                            x       y       z     vdW  Elec       q    Type
DOCKED: REMARK                         _______ _______ _______ _____ _____    ______ ____
DOCKED: USER                              x       y       z     vdW  Elec       q    Type
DOCKED: USER                           _______ _______ _______ _____ _____    ______ ____
DOCKED: ROOT
DOCKED: ATOM      1  N   UNL     1      20.682  -9.929   0.548 -0.60 -0.00    +0.000 N 
DOCKED: ATOM      2  H   UNL     1      21.156  -9.147   1.002 -0.43 -0.00    +0.000 HD
DOCKED: ATOM      3  H   UNL     1      19.798  -9.635   0.134 -0.03 -0.00    +0.000 HD
DOCKED: ENDROOT
DOCKED: BRANCH   1   4
DOCKED: ATOM      4  C   UNL     1      20.388 -10.954   1.558 -0.72 -0.00    +0.000 C 
DOCKED: BRANCH   4   8
DOCKED: ATOM      5  C   UNL     1      16.143 -11.780   1.446 -0.40 +0.00    +0.000 A 
DOCKED: ATOM      6  C   UNL     1      17.041 -12.530   0.660 -0.45 +0.00    +0.000 A 
DOCKED: ATOM      7  C   UNL     1      18.413 -12.264   0.704 -0.49 -0.00    +0.000 A 
DOCKED: ATOM      8  C   UNL     1      18.917 -11.261   1.545 -0.53 -0.00    +0.000 A 
DOCKED: ATOM      9  C   UNL     1      18.027 -10.514   2.332 -0.47 -0.00    +0.000 A 
DOCKED: ATOM     10  C   UNL     1      16.655 -10.781   2.290 -0.41 +0.00    +0.000 A 
DOCKED: BRANCH   5  12
DOCKED: ATOM     11  C   UNL     1      13.797 -11.279   0.773 -0.39 +0.00    +0.000 C 
DOCKED: ATOM     12  C   UNL     1      14.680 -12.029   1.448 -0.49 +0.00    +0.000 C 
DOCKED: BRANCH  11  14
DOCKED: ATOM     13  O   UNL     1      11.628 -10.947  -0.081 -0.34 +0.00    +0.000 OA
DOCKED: ATOM     14  C   UNL     1      12.340 -11.528   0.780 -0.42 +0.00    +0.000 C 
DOCKED: ATOM     15  N   UNL     1      11.712 -12.386   1.744 -0.39 +0.00    +0.000 N 
DOCKED: ATOM     16  H   UNL     1      12.242 -12.769   2.479 -0.59 +0.00    +0.000 HD
DOCKED: BRANCH  15  17
DOCKED: ATOM     17  O   UNL     1      10.391 -12.667   1.644 -0.57 +0.00    +0.000 OA
DOCKED: ATOM     18  H   UNL     1      10.217 -13.115   0.802 -0.59 -0.00    +0.000 HD
DOCKED: ENDBRANCH  15  17
DOCKED: ENDBRANCH  11  14
DOCKED: ENDBRANCH   5  12
DOCKED: ENDBRANCH   4   8
DOCKED: ENDBRANCH   1   4
DOCKED: BRANCH   1  19
DOCKED: ATOM     19  C   UNL     1      21.539 -10.442  -0.531 -0.69 -0.00    +0.000 C 
DOCKED: BRANCH  19  20
DOCKED: ATOM     20  C   UNL     1      20.738 -10.814  -1.790 -0.44 -0.00    +0.000 C 
DOCKED: BRANCH  20  21
DOCKED: ATOM     21  C   UNL     1      21.011  -9.830  -2.892 -0.48 -0.00    +0.000 A 
DOCKED: ATOM     22  C   UNL     1      21.273 -10.107  -4.235 -0.41 -0.00    +0.000 A 
DOCKED: ATOM     23  N   UNL     1      21.538  -8.968  -4.915 -0.30 -0.00    +0.000 N 
DOCKED: ATOM     24  C   UNL     1      21.468  -7.975  -4.012 -0.29 -0.00    +0.000 A 
DOCKED: ATOM     25  C   UNL     1      21.156  -8.461  -2.767 -0.41 -0.00    +0.000 A 
DOCKED: ATOM     26  C   UNL     1      21.053  -7.623  -1.656 -0.35 -0.00    +0.000 A 
DOCKED: ATOM     27  C   UNL     1      21.271  -6.246  -1.849 -0.38 -0.00    +0.000 A 
DOCKED: ATOM     28  C   UNL     1      21.587  -5.745  -3.132 -0.31 -0.00    +0.000 A 
DOCKED: ATOM     29  C   UNL     1      21.690  -6.616  -4.232 -0.23 -0.00    +0.000 A 
DOCKED: ATOM     30  C   UNL     1      21.242 -11.461  -4.869 -0.51 -0.00    +0.000 C 
DOCKED: ATOM     31  H   UNL     1      21.739  -8.884  -5.876 -0.00 -0.00    +0.000 HD
DOCKED: ENDBRANCH  20  21
DOCKED: ENDBRANCH  19  20
DOCKED: ENDBRANCH   1  19
DOCKED: TORSDOF 8
DOCKED: TER
DOCKED: ENDMDL
________________________________________________________________________________


	BEGINNING GENETIC ALGORITHM DOCKING 65 of 100
Run: 65 Seed: 2060287238 574160367 [ Run 65 of 100 GA/GALS ]
Beginning LAMARCKIAN GENETIC ALGORITHM (LGA), with a maximum of 2500000 energy evaluations.

Final-Value: -15.204


	FINAL GENETIC ALGORITHM DOCKED STATE
	_______________________________________________


Detailed state:  trans 20.574 -10.625 -5.914 quatxyzw 0.440041 0.142831 0.871271 0.163860 center 0.698 0.076 -0.072 ntor 8 34.9384 -140.0427 -165.0630 -174.5220 -9.3958 -175.9897 -160.1372 30.6416
State:	 20.574 -10.625  -5.914   0.446  0.145  0.883 161.138     34.94 -140.04 -165.06 -174.52   -9.40 -175.99 -160.14   30.64

DOCKED: MODEL       65
DOCKED: USER    Run = 65
DOCKED: USER    DPF = ligand_dock.biased.dpf
DOCKED: USER  
DOCKED: USER    Estimated Free Energy of Binding    =  -11.52 kcal/mol  [=(1)+(2)+(3)-(4)]
DOCKED: USER    Estimated Inhibition Constant, Ki   =    3.57 nM (nanomolar)  [Temperature = 298.15 K]
DOCKED: USER    
DOCKED: USER    (1) Final Intermolecular Energy     =  -13.91 kcal/mol
DOCKED: USER        vdW + Hbond + desolv Energy     =  -13.91 kcal/mol
DOCKED: USER        Electrostatic Energy            =   +0.00 kcal/mol
DOCKED: USER    (2) Final Total Internal Energy     =   -1.29 kcal/mol
DOCKED: USER    (3) Torsional Free Energy           =   +2.39 kcal/mol
DOCKED: USER    (4) Unbound System's Energy  [=(2)] =   -1.29 kcal/mol
DOCKED: USER    
DOCKED: USER    
DOCKED: USER    NEWDPF move ligand.pdbqt
DOCKED: USER    NEWDPF about 0.698000 0.076000 -0.072000
DOCKED: USER    NEWDPF tran0 20.574102 -10.624983 -5.914069
DOCKED: USER    NEWDPF quaternion0 0.440041 0.142831 0.871271 0.163860
DOCKED: USER    NEWDPF axisangle0 0.446070 0.144788 0.883209 161.137970
DOCKED: USER    NEWDPF quat0 0.446070 0.144788 0.883209 161.137970
DOCKED: USER    NEWDPF dihe0 34.94 -140.04 -165.06 -174.52 -9.40 -175.99 -160.14 30.64 
DOCKED: USER  keepresnum = 1 
DOCKED: USER  
DOCKED: REMARK  Name = 
DOCKED: REMARK  9 active torsions:
DOCKED: REMARK  status: ('A' for Active; 'I' for Inactive)
DOCKED: REMARK    1  A    between atoms: C_2  and  C_3
DOCKED: REMARK    2  A    between atoms: C_4  and  C_5
DOCKED: REMARK    3  A    between atoms: C_8  and  C_9
DOCKED: REMARK    4  A    between atoms: C_9  and  N_10
DOCKED: REMARK    5  A    between atoms: N_10  and  C_11
DOCKED: REMARK    6  A    between atoms: C_11  and  C_12
DOCKED: REMARK    7  A    between atoms: C_12  and  C_13
DOCKED: REMARK    8  A    between atoms: C_14  and  C_22
DOCKED: REMARK    9  A    between atoms: N_25  and  O_26
DOCKED: REMARK                            x       y       z     vdW  Elec       q    Type
DOCKED: REMARK                         _______ _______ _______ _____ _____    ______ ____
DOCKED: USER                              x       y       z     vdW  Elec       q    Type
DOCKED: USER                           _______ _______ _______ _____ _____    ______ ____
DOCKED: ROOT
DOCKED: ATOM      1  N   UNL     1      21.200 -11.078  -6.790 -0.27 -0.00    +0.000 N 
DOCKED: ATOM      2  H   UNL     1      20.354 -11.287  -7.322 -0.18 -0.00    +0.000 HD
DOCKED: ATOM      3  H   UNL     1      21.416 -11.825  -6.130 -0.39 -0.00    +0.000 HD
DOCKED: ENDROOT
DOCKED: BRANCH   1   4
DOCKED: ATOM      4  C   UNL     1      20.981  -9.846  -6.021 -0.30 -0.00    +0.000 C 
DOCKED: BRANCH   4   8
DOCKED: ATOM      5  C   UNL     1      19.978 -10.768  -1.915 -0.40 -0.00    +0.000 A 
DOCKED: ATOM      6  C   UNL     1      19.014 -10.897  -2.936 -0.33 -0.00    +0.000 A 
DOCKED: ATOM      7  C   UNL     1      19.344 -10.604  -4.262 -0.35 -0.00    +0.000 A 
DOCKED: ATOM      8  C   UNL     1      20.643 -10.197  -4.599 -0.37 -0.00    +0.000 A 
DOCKED: ATOM      9  C   UNL     1      21.607 -10.070  -3.587 -0.39 -0.00    +0.000 A 
DOCKED: ATOM     10  C   UNL     1      21.278 -10.365  -2.261 -0.50 -0.00    +0.000 A 
DOCKED: BRANCH   5  12
DOCKED: ATOM     11  C   UNL     1      20.619 -11.108   0.469 -0.69 -0.00    +0.000 C 
DOCKED: ATOM     12  C   UNL     1      19.685 -11.078  -0.494 -0.53 -0.00    +0.000 C 
DOCKED: BRANCH  11  14
DOCKED: ATOM     13  O   UNL     1      19.749 -12.507   2.149 -1.58 -0.00    +0.000 OA
DOCKED: ATOM     14  C   UNL     1      20.324 -11.419   1.883 -0.77 -0.00    +0.000 C 
DOCKED: ATOM     15  N   UNL     1      20.645 -10.517   2.951 -0.62 -0.00    +0.000 N 
DOCKED: ATOM     16  H   UNL     1      21.005  -9.624   2.749 -0.58 -0.00    +0.000 HD
DOCKED: BRANCH  15  17
DOCKED: ATOM     17  O   UNL     1      20.451 -10.892   4.239 -0.75 -0.00    +0.000 OA
DOCKED: ATOM     18  H   UNL     1      20.636 -11.839   4.332 -0.45 -0.00    +0.000 HD
DOCKED: ENDBRANCH  15  17
DOCKED: ENDBRANCH  11  14
DOCKED: ENDBRANCH   5  12
DOCKED: ENDBRANCH   4   8
DOCKED: ENDBRANCH   1   4
DOCKED: BRANCH   1  19
DOCKED: ATOM     19  C   UNL     1      22.330 -10.958  -7.724 -0.35 -0.00    +0.000 C 
DOCKED: BRANCH  19  20
DOCKED: ATOM     20  C   UNL     1      23.562 -11.753  -7.260 -0.52 -0.00    +0.000 C 
DOCKED: BRANCH  20  21
DOCKED: ATOM     21  C   UNL     1      24.637 -11.707  -8.307 -0.41 -0.00    +0.000 A 
DOCKED: ATOM     22  C   UNL     1      24.753 -12.511  -9.443 -0.36 -0.00    +0.000 A 
DOCKED: ATOM     23  N   UNL     1      25.891 -12.224 -10.117 -0.19 -0.00    +0.000 N 
DOCKED: ATOM     24  C   UNL     1      26.507 -11.264  -9.407 -0.29 -0.00    +0.000 A 
DOCKED: ATOM     25  C   UNL     1      25.778 -10.927  -8.294 -0.36 -0.00    +0.000 A 
DOCKED: ATOM     26  C   UNL     1      26.227  -9.969  -7.384 -0.26 -0.00    +0.000 A 
DOCKED: ATOM     27  C   UNL     1      27.459  -9.342  -7.645 -0.36 -0.00    +0.000 A 
DOCKED: ATOM     28  C   UNL     1      28.207  -9.685  -8.793 -0.29 -0.00    +0.000 A 
DOCKED: ATOM     29  C   UNL     1      27.731 -10.659  -9.690 -0.26 -0.00    +0.000 A 
DOCKED: ATOM     30  C   UNL     1      23.759 -13.532  -9.895 -0.43 -0.00    +0.000 C 
DOCKED: ATOM     31  H   UNL     1      26.203 -12.635 -10.956 -0.36 -0.00    +0.000 HD
DOCKED: ENDBRANCH  20  21
DOCKED: ENDBRANCH  19  20
DOCKED: ENDBRANCH   1  19
DOCKED: TORSDOF 8
DOCKED: TER
DOCKED: ENDMDL
________________________________________________________________________________


	BEGINNING GENETIC ALGORITHM DOCKING 66 of 100
Run: 66 Seed: 109295416 200003855 [ Run 66 of 100 GA/GALS ]
Beginning LAMARCKIAN GENETIC ALGORITHM (LGA), with a maximum of 2500000 energy evaluations.

Final-Value: -14.130


	FINAL GENETIC ALGORITHM DOCKED STATE
	_______________________________________________


Detailed state:  trans 22.017 -9.561 -4.990 quatxyzw 0.666932 0.622847 0.048599 0.406080 center 0.698 0.076 -0.072 ntor 8 -6.5728 87.1983 155.8402 -2.1901 -94.6219 171.4854 -179.4483 -67.2151
State:	 22.017  -9.561  -4.990   0.730  0.682  0.053 132.082     -6.57   87.20  155.84   -2.19  -94.62  171.49 -179.45  -67.22

DOCKED: MODEL       66
DOCKED: USER    Run = 66
DOCKED: USER    DPF = ligand_dock.biased.dpf
DOCKED: USER  
DOCKED: USER    Estimated Free Energy of Binding    =  -10.10 kcal/mol  [=(1)+(2)+(3)-(4)]
DOCKED: USER    Estimated Inhibition Constant, Ki   =   39.60 nM (nanomolar)  [Temperature = 298.15 K]
DOCKED: USER    
DOCKED: USER    (1) Final Intermolecular Energy     =  -12.48 kcal/mol
DOCKED: USER        vdW + Hbond + desolv Energy     =  -12.48 kcal/mol
DOCKED: USER        Electrostatic Energy            =   +0.00 kcal/mol
DOCKED: USER    (2) Final Total Internal Energy     =   -1.65 kcal/mol
DOCKED: USER    (3) Torsional Free Energy           =   +2.39 kcal/mol
DOCKED: USER    (4) Unbound System's Energy  [=(2)] =   -1.65 kcal/mol
DOCKED: USER    
DOCKED: USER    
DOCKED: USER    NEWDPF move ligand.pdbqt
DOCKED: USER    NEWDPF about 0.698000 0.076000 -0.072000
DOCKED: USER    NEWDPF tran0 22.016688 -9.560761 -4.989518
DOCKED: USER    NEWDPF quaternion0 0.666932 0.622847 0.048599 0.406080
DOCKED: USER    NEWDPF axisangle0 0.729815 0.681573 0.053181 132.082358
DOCKED: USER    NEWDPF quat0 0.729815 0.681573 0.053181 132.082358
DOCKED: USER    NEWDPF dihe0 -6.57 87.20 155.84 -2.19 -94.62 171.49 -179.45 -67.22 
DOCKED: USER  keepresnum = 1 
DOCKED: USER  
DOCKED: REMARK  Name = 
DOCKED: REMARK  9 active torsions:
DOCKED: REMARK  status: ('A' for Active; 'I' for Inactive)
DOCKED: REMARK    1  A    between atoms: C_2  and  C_3
DOCKED: REMARK    2  A    between atoms: C_4  and  C_5
DOCKED: REMARK    3  A    between atoms: C_8  and  C_9
DOCKED: REMARK    4  A    between atoms: C_9  and  N_10
DOCKED: REMARK    5  A    between atoms: N_10  and  C_11
DOCKED: REMARK    6  A    between atoms: C_11  and  C_12
DOCKED: REMARK    7  A    between atoms: C_12  and  C_13
DOCKED: REMARK    8  A    between atoms: C_14  and  C_22
DOCKED: REMARK    9  A    between atoms: N_25  and  O_26
DOCKED: REMARK                            x       y       z     vdW  Elec       q    Type
DOCKED: REMARK                         _______ _______ _______ _____ _____    ______ ____
DOCKED: USER                              x       y       z     vdW  Elec       q    Type
DOCKED: USER                           _______ _______ _______ _____ _____    ______ ____
DOCKED: ROOT
DOCKED: ATOM      1  N   UNL     1      22.402 -10.421  -5.679 -0.33 -0.00    +0.000 N 
DOCKED: ATOM      2  H   UNL     1      22.670 -10.985  -4.872 -0.02 -0.00    +0.000 HD
DOCKED: ATOM      3  H   UNL     1      23.139  -9.765  -5.935 -0.02 -0.00    +0.000 HD
DOCKED: ENDROOT
DOCKED: BRANCH   1   4
DOCKED: ATOM      4  C   UNL     1      21.205  -9.642  -5.334 -0.34 -0.00    +0.000 C 
DOCKED: BRANCH   4   8
DOCKED: ATOM      5  C   UNL     1      20.049 -10.355  -1.227 -0.48 -0.00    +0.000 A 
DOCKED: ATOM      6  C   UNL     1      19.430 -11.060  -2.279 -0.33 -0.00    +0.000 A 
DOCKED: ATOM      7  C   UNL     1      19.811 -10.831  -3.605 -0.41 -0.00    +0.000 A 
DOCKED: ATOM      8  C   UNL     1      20.828  -9.913  -3.905 -0.40 -0.00    +0.000 A 
DOCKED: ATOM      9  C   UNL     1      21.449  -9.211  -2.860 -0.41 -0.00    +0.000 A 
DOCKED: ATOM     10  C   UNL     1      21.071  -9.441  -1.534 -0.54 -0.00    +0.000 A 
DOCKED: BRANCH   5  12
DOCKED: ATOM     11  C   UNL     1      20.598 -10.734   1.175 -0.69 -0.00    +0.000 C 
DOCKED: ATOM     12  C   UNL     1      19.693 -10.569   0.198 -0.58 -0.00    +0.000 C 
DOCKED: BRANCH  11  14
DOCKED: ATOM     13  O   UNL     1      19.862  -9.957   3.271 -0.61 -0.00    +0.000 OA
DOCKED: ATOM     14  C   UNL     1      20.239 -10.948   2.592 -0.75 -0.00    +0.000 C 
DOCKED: ATOM     15  N   UNL     1      20.330 -12.234   3.221 -0.65 -0.00    +0.000 N 
DOCKED: ATOM     16  H   UNL     1      20.714 -12.995   2.730 -0.59 -0.00    +0.000 HD
DOCKED: BRANCH  15  17
DOCKED: ATOM     17  O   UNL     1      19.889 -12.402   4.491 -0.64 -0.00    +0.000 OA
DOCKED: ATOM     18  H   UNL     1      19.640 -11.542   4.864 -0.03 -0.00    +0.000 HD
DOCKED: ENDBRANCH  15  17
DOCKED: ENDBRANCH  11  14
DOCKED: ENDBRANCH   5  12
DOCKED: ENDBRANCH   4   8
DOCKED: ENDBRANCH   1   4
DOCKED: BRANCH   1  19
DOCKED: ATOM     19  C   UNL     1      22.172 -11.314  -6.826 -0.39 -0.00    +0.000 C 
DOCKED: BRANCH  19  20
DOCKED: ATOM     20  C   UNL     1      22.601 -10.677  -8.159 -0.30 -0.00    +0.000 C 
DOCKED: BRANCH  20  21
DOCKED: ATOM     21  C   UNL     1      24.043 -10.983  -8.444 -0.31 -0.00    +0.000 A 
DOCKED: ATOM     22  C   UNL     1      24.560 -12.082  -9.134 -0.37 -0.00    +0.000 A 
DOCKED: ATOM     23  N   UNL     1      25.913 -12.055  -9.132 -0.38 -0.00    +0.000 N 
DOCKED: ATOM     24  C   UNL     1      26.257 -10.962  -8.429 -0.36 -0.00    +0.000 A 
DOCKED: ATOM     25  C   UNL     1      25.147 -10.288  -7.987 -0.32 -0.00    +0.000 A 
DOCKED: ATOM     26  C   UNL     1      25.249  -9.133  -7.211 -0.23 -0.00    +0.000 A 
DOCKED: ATOM     27  C   UNL     1      26.538  -8.666  -6.895 -0.32 -0.00    +0.000 A 
DOCKED: ATOM     28  C   UNL     1      27.682  -9.357  -7.354 -0.41 -0.00    +0.000 A 
DOCKED: ATOM     29  C   UNL     1      27.547 -10.522  -8.131 -0.40 -0.00    +0.000 A 
DOCKED: ATOM     30  C   UNL     1      23.755 -13.142  -9.816 -0.41 -0.00    +0.000 C 
DOCKED: ATOM     31  H   UNL     1      26.520 -12.702  -9.559 -0.47 -0.00    +0.000 HD
DOCKED: ENDBRANCH  20  21
DOCKED: ENDBRANCH  19  20
DOCKED: ENDBRANCH   1  19
DOCKED: TORSDOF 8
DOCKED: TER
DOCKED: ENDMDL
________________________________________________________________________________


	BEGINNING GENETIC ALGORITHM DOCKING 67 of 100
Run: 67 Seed: 123412391 177715288 [ Run 67 of 100 GA/GALS ]
Beginning LAMARCKIAN GENETIC ALGORITHM (LGA), with a maximum of 2500000 energy evaluations.

Final-Value: -13.828


	FINAL GENETIC ALGORITHM DOCKED STATE
	_______________________________________________


Detailed state:  trans 20.282 -10.103 -8.021 quatxyzw -0.564927 0.154655 0.482797 -0.651035 center 0.698 0.076 -0.072 ntor 8 -39.7725 176.1659 137.0122 163.2817 -8.1784 -179.8957 172.7417 -162.5226
State:	 20.282 -10.103  -8.021  -0.744  0.204  0.636 -98.761    -39.77  176.17  137.01  163.28   -8.18 -179.90  172.74 -162.52

DOCKED: MODEL       67
DOCKED: USER    Run = 67
DOCKED: USER    DPF = ligand_dock.biased.dpf
DOCKED: USER  
DOCKED: USER    Estimated Free Energy of Binding    =   -9.39 kcal/mol  [=(1)+(2)+(3)-(4)]
DOCKED: USER    Estimated Inhibition Constant, Ki   =  129.84 nM (nanomolar)  [Temperature = 298.15 K]
DOCKED: USER    
DOCKED: USER    (1) Final Intermolecular Energy     =  -11.78 kcal/mol
DOCKED: USER        vdW + Hbond + desolv Energy     =  -11.78 kcal/mol
DOCKED: USER        Electrostatic Energy            =   +0.00 kcal/mol
DOCKED: USER    (2) Final Total Internal Energy     =   -2.05 kcal/mol
DOCKED: USER    (3) Torsional Free Energy           =   +2.39 kcal/mol
DOCKED: USER    (4) Unbound System's Energy  [=(2)] =   -2.05 kcal/mol
DOCKED: USER    
DOCKED: USER    
DOCKED: USER    NEWDPF move ligand.pdbqt
DOCKED: USER    NEWDPF about 0.698000 0.076000 -0.072000
DOCKED: USER    NEWDPF tran0 20.282315 -10.102682 -8.020745
DOCKED: USER    NEWDPF quaternion0 -0.564927 0.154655 0.482797 -0.651035
DOCKED: USER    NEWDPF axisangle0 -0.744257 0.203749 0.636057 -98.760691
DOCKED: USER    NEWDPF quat0 -0.744257 0.203749 0.636057 -98.760691
DOCKED: USER    NEWDPF dihe0 -39.77 176.17 137.01 163.28 -8.18 -179.90 172.74 -162.52 
DOCKED: USER  keepresnum = 1 
DOCKED: USER  
DOCKED: REMARK  Name = 
DOCKED: REMARK  9 active torsions:
DOCKED: REMARK  status: ('A' for Active; 'I' for Inactive)
DOCKED: REMARK    1  A    between atoms: C_2  and  C_3
DOCKED: REMARK    2  A    between atoms: C_4  and  C_5
DOCKED: REMARK    3  A    between atoms: C_8  and  C_9
DOCKED: REMARK    4  A    between atoms: C_9  and  N_10
DOCKED: REMARK    5  A    between atoms: N_10  and  C_11
DOCKED: REMARK    6  A    between atoms: C_11  and  C_12
DOCKED: REMARK    7  A    between atoms: C_12  and  C_13
DOCKED: REMARK    8  A    between atoms: C_14  and  C_22
DOCKED: REMARK    9  A    between atoms: N_25  and  O_26
DOCKED: REMARK                            x       y       z     vdW  Elec       q    Type
DOCKED: REMARK                         _______ _______ _______ _____ _____    ______ ____
DOCKED: USER                              x       y       z     vdW  Elec       q    Type
DOCKED: USER                           _______ _______ _______ _____ _____    ______ ____
DOCKED: ROOT
DOCKED: ATOM      1  N   UNL     1      19.417 -10.815  -7.691 -0.29 -0.00    +0.000 N 
DOCKED: ATOM      2  H   UNL     1      19.967 -11.640  -7.932 -0.18 -0.00    +0.000 HD
DOCKED: ATOM      3  H   UNL     1      18.925 -10.447  -8.504 -0.02 -0.00    +0.000 HD
DOCKED: ENDROOT
DOCKED: BRANCH   1   4
DOCKED: ATOM      4  C   UNL     1      20.325  -9.769  -7.202 -0.22 -0.00    +0.000 C 
DOCKED: BRANCH   4   8
DOCKED: ATOM      5  C   UNL     1      20.670  -9.937  -2.894 -0.46 -0.00    +0.000 A 
DOCKED: ATOM      6  C   UNL     1      19.903  -8.931  -3.513 -0.27 -0.00    +0.000 A 
DOCKED: ATOM      7  C   UNL     1      19.789  -8.883  -4.905 -0.20 -0.00    +0.000 A 
DOCKED: ATOM      8  C   UNL     1      20.419  -9.848  -5.704 -0.25 -0.00    +0.000 A 
DOCKED: ATOM      9  C   UNL     1      21.182 -10.854  -5.092 -0.45 -0.00    +0.000 A 
DOCKED: ATOM     10  C   UNL     1      21.295 -10.903  -3.700 -0.42 -0.00    +0.000 A 
DOCKED: BRANCH   5  12
DOCKED: ATOM     11  C   UNL     1      20.336 -11.065  -0.696 -0.41 -0.00    +0.000 C 
DOCKED: ATOM     12  C   UNL     1      20.815 -10.042  -1.420 -0.62 -0.00    +0.000 C 
DOCKED: BRANCH  11  14
DOCKED: ATOM     13  O   UNL     1      20.868 -10.148   1.405 -0.67 -0.00    +0.000 OA
DOCKED: ATOM     14  C   UNL     1      20.480 -11.164   0.771 -0.71 -0.00    +0.000 C 
DOCKED: ATOM     15  N   UNL     1      20.220 -12.379   1.488 -0.70 -0.00    +0.000 N 
DOCKED: ATOM     16  H   UNL     1      20.011 -13.205   0.995 -0.57 -0.00    +0.000 HD
DOCKED: BRANCH  15  17
DOCKED: ATOM     17  O   UNL     1      20.263 -12.392   2.842 -1.24 -0.00    +0.000 OA
DOCKED: ATOM     18  H   UNL     1      21.002 -11.844   3.148 -0.47 -0.00    +0.000 HD
DOCKED: ENDBRANCH  15  17
DOCKED: ENDBRANCH  11  14
DOCKED: ENDBRANCH   5  12
DOCKED: ENDBRANCH   4   8
DOCKED: ENDBRANCH   1   4
DOCKED: BRANCH   1  19
DOCKED: ATOM     19  C   UNL     1      18.412 -11.193  -6.686 -0.38 -0.00    +0.000 C 
DOCKED: BRANCH  19  20
DOCKED: ATOM     20  C   UNL     1      17.030 -10.586  -6.981 -0.28 -0.00    +0.000 C 
DOCKED: BRANCH  20  21
DOCKED: ATOM     21  C   UNL     1      16.019 -11.084  -5.989 -0.25 -0.00    +0.000 A 
DOCKED: ATOM     22  C   UNL     1      15.018 -12.035  -6.198 -0.28 -0.00    +0.000 A 
DOCKED: ATOM     23  N   UNL     1      14.254 -12.177  -5.090 -0.23 -0.00    +0.000 N 
DOCKED: ATOM     24  C   UNL     1      14.747 -11.309  -4.190 -0.24 -0.00    +0.000 A 
DOCKED: ATOM     25  C   UNL     1      15.817 -10.620  -4.703 -0.21 -0.00    +0.000 A 
DOCKED: ATOM     26  C   UNL     1      16.483  -9.641  -3.963 -0.20 -0.00    +0.000 A 
DOCKED: ATOM     27  C   UNL     1      16.028  -9.381  -2.658 -0.13 -0.00    +0.000 A 
DOCKED: ATOM     28  C   UNL     1      14.929 -10.094  -2.128 -0.24 -0.00    +0.000 A 
DOCKED: ATOM     29  C   UNL     1      14.274 -11.072  -2.900 -0.29 -0.00    +0.000 A 
DOCKED: ATOM     30  C   UNL     1      14.814 -12.826  -7.451 -0.41 -0.00    +0.000 C 
DOCKED: ATOM     31  H   UNL     1      13.494 -12.791  -4.968 -0.49 -0.00    +0.000 HD
DOCKED: ENDBRANCH  20  21
DOCKED: ENDBRANCH  19  20
DOCKED: ENDBRANCH   1  19
DOCKED: TORSDOF 8
DOCKED: TER
DOCKED: ENDMDL
________________________________________________________________________________


	BEGINNING GENETIC ALGORITHM DOCKING 68 of 100
Run: 68 Seed: 1652308202 1328066997 [ Run 68 of 100 GA/GALS ]
Beginning LAMARCKIAN GENETIC ALGORITHM (LGA), with a maximum of 2500000 energy evaluations.

Final-Value: -13.854


	FINAL GENETIC ALGORITHM DOCKED STATE
	_______________________________________________


Detailed state:  trans 19.844 -8.019 -6.258 quatxyzw -0.035968 0.252640 0.369598 -0.893463 center 0.698 0.076 -0.072 ntor 8 -2.1613 69.4073 115.5930 137.4864 -30.0358 -94.2172 -175.0522 153.6691
State:	 19.844  -8.019  -6.258  -0.080  0.563  0.823 -53.377     -2.16   69.41  115.59  137.49  -30.04  -94.22 -175.05  153.67

DOCKED: MODEL       68
DOCKED: USER    Run = 68
DOCKED: USER    DPF = ligand_dock.biased.dpf
DOCKED: USER  
DOCKED: USER    Estimated Free Energy of Binding    =   -9.41 kcal/mol  [=(1)+(2)+(3)-(4)]
DOCKED: USER    Estimated Inhibition Constant, Ki   =  126.53 nM (nanomolar)  [Temperature = 298.15 K]
DOCKED: USER    
DOCKED: USER    (1) Final Intermolecular Energy     =  -11.80 kcal/mol
DOCKED: USER        vdW + Hbond + desolv Energy     =  -11.80 kcal/mol
DOCKED: USER        Electrostatic Energy            =   +0.00 kcal/mol
DOCKED: USER    (2) Final Total Internal Energy     =   -2.06 kcal/mol
DOCKED: USER    (3) Torsional Free Energy           =   +2.39 kcal/mol
DOCKED: USER    (4) Unbound System's Energy  [=(2)] =   -2.06 kcal/mol
DOCKED: USER    
DOCKED: USER    
DOCKED: USER    NEWDPF move ligand.pdbqt
DOCKED: USER    NEWDPF about 0.698000 0.076000 -0.072000
DOCKED: USER    NEWDPF tran0 19.844463 -8.019324 -6.258002
DOCKED: USER    NEWDPF quaternion0 -0.035968 0.252640 0.369598 -0.893463
DOCKED: USER    NEWDPF axisangle0 -0.080082 0.562502 0.822908 -53.376567
DOCKED: USER    NEWDPF quat0 -0.080082 0.562502 0.822908 -53.376567
DOCKED: USER    NEWDPF dihe0 -2.16 69.41 115.59 137.49 -30.04 -94.22 -175.05 153.67 
DOCKED: USER  keepresnum = 1 
DOCKED: USER  
DOCKED: REMARK  Name = 
DOCKED: REMARK  9 active torsions:
DOCKED: REMARK  status: ('A' for Active; 'I' for Inactive)
DOCKED: REMARK    1  A    between atoms: C_2  and  C_3
DOCKED: REMARK    2  A    between atoms: C_4  and  C_5
DOCKED: REMARK    3  A    between atoms: C_8  and  C_9
DOCKED: REMARK    4  A    between atoms: C_9  and  N_10
DOCKED: REMARK    5  A    between atoms: N_10  and  C_11
DOCKED: REMARK    6  A    between atoms: C_11  and  C_12
DOCKED: REMARK    7  A    between atoms: C_12  and  C_13
DOCKED: REMARK    8  A    between atoms: C_14  and  C_22
DOCKED: REMARK    9  A    between atoms: N_25  and  O_26
DOCKED: REMARK                            x       y       z     vdW  Elec       q    Type
DOCKED: REMARK                         _______ _______ _______ _____ _____    ______ ____
DOCKED: USER                              x       y       z     vdW  Elec       q    Type
DOCKED: USER                           _______ _______ _______ _____ _____    ______ ____
DOCKED: ROOT
DOCKED: ATOM      1  N   UNL     1      18.763  -8.296  -5.913 -0.11 -0.00    +0.000 N 
DOCKED: ATOM      2  H   UNL     1      18.529  -8.653  -6.840 +0.00 -0.00    +0.000 HD
DOCKED: ATOM      3  H   UNL     1      18.620  -7.288  -5.858 +0.00 -0.00    +0.000 HD
DOCKED: ENDROOT
DOCKED: BRANCH   1   4
DOCKED: ATOM      4  C   UNL     1      20.183  -8.564  -5.647 -0.18 -0.00    +0.000 C 
DOCKED: BRANCH   4   8
DOCKED: ATOM      5  C   UNL     1      20.737  -9.989  -1.601 -0.54 -0.00    +0.000 A 
DOCKED: ATOM      6  C   UNL     1      20.842  -8.616  -1.899 -0.38 -0.00    +0.000 A 
DOCKED: ATOM      7  C   UNL     1      20.656  -8.158  -3.206 -0.34 -0.00    +0.000 A 
DOCKED: ATOM      8  C   UNL     1      20.343  -9.056  -4.237 -0.29 -0.00    +0.000 A 
DOCKED: ATOM      9  C   UNL     1      20.235 -10.425  -3.945 -0.40 -0.00    +0.000 A 
DOCKED: ATOM     10  C   UNL     1      20.419 -10.883  -2.637 -0.37 -0.00    +0.000 A 
DOCKED: BRANCH   5  12
DOCKED: ATOM     11  C   UNL     1      19.899 -10.725   0.628 -0.64 -0.00    +0.000 C 
DOCKED: ATOM     12  C   UNL     1      20.913 -10.527  -0.229 -0.70 -0.00    +0.000 C 
DOCKED: BRANCH  11  14
DOCKED: ATOM     13  O   UNL     1      19.942 -12.497   2.177 -1.61 -0.00    +0.000 OA
DOCKED: ATOM     14  C   UNL     1      20.079 -11.259   1.994 -0.75 -0.00    +0.000 C 
DOCKED: ATOM     15  N   UNL     1      20.376 -10.415   3.115 -0.61 -0.00    +0.000 N 
DOCKED: ATOM     16  H   UNL     1      20.390  -9.437   3.004 -0.57 -0.00    +0.000 HD
DOCKED: BRANCH  15  17
DOCKED: ATOM     17  O   UNL     1      20.636 -10.961   4.328 -0.72 -0.00    +0.000 OA
DOCKED: ATOM     18  H   UNL     1      20.548 -11.925   4.274 -0.42 -0.00    +0.000 HD
DOCKED: ENDBRANCH  15  17
DOCKED: ENDBRANCH  11  14
DOCKED: ENDBRANCH   5  12
DOCKED: ENDBRANCH   4   8
DOCKED: ENDBRANCH   1   4
DOCKED: BRANCH   1  19
DOCKED: ATOM     19  C   UNL     1      17.882  -8.933  -4.923 -0.19 -0.00    +0.000 C 
DOCKED: BRANCH  19  20
DOCKED: ATOM     20  C   UNL     1      16.397  -8.839  -5.313 -0.14 -0.00    +0.000 C 
DOCKED: BRANCH  20  21
DOCKED: ATOM     21  C   UNL     1      15.624  -9.970  -4.697 -0.18 -0.00    +0.000 A 
DOCKED: ATOM     22  C   UNL     1      14.727 -10.832  -5.331 -0.23 -0.00    +0.000 A 
DOCKED: ATOM     23  N   UNL     1      14.171 -11.684  -4.439 -0.29 -0.00    +0.000 N 
DOCKED: ATOM     24  C   UNL     1      14.689 -11.354  -3.243 -0.23 -0.00    +0.000 A 
DOCKED: ATOM     25  C   UNL     1      15.572 -10.310  -3.358 -0.23 -0.00    +0.000 A 
DOCKED: ATOM     26  C   UNL     1      16.221  -9.770  -2.247 -0.16 -0.00    +0.000 A 
DOCKED: ATOM     27  C   UNL     1      15.948 -10.338  -0.988 -0.26 -0.00    +0.000 A 
DOCKED: ATOM     28  C   UNL     1      15.043 -11.416  -0.870 -0.33 +0.00    +0.000 A 
DOCKED: ATOM     29  C   UNL     1      14.400 -11.935  -2.009 -0.30 -0.00    +0.000 A 
DOCKED: ATOM     30  C   UNL     1      14.426 -10.856  -6.796 -0.19 -0.00    +0.000 C 
DOCKED: ATOM     31  H   UNL     1      13.521 -12.399  -4.627 -0.46 -0.00    +0.000 HD
DOCKED: ENDBRANCH  20  21
DOCKED: ENDBRANCH  19  20
DOCKED: ENDBRANCH   1  19
DOCKED: TORSDOF 8
DOCKED: TER
DOCKED: ENDMDL
________________________________________________________________________________


	BEGINNING GENETIC ALGORITHM DOCKING 69 of 100
Run: 69 Seed: 141292483 1271047921 [ Run 69 of 100 GA/GALS ]
Beginning LAMARCKIAN GENETIC ALGORITHM (LGA), with a maximum of 2500000 energy evaluations.

Final-Value: -14.493


	FINAL GENETIC ALGORITHM DOCKED STATE
	_______________________________________________


Detailed state:  trans 21.290 -8.834 -6.057 quatxyzw -0.326819 0.139579 -0.822561 0.443960 center 0.698 0.076 -0.072 ntor 8 34.9846 -40.9481 -161.8352 -175.9899 -40.0404 -10.5991 164.1083 62.7500
State:	 21.290  -8.834  -6.057  -0.365  0.156 -0.918 127.286     34.98  -40.95 -161.84 -175.99  -40.04  -10.60  164.11   62.75

DOCKED: MODEL       69
DOCKED: USER    Run = 69
DOCKED: USER    DPF = ligand_dock.biased.dpf
DOCKED: USER  
DOCKED: USER    Estimated Free Energy of Binding    =  -10.67 kcal/mol  [=(1)+(2)+(3)-(4)]
DOCKED: USER    Estimated Inhibition Constant, Ki   =   15.00 nM (nanomolar)  [Temperature = 298.15 K]
DOCKED: USER    
DOCKED: USER    (1) Final Intermolecular Energy     =  -13.06 kcal/mol
DOCKED: USER        vdW + Hbond + desolv Energy     =  -13.06 kcal/mol
DOCKED: USER        Electrostatic Energy            =   +0.00 kcal/mol
DOCKED: USER    (2) Final Total Internal Energy     =   -1.43 kcal/mol
DOCKED: USER    (3) Torsional Free Energy           =   +2.39 kcal/mol
DOCKED: USER    (4) Unbound System's Energy  [=(2)] =   -1.43 kcal/mol
DOCKED: USER    
DOCKED: USER    
DOCKED: USER    NEWDPF move ligand.pdbqt
DOCKED: USER    NEWDPF about 0.698000 0.076000 -0.072000
DOCKED: USER    NEWDPF tran0 21.289583 -8.833917 -6.056916
DOCKED: USER    NEWDPF quaternion0 -0.326819 0.139579 -0.822561 0.443960
DOCKED: USER    NEWDPF axisangle0 -0.364734 0.155772 -0.917989 127.286391
DOCKED: USER    NEWDPF quat0 -0.364734 0.155772 -0.917989 127.286391
DOCKED: USER    NEWDPF dihe0 34.98 -40.95 -161.84 -175.99 -40.04 -10.60 164.11 62.75 
DOCKED: USER  keepresnum = 1 
DOCKED: USER  
DOCKED: REMARK  Name = 
DOCKED: REMARK  9 active torsions:
DOCKED: REMARK  status: ('A' for Active; 'I' for Inactive)
DOCKED: REMARK    1  A    between atoms: C_2  and  C_3
DOCKED: REMARK    2  A    between atoms: C_4  and  C_5
DOCKED: REMARK    3  A    between atoms: C_8  and  C_9
DOCKED: REMARK    4  A    between atoms: C_9  and  N_10
DOCKED: REMARK    5  A    between atoms: N_10  and  C_11
DOCKED: REMARK    6  A    between atoms: C_11  and  C_12
DOCKED: REMARK    7  A    between atoms: C_12  and  C_13
DOCKED: REMARK    8  A    between atoms: C_14  and  C_22
DOCKED: REMARK    9  A    between atoms: N_25  and  O_26
DOCKED: REMARK                            x       y       z     vdW  Elec       q    Type
DOCKED: REMARK                         _______ _______ _______ _____ _____    ______ ____
DOCKED: USER                              x       y       z     vdW  Elec       q    Type
DOCKED: USER                           _______ _______ _______ _____ _____    ______ ____
DOCKED: ROOT
DOCKED: ATOM      1  N   UNL     1      21.110  -9.674  -6.848 -0.20 -0.00    +0.000 N 
DOCKED: ATOM      2  H   UNL     1      20.845  -8.989  -7.557 +0.01 -0.00    +0.000 HD
DOCKED: ATOM      3  H   UNL     1      20.314  -9.930  -6.264 +0.00 -0.00    +0.000 HD
DOCKED: ENDROOT
DOCKED: BRANCH   1   4
DOCKED: ATOM      4  C   UNL     1      22.135  -9.083  -5.978 -0.28 -0.00    +0.000 C 
DOCKED: BRANCH   4   8
DOCKED: ATOM      5  C   UNL     1      21.161  -9.733  -1.815 -0.54 -0.00    +0.000 A 
DOCKED: ATOM      6  C   UNL     1      21.158  -8.433  -2.357 -0.43 -0.00    +0.000 A 
DOCKED: ATOM      7  C   UNL     1      21.468  -8.227  -3.705 -0.32 -0.00    +0.000 A 
DOCKED: ATOM      8  C   UNL     1      21.765  -9.314  -4.540 -0.31 -0.00    +0.000 A 
DOCKED: ATOM      9  C   UNL     1      21.766 -10.611  -4.005 -0.41 -0.00    +0.000 A 
DOCKED: ATOM     10  C   UNL     1      21.455 -10.817  -2.658 -0.31 -0.00    +0.000 A 
DOCKED: BRANCH   5  12
DOCKED: ATOM     11  C   UNL     1      20.738 -11.244   0.122 -0.54 -0.00    +0.000 C 
DOCKED: ATOM     12  C   UNL     1      20.827 -10.009  -0.395 -0.67 -0.00    +0.000 C 
DOCKED: BRANCH  11  14
DOCKED: ATOM     13  O   UNL     1      19.885 -12.624   1.827 -1.63 -0.00    +0.000 OA
DOCKED: ATOM     14  C   UNL     1      20.403 -11.514   1.536 -0.76 -0.00    +0.000 C 
DOCKED: ATOM     15  N   UNL     1      20.623 -10.550   2.575 -0.61 -0.00    +0.000 N 
DOCKED: ATOM     16  H   UNL     1      20.936  -9.645   2.347 -0.56 -0.00    +0.000 HD
DOCKED: BRANCH  15  17
DOCKED: ATOM     17  O   UNL     1      20.399 -10.882   3.869 -0.81 -0.00    +0.000 OA
DOCKED: ATOM     18  H   UNL     1      20.639 -11.811   4.011 -0.48 -0.00    +0.000 HD
DOCKED: ENDBRANCH  15  17
DOCKED: ENDBRANCH  11  14
DOCKED: ENDBRANCH   5  12
DOCKED: ENDBRANCH   4   8
DOCKED: ENDBRANCH   1   4
DOCKED: BRANCH   1  19
DOCKED: ATOM     19  C   UNL     1      21.587 -10.892  -7.522 -0.30 -0.00    +0.000 C 
DOCKED: BRANCH  19  20
DOCKED: ATOM     20  C   UNL     1      22.299 -10.587  -8.850 -0.24 -0.00    +0.000 C 
DOCKED: BRANCH  20  21
DOCKED: ATOM     21  C   UNL     1      23.446 -11.535  -9.056 -0.29 -0.00    +0.000 A 
DOCKED: ATOM     22  C   UNL     1      24.744 -11.421  -8.556 -0.37 -0.00    +0.000 A 
DOCKED: ATOM     23  N   UNL     1      25.522 -12.431  -9.008 -0.42 -0.00    +0.000 N 
DOCKED: ATOM     24  C   UNL     1      24.734 -13.171  -9.808 -0.34 -0.00    +0.000 A 
DOCKED: ATOM     25  C   UNL     1      23.465 -12.653  -9.869 -0.32 -0.00    +0.000 A 
DOCKED: ATOM     26  C   UNL     1      22.472 -13.233 -10.658 -0.20 -0.00    +0.000 A 
DOCKED: ATOM     27  C   UNL     1      22.807 -14.384 -11.395 -0.36 +0.00    +0.000 A 
DOCKED: ATOM     28  C   UNL     1      24.112 -14.921 -11.329 -0.33 +0.00    +0.000 A 
DOCKED: ATOM     29  C   UNL     1      25.094 -14.310 -10.528 -0.28 -0.00    +0.000 A 
DOCKED: ATOM     30  C   UNL     1      25.230 -10.358  -7.622 -0.35 -0.00    +0.000 C 
DOCKED: ATOM     31  H   UNL     1      26.469 -12.592  -8.795 -0.40 -0.00    +0.000 HD
DOCKED: ENDBRANCH  20  21
DOCKED: ENDBRANCH  19  20
DOCKED: ENDBRANCH   1  19
DOCKED: TORSDOF 8
DOCKED: TER
DOCKED: ENDMDL
________________________________________________________________________________


	BEGINNING GENETIC ALGORITHM DOCKING 70 of 100
Run: 70 Seed: 1565955776 48672849 [ Run 70 of 100 GA/GALS ]
Beginning LAMARCKIAN GENETIC ALGORITHM (LGA), with a maximum of 2500000 energy evaluations.

Final-Value: -14.190


	FINAL GENETIC ALGORITHM DOCKED STATE
	_______________________________________________


Detailed state:  trans 21.699 -10.836 -5.424 quatxyzw -0.618940 -0.400209 -0.559266 -0.379431 center 0.698 0.076 -0.072 ntor 8 12.2430 -154.5234 -175.9751 117.3476 52.5966 -104.5050 -174.6135 -18.5616
State:	 21.699 -10.836  -5.424  -0.669 -0.433 -0.604 -135.403     12.24 -154.52 -175.98  117.35   52.60 -104.51 -174.61  -18.56

DOCKED: MODEL       70
DOCKED: USER    Run = 70
DOCKED: USER    DPF = ligand_dock.biased.dpf
DOCKED: USER  
DOCKED: USER    Estimated Free Energy of Binding    =  -10.42 kcal/mol  [=(1)+(2)+(3)-(4)]
DOCKED: USER    Estimated Inhibition Constant, Ki   =   22.93 nM (nanomolar)  [Temperature = 298.15 K]
DOCKED: USER    
DOCKED: USER    (1) Final Intermolecular Energy     =  -12.81 kcal/mol
DOCKED: USER        vdW + Hbond + desolv Energy     =  -12.81 kcal/mol
DOCKED: USER        Electrostatic Energy            =   +0.00 kcal/mol
DOCKED: USER    (2) Final Total Internal Energy     =   -1.38 kcal/mol
DOCKED: USER    (3) Torsional Free Energy           =   +2.39 kcal/mol
DOCKED: USER    (4) Unbound System's Energy  [=(2)] =   -1.38 kcal/mol
DOCKED: USER    
DOCKED: USER    
DOCKED: USER    NEWDPF move ligand.pdbqt
DOCKED: USER    NEWDPF about 0.698000 0.076000 -0.072000
DOCKED: USER    NEWDPF tran0 21.699065 -10.836123 -5.424196
DOCKED: USER    NEWDPF quaternion0 -0.618940 -0.400209 -0.559266 -0.379431
DOCKED: USER    NEWDPF axisangle0 -0.668965 -0.432556 -0.604468 -135.403120
DOCKED: USER    NEWDPF quat0 -0.668965 -0.432556 -0.604468 -135.403120
DOCKED: USER    NEWDPF dihe0 12.24 -154.52 -175.98 117.35 52.60 -104.51 -174.61 -18.56 
DOCKED: USER  keepresnum = 1 
DOCKED: USER  
DOCKED: REMARK  Name = 
DOCKED: REMARK  9 active torsions:
DOCKED: REMARK  status: ('A' for Active; 'I' for Inactive)
DOCKED: REMARK    1  A    between atoms: C_2  and  C_3
DOCKED: REMARK    2  A    between atoms: C_4  and  C_5
DOCKED: REMARK    3  A    between atoms: C_8  and  C_9
DOCKED: REMARK    4  A    between atoms: C_9  and  N_10
DOCKED: REMARK    5  A    between atoms: N_10  and  C_11
DOCKED: REMARK    6  A    between atoms: C_11  and  C_12
DOCKED: REMARK    7  A    between atoms: C_12  and  C_13
DOCKED: REMARK    8  A    between atoms: C_14  and  C_22
DOCKED: REMARK    9  A    between atoms: N_25  and  O_26
DOCKED: REMARK                            x       y       z     vdW  Elec       q    Type
DOCKED: REMARK                         _______ _______ _______ _____ _____    ______ ____
DOCKED: USER                              x       y       z     vdW  Elec       q    Type
DOCKED: USER                           _______ _______ _______ _____ _____    ______ ____
DOCKED: ROOT
DOCKED: ATOM      1  N   UNL     1      22.086 -11.342  -6.403 -0.43 -0.00    +0.000 N 
DOCKED: ATOM      2  H   UNL     1      21.507 -12.166  -6.240 -0.53 -0.00    +0.000 HD
DOCKED: ATOM      3  H   UNL     1      22.976 -11.411  -5.909 -0.03 -0.00    +0.000 HD
DOCKED: ENDROOT
DOCKED: BRANCH   1   4
DOCKED: ATOM      4  C   UNL     1      21.379 -10.159  -5.896 -0.37 -0.00    +0.000 C 
DOCKED: BRANCH   4   8
DOCKED: ATOM      5  C   UNL     1      20.029 -10.807  -1.838 -0.39 -0.00    +0.000 A 
DOCKED: ATOM      6  C   UNL     1      19.190 -11.105  -2.929 -0.31 -0.00    +0.000 A 
DOCKED: ATOM      7  C   UNL     1      19.631 -10.900  -4.240 -0.40 -0.00    +0.000 A 
DOCKED: ATOM      8  C   UNL     1      20.924 -10.414  -4.487 -0.42 -0.00    +0.000 A 
DOCKED: ATOM      9  C   UNL     1      21.765 -10.119  -3.403 -0.34 -0.00    +0.000 A 
DOCKED: ATOM     10  C   UNL     1      21.324 -10.325  -2.093 -0.51 -0.00    +0.000 A 
DOCKED: BRANCH   5  12
DOCKED: ATOM     11  C   UNL     1      20.478 -11.093   0.597 -0.70 -0.00    +0.000 C 
DOCKED: ATOM     12  C   UNL     1      19.616 -11.017  -0.428 -0.55 -0.00    +0.000 C 
DOCKED: BRANCH  11  14
DOCKED: ATOM     13  O   UNL     1      19.149 -12.141   2.234 -1.22 -0.00    +0.000 OA
DOCKED: ATOM     14  C   UNL     1      20.061 -11.305   1.999 -0.75 -0.00    +0.000 C 
DOCKED: ATOM     15  N   UNL     1      20.640 -10.577   3.091 -0.65 -0.00    +0.000 N 
DOCKED: ATOM     16  H   UNL     1      21.284  -9.854   2.913 -0.52 -0.00    +0.000 HD
DOCKED: BRANCH  15  17
DOCKED: ATOM     17  O   UNL     1      20.302 -10.881   4.367 -0.70 -0.00    +0.000 OA
DOCKED: ATOM     18  H   UNL     1      19.821 -11.723   4.383 -0.08 -0.00    +0.000 HD
DOCKED: ENDBRANCH  15  17
DOCKED: ENDBRANCH  11  14
DOCKED: ENDBRANCH   5  12
DOCKED: ENDBRANCH   4   8
DOCKED: ENDBRANCH   1   4
DOCKED: BRANCH   1  19
DOCKED: ATOM     19  C   UNL     1      22.374 -11.243  -7.842 -0.36 -0.00    +0.000 C 
DOCKED: BRANCH  19  20
DOCKED: ATOM     20  C   UNL     1      23.147 -12.464  -8.371 -0.40 -0.00    +0.000 C 
DOCKED: BRANCH  20  21
DOCKED: ATOM     21  C   UNL     1      24.428 -12.027  -9.022 -0.37 -0.00    +0.000 A 
DOCKED: ATOM     22  C   UNL     1      25.112 -12.660 -10.063 -0.29 -0.00    +0.000 A 
DOCKED: ATOM     23  N   UNL     1      26.266 -12.010 -10.340 -0.11 -0.00    +0.000 N 
DOCKED: ATOM     24  C   UNL     1      26.331 -10.987  -9.471 -0.28 -0.00    +0.000 A 
DOCKED: ATOM     25  C   UNL     1      25.233 -10.968  -8.647 -0.33 -0.00    +0.000 A 
DOCKED: ATOM     26  C   UNL     1      25.086 -10.012  -7.642 -0.30 -0.00    +0.000 A 
DOCKED: ATOM     27  C   UNL     1      26.101  -9.049  -7.498 -0.29 -0.00    +0.000 A 
DOCKED: ATOM     28  C   UNL     1      27.228  -9.065  -8.349 -0.23 -0.00    +0.000 A 
DOCKED: ATOM     29  C   UNL     1      27.352 -10.045  -9.350 -0.25 -0.00    +0.000 A 
DOCKED: ATOM     30  C   UNL     1      24.644 -13.869 -10.807 -0.36 -0.00    +0.000 C 
DOCKED: ATOM     31  H   UNL     1      26.924 -12.240 -11.037 -0.34 -0.00    +0.000 HD
DOCKED: ENDBRANCH  20  21
DOCKED: ENDBRANCH  19  20
DOCKED: ENDBRANCH   1  19
DOCKED: TORSDOF 8
DOCKED: TER
DOCKED: ENDMDL
________________________________________________________________________________


	BEGINNING GENETIC ALGORITHM DOCKING 71 of 100
Run: 71 Seed: 227542543 1671742346 [ Run 71 of 100 GA/GALS ]
Beginning LAMARCKIAN GENETIC ALGORITHM (LGA), with a maximum of 2500000 energy evaluations.

Final-Value: -14.334


	FINAL GENETIC ALGORITHM DOCKED STATE
	_______________________________________________


Detailed state:  trans 12.311 -8.313 5.425 quatxyzw -0.448001 0.385408 -0.683612 0.428287 center 0.698 0.076 -0.072 ntor 8 -27.3919 63.8233 111.6984 127.6824 -52.3838 -45.6945 1.2618 -169.6024
State:	 12.311  -8.313   5.425  -0.496  0.427 -0.757 129.282    -27.39   63.82  111.70  127.68  -52.38  -45.69    1.26 -169.60

DOCKED: MODEL       71
DOCKED: USER    Run = 71
DOCKED: USER    DPF = ligand_dock.biased.dpf
DOCKED: USER  
DOCKED: USER    Estimated Free Energy of Binding    =   -8.86 kcal/mol  [=(1)+(2)+(3)-(4)]
DOCKED: USER    Estimated Inhibition Constant, Ki   =  319.03 nM (nanomolar)  [Temperature = 298.15 K]
DOCKED: USER    
DOCKED: USER    (1) Final Intermolecular Energy     =  -11.25 kcal/mol
DOCKED: USER        vdW + Hbond + desolv Energy     =  -11.25 kcal/mol
DOCKED: USER        Electrostatic Energy            =   +0.00 kcal/mol
DOCKED: USER    (2) Final Total Internal Energy     =   -3.09 kcal/mol
DOCKED: USER    (3) Torsional Free Energy           =   +2.39 kcal/mol
DOCKED: USER    (4) Unbound System's Energy  [=(2)] =   -3.09 kcal/mol
DOCKED: USER    
DOCKED: USER    
DOCKED: USER    NEWDPF move ligand.pdbqt
DOCKED: USER    NEWDPF about 0.698000 0.076000 -0.072000
DOCKED: USER    NEWDPF tran0 12.310852 -8.313246 5.425046
DOCKED: USER    NEWDPF quaternion0 -0.448001 0.385408 -0.683612 0.428287
DOCKED: USER    NEWDPF axisangle0 -0.495772 0.426505 -0.756507 129.282247
DOCKED: USER    NEWDPF quat0 -0.495772 0.426505 -0.756507 129.282247
DOCKED: USER    NEWDPF dihe0 -27.39 63.82 111.70 127.68 -52.38 -45.69 1.26 -169.60 
DOCKED: USER  keepresnum = 1 
DOCKED: USER  
DOCKED: REMARK  Name = 
DOCKED: REMARK  9 active torsions:
DOCKED: REMARK  status: ('A' for Active; 'I' for Inactive)
DOCKED: REMARK    1  A    between atoms: C_2  and  C_3
DOCKED: REMARK    2  A    between atoms: C_4  and  C_5
DOCKED: REMARK    3  A    between atoms: C_8  and  C_9
DOCKED: REMARK    4  A    between atoms: C_9  and  N_10
DOCKED: REMARK    5  A    between atoms: N_10  and  C_11
DOCKED: REMARK    6  A    between atoms: C_11  and  C_12
DOCKED: REMARK    7  A    between atoms: C_12  and  C_13
DOCKED: REMARK    8  A    between atoms: C_14  and  C_22
DOCKED: REMARK    9  A    between atoms: N_25  and  O_26
DOCKED: REMARK                            x       y       z     vdW  Elec       q    Type
DOCKED: REMARK                         _______ _______ _______ _____ _____    ______ ____
DOCKED: USER                              x       y       z     vdW  Elec       q    Type
DOCKED: USER                           _______ _______ _______ _____ _____    ______ ____
DOCKED: ROOT
DOCKED: ATOM      1  N   UNL     1      11.939  -8.536   4.340 -0.23 +0.00    +0.000 N 
DOCKED: ATOM      2  H   UNL     1      11.841  -7.541   4.140 +0.00 +0.00    +0.000 HD
DOCKED: ATOM      3  H   UNL     1      11.107  -8.906   4.798 -0.01 +0.00    +0.000 HD
DOCKED: ENDROOT
DOCKED: BRANCH   1   4
DOCKED: ATOM      4  C   UNL     1      13.076  -8.724   5.252 -0.43 +0.00    +0.000 C 
DOCKED: BRANCH   4   8
DOCKED: ATOM      5  C   UNL     1      16.476 -10.031   2.920 -0.41 +0.00    +0.000 A 
DOCKED: ATOM      6  C   UNL     1      16.165  -8.661   3.030 -0.18 +0.00    +0.000 A 
DOCKED: ATOM      7  C   UNL     1      15.069  -8.242   3.789 -0.34 +0.00    +0.000 A 
DOCKED: ATOM      8  C   UNL     1      14.276  -9.177   4.469 -0.37 +0.00    +0.000 A 
DOCKED: ATOM      9  C   UNL     1      14.582 -10.542   4.365 -0.23 +0.00    +0.000 A 
DOCKED: ATOM     10  C   UNL     1      15.680 -10.962   3.607 -0.48 +0.00    +0.000 A 
DOCKED: BRANCH   5  12
DOCKED: ATOM     11  C   UNL     1      18.865 -10.687   2.648 -0.62 -0.00    +0.000 C 
DOCKED: ATOM     12  C   UNL     1      17.635 -10.529   2.137 -0.50 -0.00    +0.000 C 
DOCKED: BRANCH  11  14
DOCKED: ATOM     13  O   UNL     1      20.348 -12.390   1.985 -1.62 -0.00    +0.000 OA
DOCKED: ATOM     14  C   UNL     1      20.017 -11.182   1.865 -0.73 -0.00    +0.000 C 
DOCKED: ATOM     15  N   UNL     1      20.779 -10.329   0.999 -0.61 -0.00    +0.000 N 
DOCKED: ATOM     16  H   UNL     1      20.591  -9.363   0.971 -0.35 -0.00    +0.000 HD
DOCKED: BRANCH  15  17
DOCKED: ATOM     17  O   UNL     1      21.758 -10.850   0.222 -0.70 -0.00    +0.000 OA
DOCKED: ATOM     18  H   UNL     1      22.112 -11.651   0.640 -0.57 -0.00    +0.000 HD
DOCKED: ENDBRANCH  15  17
DOCKED: ENDBRANCH  11  14
DOCKED: ENDBRANCH   5  12
DOCKED: ENDBRANCH   4   8
DOCKED: ENDBRANCH   1   4
DOCKED: BRANCH   1  19
DOCKED: ATOM     19  C   UNL     1      12.119  -9.260   3.072 -0.17 +0.00    +0.000 C 
DOCKED: BRANCH  19  20
DOCKED: ATOM     20  C   UNL     1      12.047  -8.328   1.850 -0.12 +0.00    +0.000 C 
DOCKED: BRANCH  20  21
DOCKED: ATOM     21  C   UNL     1      13.205  -8.586   0.929 -0.13 +0.00    +0.000 A 
DOCKED: ATOM     22  C   UNL     1      13.956  -7.645   0.221 -0.20 -0.00    +0.000 A 
DOCKED: ATOM     23  N   UNL     1      14.876  -8.257  -0.560 -0.23 -0.00    +0.000 N 
DOCKED: ATOM     24  C   UNL     1      14.700  -9.576  -0.370 -0.23 -0.00    +0.000 A 
DOCKED: ATOM     25  C   UNL     1      13.687  -9.817   0.524 -0.18 +0.00    +0.000 A 
DOCKED: ATOM     26  C   UNL     1      13.299 -11.114   0.863 -0.33 +0.00    +0.000 A 
DOCKED: ATOM     27  C   UNL     1      13.988 -12.183   0.263 -0.40 +0.00    +0.000 A 
DOCKED: ATOM     28  C   UNL     1      15.034 -11.936  -0.653 -0.39 +0.00    +0.000 A 
DOCKED: ATOM     29  C   UNL     1      15.399 -10.617  -0.980 -0.27 -0.00    +0.000 A 
DOCKED: ATOM     30  C   UNL     1      13.807  -6.160   0.316 -0.19 -0.00    +0.000 C 
DOCKED: ATOM     31  H   UNL     1      15.538  -7.825  -1.146 -0.02 -0.00    +0.000 HD
DOCKED: ENDBRANCH  20  21
DOCKED: ENDBRANCH  19  20
DOCKED: ENDBRANCH   1  19
DOCKED: TORSDOF 8
DOCKED: TER
DOCKED: ENDMDL
________________________________________________________________________________


	BEGINNING GENETIC ALGORITHM DOCKING 72 of 100
Run: 72 Seed: 751025751 1509249451 [ Run 72 of 100 GA/GALS ]
Beginning LAMARCKIAN GENETIC ALGORITHM (LGA), with a maximum of 2500000 energy evaluations.

Final-Value: -13.453


	FINAL GENETIC ALGORITHM DOCKED STATE
	_______________________________________________


Detailed state:  trans 20.564 -6.479 -5.870 quatxyzw 0.170070 0.283818 -0.875049 0.353288 center 0.698 0.076 -0.072 ntor 8 28.7715 179.6269 48.4158 -9.6322 -36.8362 -133.0881 48.6702 139.2083
State:	 20.564  -6.479  -5.870   0.182  0.303 -0.935 138.623     28.77  179.63   48.42   -9.63  -36.84 -133.09   48.67  139.21

DOCKED: MODEL       72
DOCKED: USER    Run = 72
DOCKED: USER    DPF = ligand_dock.biased.dpf
DOCKED: USER  
DOCKED: USER    Estimated Free Energy of Binding    =   -9.71 kcal/mol  [=(1)+(2)+(3)-(4)]
DOCKED: USER    Estimated Inhibition Constant, Ki   =   76.59 nM (nanomolar)  [Temperature = 298.15 K]
DOCKED: USER    
DOCKED: USER    (1) Final Intermolecular Energy     =  -12.09 kcal/mol
DOCKED: USER        vdW + Hbond + desolv Energy     =  -12.09 kcal/mol
DOCKED: USER        Electrostatic Energy            =   +0.00 kcal/mol
DOCKED: USER    (2) Final Total Internal Energy     =   -1.36 kcal/mol
DOCKED: USER    (3) Torsional Free Energy           =   +2.39 kcal/mol
DOCKED: USER    (4) Unbound System's Energy  [=(2)] =   -1.36 kcal/mol
DOCKED: USER    
DOCKED: USER    
DOCKED: USER    NEWDPF move ligand.pdbqt
DOCKED: USER    NEWDPF about 0.698000 0.076000 -0.072000
DOCKED: USER    NEWDPF tran0 20.564344 -6.478618 -5.870400
DOCKED: USER    NEWDPF quaternion0 0.170070 0.283818 -0.875049 0.353288
DOCKED: USER    NEWDPF axisangle0 0.181793 0.303381 -0.935367 138.622858
DOCKED: USER    NEWDPF quat0 0.181793 0.303381 -0.935367 138.622858
DOCKED: USER    NEWDPF dihe0 28.77 179.63 48.42 -9.63 -36.84 -133.09 48.67 139.21 
DOCKED: USER  keepresnum = 1 
DOCKED: USER  
DOCKED: REMARK  Name = 
DOCKED: REMARK  9 active torsions:
DOCKED: REMARK  status: ('A' for Active; 'I' for Inactive)
DOCKED: REMARK    1  A    between atoms: C_2  and  C_3
DOCKED: REMARK    2  A    between atoms: C_4  and  C_5
DOCKED: REMARK    3  A    between atoms: C_8  and  C_9
DOCKED: REMARK    4  A    between atoms: C_9  and  N_10
DOCKED: REMARK    5  A    between atoms: N_10  and  C_11
DOCKED: REMARK    6  A    between atoms: C_11  and  C_12
DOCKED: REMARK    7  A    between atoms: C_12  and  C_13
DOCKED: REMARK    8  A    between atoms: C_14  and  C_22
DOCKED: REMARK    9  A    between atoms: N_25  and  O_26
DOCKED: REMARK                            x       y       z     vdW  Elec       q    Type
DOCKED: REMARK                         _______ _______ _______ _____ _____    ______ ____
DOCKED: USER                              x       y       z     vdW  Elec       q    Type
DOCKED: USER                           _______ _______ _______ _____ _____    ______ ____
DOCKED: ROOT
DOCKED: ATOM      1  N   UNL     1      21.064  -7.439  -6.308 -0.10 -0.00    +0.000 N 
DOCKED: ATOM      2  H   UNL     1      21.620  -6.887  -6.961 +0.00 -0.00    +0.000 HD
DOCKED: ATOM      3  H   UNL     1      20.138  -7.639  -6.687 +0.00 -0.00    +0.000 HD
DOCKED: ENDROOT
DOCKED: BRANCH   1   4
DOCKED: ATOM      4  C   UNL     1      20.887  -6.671  -5.069 -0.18 -0.00    +0.000 C 
DOCKED: BRANCH   4   8
DOCKED: ATOM      5  C   UNL     1      20.483  -9.449  -1.777 -0.43 -0.00    +0.000 A 
DOCKED: ATOM      6  C   UNL     1      21.382  -8.367  -1.697 -0.45 -0.00    +0.000 A 
DOCKED: ATOM      7  C   UNL     1      21.506  -7.468  -2.760 -0.35 -0.00    +0.000 A 
DOCKED: ATOM      8  C   UNL     1      20.722  -7.618  -3.913 -0.28 -0.00    +0.000 A 
DOCKED: ATOM      9  C   UNL     1      19.823  -8.692  -3.997 -0.24 -0.00    +0.000 A 
DOCKED: ATOM     10  C   UNL     1      19.698  -9.590  -2.933 -0.29 -0.00    +0.000 A 
DOCKED: BRANCH   5  12
DOCKED: ATOM     11  C   UNL     1      20.547 -10.144   0.615 -0.65 -0.00    +0.000 C 
DOCKED: ATOM     12  C   UNL     1      20.303 -10.425  -0.674 -0.61 -0.00    +0.000 C 
DOCKED: BRANCH  11  14
DOCKED: ATOM     13  O   UNL     1      20.264 -12.339   1.416 -1.61 -0.00    +0.000 OA
DOCKED: ATOM     14  C   UNL     1      20.370 -11.119   1.711 -0.74 -0.00    +0.000 C 
DOCKED: ATOM     15  N   UNL     1      20.288 -10.722   3.087 -0.69 -0.00    +0.000 N 
DOCKED: ATOM     16  H   UNL     1      20.271  -9.767   3.322 -0.55 -0.00    +0.000 HD
DOCKED: BRANCH  15  17
DOCKED: ATOM     17  O   UNL     1      20.231 -11.660   4.063 -0.80 -0.00    +0.000 OA
DOCKED: ATOM     18  H   UNL     1      20.691 -12.462   3.769 -0.52 -0.00    +0.000 HD
DOCKED: ENDBRANCH  15  17
DOCKED: ENDBRANCH  11  14
DOCKED: ENDBRANCH   5  12
DOCKED: ENDBRANCH   4   8
DOCKED: ENDBRANCH   1   4
DOCKED: BRANCH   1  19
DOCKED: ATOM     19  C   UNL     1      21.743  -8.723  -6.075 -0.24 -0.00    +0.000 C 
DOCKED: BRANCH  19  20
DOCKED: ATOM     20  C   UNL     1      21.311  -9.806  -7.078 -0.25 -0.00    +0.000 C 
DOCKED: BRANCH  20  21
DOCKED: ATOM     21  C   UNL     1      22.456 -10.733  -7.370 -0.32 -0.00    +0.000 A 
DOCKED: ATOM     22  C   UNL     1      22.882 -11.824  -6.610 -0.46 -0.00    +0.000 A 
DOCKED: ATOM     23  N   UNL     1      23.990 -12.381  -7.152 -0.50 +0.00    +0.000 N 
DOCKED: ATOM     24  C   UNL     1      24.282 -11.640  -8.234 -0.40 -0.00    +0.000 A 
DOCKED: ATOM     25  C   UNL     1      23.375 -10.623  -8.396 -0.25 -0.00    +0.000 A 
DOCKED: ATOM     26  C   UNL     1      23.483  -9.701  -9.438 -0.10 -0.00    +0.000 A 
DOCKED: ATOM     27  C   UNL     1      24.556  -9.849 -10.337 -0.07 -0.00    +0.000 A 
DOCKED: ATOM     28  C   UNL     1      25.487 -10.899 -10.173 -0.18 -0.00    +0.000 A 
DOCKED: ATOM     29  C   UNL     1      25.355 -11.810  -9.109 -0.36 -0.00    +0.000 A 
DOCKED: ATOM     30  C   UNL     1      22.211 -12.347  -5.380 -0.42 -0.00    +0.000 C 
DOCKED: ATOM     31  H   UNL     1      24.481 -13.169  -6.821 -0.03 +0.00    +0.000 HD
DOCKED: ENDBRANCH  20  21
DOCKED: ENDBRANCH  19  20
DOCKED: ENDBRANCH   1  19
DOCKED: TORSDOF 8
DOCKED: TER
DOCKED: ENDMDL
________________________________________________________________________________


	BEGINNING GENETIC ALGORITHM DOCKING 73 of 100
Run: 73 Seed: 80978596 1936219793 [ Run 73 of 100 GA/GALS ]
Beginning LAMARCKIAN GENETIC ALGORITHM (LGA), with a maximum of 2500000 energy evaluations.

Final-Value: -13.776


	FINAL GENETIC ALGORITHM DOCKED STATE
	_______________________________________________


Detailed state:  trans 21.919 -10.286 -1.655 quatxyzw -0.814557 0.102195 0.570241 -0.029638 center 0.698 0.076 -0.072 ntor 8 -7.4234 106.0152 -148.6958 -145.2960 22.8507 -172.3496 -177.4850 60.0457
State:	 21.919 -10.286  -1.655  -0.815  0.102  0.570 -176.603     -7.42  106.02 -148.70 -145.30   22.85 -172.35 -177.49   60.05

DOCKED: MODEL       73
DOCKED: USER    Run = 73
DOCKED: USER    DPF = ligand_dock.biased.dpf
DOCKED: USER  
DOCKED: USER    Estimated Free Energy of Binding    =   -9.60 kcal/mol  [=(1)+(2)+(3)-(4)]
DOCKED: USER    Estimated Inhibition Constant, Ki   =   91.31 nM (nanomolar)  [Temperature = 298.15 K]
DOCKED: USER    
DOCKED: USER    (1) Final Intermolecular Energy     =  -11.99 kcal/mol
DOCKED: USER        vdW + Hbond + desolv Energy     =  -11.99 kcal/mol
DOCKED: USER        Electrostatic Energy            =   +0.00 kcal/mol
DOCKED: USER    (2) Final Total Internal Energy     =   -1.79 kcal/mol
DOCKED: USER    (3) Torsional Free Energy           =   +2.39 kcal/mol
DOCKED: USER    (4) Unbound System's Energy  [=(2)] =   -1.79 kcal/mol
DOCKED: USER    
DOCKED: USER    
DOCKED: USER    NEWDPF move ligand.pdbqt
DOCKED: USER    NEWDPF about 0.698000 0.076000 -0.072000
DOCKED: USER    NEWDPF tran0 21.919475 -10.285898 -1.654524
DOCKED: USER    NEWDPF quaternion0 -0.814557 0.102195 0.570241 -0.029638
DOCKED: USER    NEWDPF axisangle0 -0.814915 0.102240 0.570492 -176.603211
DOCKED: USER    NEWDPF quat0 -0.814915 0.102240 0.570492 -176.603211
DOCKED: USER    NEWDPF dihe0 -7.42 106.02 -148.70 -145.30 22.85 -172.35 -177.49 60.05 
DOCKED: USER  keepresnum = 1 
DOCKED: USER  
DOCKED: REMARK  Name = 
DOCKED: REMARK  9 active torsions:
DOCKED: REMARK  status: ('A' for Active; 'I' for Inactive)
DOCKED: REMARK    1  A    between atoms: C_2  and  C_3
DOCKED: REMARK    2  A    between atoms: C_4  and  C_5
DOCKED: REMARK    3  A    between atoms: C_8  and  C_9
DOCKED: REMARK    4  A    between atoms: C_9  and  N_10
DOCKED: REMARK    5  A    between atoms: N_10  and  C_11
DOCKED: REMARK    6  A    between atoms: C_11  and  C_12
DOCKED: REMARK    7  A    between atoms: C_12  and  C_13
DOCKED: REMARK    8  A    between atoms: C_14  and  C_22
DOCKED: REMARK    9  A    between atoms: N_25  and  O_26
DOCKED: REMARK                            x       y       z     vdW  Elec       q    Type
DOCKED: REMARK                         _______ _______ _______ _____ _____    ______ ____
DOCKED: USER                              x       y       z     vdW  Elec       q    Type
DOCKED: USER                           _______ _______ _______ _____ _____    ______ ____
DOCKED: ROOT
DOCKED: ATOM      1  N   UNL     1      21.690 -10.755  -0.610 -0.64 -0.00    +0.000 N 
DOCKED: ATOM      2  H   UNL     1      22.675 -10.720  -0.347 -0.17 -0.00    +0.000 HD
DOCKED: ATOM      3  H   UNL     1      21.477 -11.602  -1.137 -0.02 -0.00    +0.000 HD
DOCKED: ENDROOT
DOCKED: BRANCH   1   4
DOCKED: ATOM      4  C   UNL     1      21.389  -9.602  -1.469 -0.61 -0.00    +0.000 C 
DOCKED: BRANCH   4   8
DOCKED: ATOM      5  C   UNL     1      19.379 -10.872  -5.083 -0.37 -0.00    +0.000 A 
DOCKED: ATOM      6  C   UNL     1      20.776 -10.692  -5.065 -0.41 -0.00    +0.000 A 
DOCKED: ATOM      7  C   UNL     1      21.423 -10.287  -3.893 -0.44 -0.00    +0.000 A 
DOCKED: ATOM      8  C   UNL     1      20.693 -10.075  -2.714 -0.47 -0.00    +0.000 A 
DOCKED: ATOM      9  C   UNL     1      19.302 -10.256  -2.727 -0.35 -0.00    +0.000 A 
DOCKED: ATOM     10  C   UNL     1      18.655 -10.663  -3.897 -0.27 -0.00    +0.000 A 
DOCKED: BRANCH   5  12
DOCKED: ATOM     11  C   UNL     1      17.306 -11.332  -6.387 -0.36 -0.00    +0.000 C 
DOCKED: ATOM     12  C   UNL     1      18.644 -11.312  -6.294 -0.38 -0.00    +0.000 C 
DOCKED: BRANCH  11  14
DOCKED: ATOM     13  O   UNL     1      16.805 -11.180  -8.682 -0.25 -0.00    +0.000 OA
DOCKED: ATOM     14  C   UNL     1      16.578 -11.774  -7.595 -0.37 -0.00    +0.000 C 
DOCKED: ATOM     15  N   UNL     1      15.609 -12.832  -7.564 -0.40 +0.00    +0.000 N 
DOCKED: ATOM     16  H   UNL     1      15.353 -13.238  -6.705 -0.03 +0.00    +0.000 HD
DOCKED: BRANCH  15  17
DOCKED: ATOM     17  O   UNL     1      15.046 -13.272  -8.715 -0.44 +0.00    +0.000 OA
DOCKED: ATOM     18  H   UNL     1      15.315 -12.696  -9.448 -0.02 +0.00    +0.000 HD
DOCKED: ENDBRANCH  15  17
DOCKED: ENDBRANCH  11  14
DOCKED: ENDBRANCH   5  12
DOCKED: ENDBRANCH   4   8
DOCKED: ENDBRANCH   1   4
DOCKED: BRANCH   1  19
DOCKED: ATOM     19  C   UNL     1      20.873 -10.766   0.613 -0.69 -0.00    +0.000 C 
DOCKED: BRANCH  19  20
DOCKED: ATOM     20  C   UNL     1      19.840 -11.906   0.619 -0.59 -0.00    +0.000 C 
DOCKED: BRANCH  20  21
DOCKED: ATOM     21  C   UNL     1      18.660 -11.537   1.471 -0.52 -0.00    +0.000 A 
DOCKED: ATOM     22  C   UNL     1      18.671 -11.107   2.799 -0.51 -0.00    +0.000 A 
DOCKED: ATOM     23  N   UNL     1      17.409 -10.933   3.256 -0.48 +0.00    +0.000 N 
DOCKED: ATOM     24  C   UNL     1      16.600 -11.270   2.237 -0.40 +0.00    +0.000 A 
DOCKED: ATOM     25  C   UNL     1      17.324 -11.650   1.135 -0.43 +0.00    +0.000 A 
DOCKED: ATOM     26  C   UNL     1      16.704 -12.070  -0.042 -0.43 +0.00    +0.000 A 
DOCKED: ATOM     27  C   UNL     1      15.297 -12.086  -0.074 -0.42 +0.00    +0.000 A 
DOCKED: ATOM     28  C   UNL     1      14.552 -11.690   1.058 -0.40 +0.00    +0.000 A 
DOCKED: ATOM     29  C   UNL     1      15.205 -11.276   2.234 -0.42 +0.00    +0.000 A 
DOCKED: ATOM     30  C   UNL     1      19.892 -10.838   3.620 -0.66 -0.00    +0.000 C 
DOCKED: ATOM     31  H   UNL     1      17.140 -10.622   4.151 -0.02 +0.00    +0.000 HD
DOCKED: ENDBRANCH  20  21
DOCKED: ENDBRANCH  19  20
DOCKED: ENDBRANCH   1  19
DOCKED: TORSDOF 8
DOCKED: TER
DOCKED: ENDMDL
________________________________________________________________________________


	BEGINNING GENETIC ALGORITHM DOCKING 74 of 100
Run: 74 Seed: 235180188 1725419355 [ Run 74 of 100 GA/GALS ]
Beginning LAMARCKIAN GENETIC ALGORITHM (LGA), with a maximum of 2500000 energy evaluations.

Final-Value: -13.931


	FINAL GENETIC ALGORITHM DOCKED STATE
	_______________________________________________


Detailed state:  trans 21.033 -7.025 -4.931 quatxyzw -0.021735 -0.970139 0.179738 -0.161404 center 0.698 0.076 -0.072 ntor 8 13.4708 93.7032 -99.4056 24.6827 59.8296 121.4425 140.8296 -76.9364
State:	 21.033  -7.025  -4.931  -0.022 -0.983  0.182 -161.423     13.47   93.70  -99.41   24.68   59.83  121.44  140.83  -76.94

DOCKED: MODEL       74
DOCKED: USER    Run = 74
DOCKED: USER    DPF = ligand_dock.biased.dpf
DOCKED: USER  
DOCKED: USER    Estimated Free Energy of Binding    =   -9.66 kcal/mol  [=(1)+(2)+(3)-(4)]
DOCKED: USER    Estimated Inhibition Constant, Ki   =   83.30 nM (nanomolar)  [Temperature = 298.15 K]
DOCKED: USER    
DOCKED: USER    (1) Final Intermolecular Energy     =  -12.04 kcal/mol
DOCKED: USER        vdW + Hbond + desolv Energy     =  -12.04 kcal/mol
DOCKED: USER        Electrostatic Energy            =   +0.00 kcal/mol
DOCKED: USER    (2) Final Total Internal Energy     =   -1.89 kcal/mol
DOCKED: USER    (3) Torsional Free Energy           =   +2.39 kcal/mol
DOCKED: USER    (4) Unbound System's Energy  [=(2)] =   -1.89 kcal/mol
DOCKED: USER    
DOCKED: USER    
DOCKED: USER    NEWDPF move ligand.pdbqt
DOCKED: USER    NEWDPF about 0.698000 0.076000 -0.072000
DOCKED: USER    NEWDPF tran0 21.033121 -7.025051 -4.930513
DOCKED: USER    NEWDPF quaternion0 -0.021735 -0.970139 0.179738 -0.161404
DOCKED: USER    NEWDPF axisangle0 -0.022024 -0.983029 0.182126 -161.423188
DOCKED: USER    NEWDPF quat0 -0.022024 -0.983029 0.182126 -161.423188
DOCKED: USER    NEWDPF dihe0 13.47 93.70 -99.41 24.68 59.83 121.44 140.83 -76.94 
DOCKED: USER  keepresnum = 1 
DOCKED: USER  
DOCKED: REMARK  Name = 
DOCKED: REMARK  9 active torsions:
DOCKED: REMARK  status: ('A' for Active; 'I' for Inactive)
DOCKED: REMARK    1  A    between atoms: C_2  and  C_3
DOCKED: REMARK    2  A    between atoms: C_4  and  C_5
DOCKED: REMARK    3  A    between atoms: C_8  and  C_9
DOCKED: REMARK    4  A    between atoms: C_9  and  N_10
DOCKED: REMARK    5  A    between atoms: N_10  and  C_11
DOCKED: REMARK    6  A    between atoms: C_11  and  C_12
DOCKED: REMARK    7  A    between atoms: C_12  and  C_13
DOCKED: REMARK    8  A    between atoms: C_14  and  C_22
DOCKED: REMARK    9  A    between atoms: N_25  and  O_26
DOCKED: REMARK                            x       y       z     vdW  Elec       q    Type
DOCKED: REMARK                         _______ _______ _______ _____ _____    ______ ____
DOCKED: USER                              x       y       z     vdW  Elec       q    Type
DOCKED: USER                           _______ _______ _______ _____ _____    ______ ____
DOCKED: ROOT
DOCKED: ATOM      1  N   UNL     1      22.035  -6.508  -5.235 -0.17 -0.00    +0.000 N 
DOCKED: ATOM      2  H   UNL     1      22.289  -6.360  -4.258 -0.02 -0.00    +0.000 HD
DOCKED: ATOM      3  H   UNL     1      21.438  -5.757  -5.581 +0.00 -0.00    +0.000 HD
DOCKED: ENDROOT
DOCKED: BRANCH   1   4
DOCKED: ATOM      4  C   UNL     1      21.285  -7.766  -5.344 -0.22 -0.00    +0.000 C 
DOCKED: BRANCH   4   8
DOCKED: ATOM      5  C   UNL     1      21.288  -9.852  -1.555 -0.55 -0.00    +0.000 A 
DOCKED: ATOM      6  C   UNL     1      21.499 -10.552  -2.759 -0.43 -0.00    +0.000 A 
DOCKED: ATOM      7  C   UNL     1      21.503  -9.874  -3.982 -0.39 -0.00    +0.000 A 
DOCKED: ATOM      8  C   UNL     1      21.318  -8.484  -4.025 -0.32 -0.00    +0.000 A 
DOCKED: ATOM      9  C   UNL     1      21.111  -7.782  -2.828 -0.39 -0.00    +0.000 A 
DOCKED: ATOM     10  C   UNL     1      21.109  -8.459  -1.605 -0.45 -0.00    +0.000 A 
DOCKED: BRANCH   5  12
DOCKED: ATOM     11  C   UNL     1      20.250 -10.482   0.621 -0.65 -0.00    +0.000 C 
DOCKED: ATOM     12  C   UNL     1      21.287 -10.520  -0.230 -0.71 -0.00    +0.000 C 
DOCKED: BRANCH  11  14
DOCKED: ATOM     13  O   UNL     1      20.216 -12.405   1.979 -1.67 -0.00    +0.000 OA
DOCKED: ATOM     14  C   UNL     1      20.254 -11.147   1.941 -0.75 -0.00    +0.000 C 
DOCKED: ATOM     15  N   UNL     1      20.273 -10.411   3.172 -0.64 -0.00    +0.000 N 
DOCKED: ATOM     16  H   UNL     1      20.205  -9.429   3.158 -0.58 -0.00    +0.000 HD
DOCKED: BRANCH  15  17
DOCKED: ATOM     17  O   UNL     1      20.383 -11.064   4.354 -0.71 -0.00    +0.000 OA
DOCKED: ATOM     18  H   UNL     1      20.650 -11.982   4.193 -0.50 -0.00    +0.000 HD
DOCKED: ENDBRANCH  15  17
DOCKED: ENDBRANCH  11  14
DOCKED: ENDBRANCH   5  12
DOCKED: ENDBRANCH   4   8
DOCKED: ENDBRANCH   1   4
DOCKED: BRANCH   1  19
DOCKED: ATOM     19  C   UNL     1      23.262  -6.520  -6.047 -0.14 -0.00    +0.000 C 
DOCKED: BRANCH  19  20
DOCKED: ATOM     20  C   UNL     1      23.030  -7.098  -7.453 -0.11 -0.00    +0.000 C 
DOCKED: BRANCH  20  21
DOCKED: ATOM     21  C   UNL     1      23.825  -8.358  -7.637 -0.16 -0.00    +0.000 A 
DOCKED: ATOM     22  C   UNL     1      23.337  -9.648  -7.854 -0.21 -0.00    +0.000 A 
DOCKED: ATOM     23  N   UNL     1      24.352 -10.542  -7.904 -0.32 -0.00    +0.000 N 
DOCKED: ATOM     24  C   UNL     1      25.475  -9.834  -7.697 -0.31 -0.00    +0.000 A 
DOCKED: ATOM     25  C   UNL     1      25.195  -8.501  -7.523 -0.21 -0.00    +0.000 A 
DOCKED: ATOM     26  C   UNL     1      26.199  -7.567  -7.267 -0.19 -0.00    +0.000 A 
DOCKED: ATOM     27  C   UNL     1      27.526  -8.030  -7.198 -0.26 -0.00    +0.000 A 
DOCKED: ATOM     28  C   UNL     1      27.815  -9.401  -7.382 -0.41 -0.00    +0.000 A 
DOCKED: ATOM     29  C   UNL     1      26.780 -10.321  -7.634 -0.31 -0.00    +0.000 A 
DOCKED: ATOM     30  C   UNL     1      21.900 -10.018  -8.042 -0.23 -0.00    +0.000 C 
DOCKED: ATOM     31  H   UNL     1      24.281 -11.512  -8.060 -0.02 -0.00    +0.000 HD
DOCKED: ENDBRANCH  20  21
DOCKED: ENDBRANCH  19  20
DOCKED: ENDBRANCH   1  19
DOCKED: TORSDOF 8
DOCKED: TER
DOCKED: ENDMDL
________________________________________________________________________________


	BEGINNING GENETIC ALGORITHM DOCKING 75 of 100
Run: 75 Seed: 1631744336 999456241 [ Run 75 of 100 GA/GALS ]
Beginning LAMARCKIAN GENETIC ALGORITHM (LGA), with a maximum of 2500000 energy evaluations.

Final-Value: -15.028


	FINAL GENETIC ALGORITHM DOCKED STATE
	_______________________________________________


Detailed state:  trans 21.553 -8.500 -5.726 quatxyzw -0.526692 -0.711737 0.103736 -0.453061 center 0.698 0.076 -0.072 ntor 8 11.2690 -1.1749 37.4033 155.7332 61.3355 -37.6103 156.3186 -68.9256
State:	 21.553  -8.500  -5.726  -0.591 -0.798  0.116 -126.120     11.27   -1.17   37.40  155.73   61.34  -37.61  156.32  -68.93

DOCKED: MODEL       75
DOCKED: USER    Run = 75
DOCKED: USER    DPF = ligand_dock.biased.dpf
DOCKED: USER  
DOCKED: USER    Estimated Free Energy of Binding    =  -11.02 kcal/mol  [=(1)+(2)+(3)-(4)]
DOCKED: USER    Estimated Inhibition Constant, Ki   =    8.39 nM (nanomolar)  [Temperature = 298.15 K]
DOCKED: USER    
DOCKED: USER    (1) Final Intermolecular Energy     =  -13.40 kcal/mol
DOCKED: USER        vdW + Hbond + desolv Energy     =  -13.40 kcal/mol
DOCKED: USER        Electrostatic Energy            =   +0.00 kcal/mol
DOCKED: USER    (2) Final Total Internal Energy     =   -1.62 kcal/mol
DOCKED: USER    (3) Torsional Free Energy           =   +2.39 kcal/mol
DOCKED: USER    (4) Unbound System's Energy  [=(2)] =   -1.62 kcal/mol
DOCKED: USER    
DOCKED: USER    
DOCKED: USER    NEWDPF move ligand.pdbqt
DOCKED: USER    NEWDPF about 0.698000 0.076000 -0.072000
DOCKED: USER    NEWDPF tran0 21.553047 -8.499835 -5.726162
DOCKED: USER    NEWDPF quaternion0 -0.526692 -0.711737 0.103736 -0.453061
DOCKED: USER    NEWDPF axisangle0 -0.590807 -0.798377 0.116364 -126.119551
DOCKED: USER    NEWDPF quat0 -0.590807 -0.798377 0.116364 -126.119551
DOCKED: USER    NEWDPF dihe0 11.27 -1.17 37.40 155.73 61.34 -37.61 156.32 -68.93 
DOCKED: USER  keepresnum = 1 
DOCKED: USER  
DOCKED: REMARK  Name = 
DOCKED: REMARK  9 active torsions:
DOCKED: REMARK  status: ('A' for Active; 'I' for Inactive)
DOCKED: REMARK    1  A    between atoms: C_2  and  C_3
DOCKED: REMARK    2  A    between atoms: C_4  and  C_5
DOCKED: REMARK    3  A    between atoms: C_8  and  C_9
DOCKED: REMARK    4  A    between atoms: C_9  and  N_10
DOCKED: REMARK    5  A    between atoms: N_10  and  C_11
DOCKED: REMARK    6  A    between atoms: C_11  and  C_12
DOCKED: REMARK    7  A    between atoms: C_12  and  C_13
DOCKED: REMARK    8  A    between atoms: C_14  and  C_22
DOCKED: REMARK    9  A    between atoms: N_25  and  O_26
DOCKED: REMARK                            x       y       z     vdW  Elec       q    Type
DOCKED: REMARK                         _______ _______ _______ _____ _____    ______ ____
DOCKED: USER                              x       y       z     vdW  Elec       q    Type
DOCKED: USER                           _______ _______ _______ _____ _____    ______ ____
DOCKED: ROOT
DOCKED: ATOM      1  N   UNL     1      22.138  -9.167  -6.486 -0.23 -0.00    +0.000 N 
DOCKED: ATOM      2  H   UNL     1      22.745  -9.524  -5.748 -0.02 -0.00    +0.000 HD
DOCKED: ATOM      3  H   UNL     1      22.485  -8.283  -6.857 -0.00 -0.00    +0.000 HD
DOCKED: ENDROOT
DOCKED: BRANCH   1   4
DOCKED: ATOM      4  C   UNL     1      20.803  -8.926  -5.924 -0.21 -0.00    +0.000 C 
DOCKED: BRANCH   4   8
DOCKED: ATOM      5  C   UNL     1      20.735  -9.889  -1.707 -0.53 -0.00    +0.000 A 
DOCKED: ATOM      6  C   UNL     1      19.866 -10.539  -2.606 -0.42 -0.00    +0.000 A 
DOCKED: ATOM      7  C   UNL     1      19.895 -10.230  -3.969 -0.36 -0.00    +0.000 A 
DOCKED: ATOM      8  C   UNL     1      20.803  -9.283  -4.464 -0.31 -0.00    +0.000 A 
DOCKED: ATOM      9  C   UNL     1      21.672  -8.634  -3.574 -0.29 -0.00    +0.000 A 
DOCKED: ATOM     10  C   UNL     1      21.646  -8.945  -2.211 -0.28 -0.00    +0.000 A 
DOCKED: BRANCH   5  12
DOCKED: ATOM     11  C   UNL     1      20.180 -11.270   0.291 -0.65 -0.00    +0.000 C 
DOCKED: ATOM     12  C   UNL     1      20.756 -10.188  -0.254 -0.68 -0.00    +0.000 C 
DOCKED: BRANCH  11  14
DOCKED: ATOM     13  O   UNL     1      19.890 -12.722   2.121 -1.53 -0.00    +0.000 OA
DOCKED: ATOM     14  C   UNL     1      20.200 -11.563   1.740 -0.77 -0.00    +0.000 C 
DOCKED: ATOM     15  N   UNL     1      20.533 -10.570   2.720 -0.63 -0.00    +0.000 N 
DOCKED: ATOM     16  H   UNL     1      20.682  -9.637   2.442 -0.54 -0.00    +0.000 HD
DOCKED: BRANCH  15  17
DOCKED: ATOM     17  O   UNL     1      20.642 -10.912   4.026 -0.79 -0.00    +0.000 OA
DOCKED: ATOM     18  H   UNL     1      20.643 -11.879   4.108 -0.49 -0.00    +0.000 HD
DOCKED: ENDBRANCH  15  17
DOCKED: ENDBRANCH  11  14
DOCKED: ENDBRANCH   5  12
DOCKED: ENDBRANCH   4   8
DOCKED: ENDBRANCH   1   4
DOCKED: BRANCH   1  19
DOCKED: ATOM     19  C   UNL     1      22.109 -10.140  -7.589 -0.28 -0.00    +0.000 C 
DOCKED: BRANCH  19  20
DOCKED: ATOM     20  C   UNL     1      22.866 -11.435  -7.248 -0.47 -0.00    +0.000 C 
DOCKED: BRANCH  20  21
DOCKED: ATOM     21  C   UNL     1      24.066 -11.587  -8.138 -0.40 -0.00    +0.000 A 
DOCKED: ATOM     22  C   UNL     1      24.275 -12.549  -9.128 -0.38 -0.00    +0.000 A 
DOCKED: ATOM     23  N   UNL     1      25.505 -12.412  -9.676 -0.35 -0.00    +0.000 N 
DOCKED: ATOM     24  C   UNL     1      26.085 -11.388  -9.026 -0.33 -0.00    +0.000 A 
DOCKED: ATOM     25  C   UNL     1      25.243 -10.864  -8.077 -0.36 -0.00    +0.000 A 
DOCKED: ATOM     26  C   UNL     1      25.632  -9.806  -7.254 -0.23 -0.00    +0.000 A 
DOCKED: ATOM     27  C   UNL     1      26.924  -9.278  -7.430 -0.35 -0.00    +0.000 A 
DOCKED: ATOM     28  C   UNL     1      27.789  -9.814  -8.410 -0.34 -0.00    +0.000 A 
DOCKED: ATOM     29  C   UNL     1      27.371 -10.884  -9.221 -0.31 -0.00    +0.000 A 
DOCKED: ATOM     30  C   UNL     1      23.285 -13.580  -9.566 -0.39 -0.00    +0.000 C 
DOCKED: ATOM     31  H   UNL     1      25.895 -12.952 -10.401 -0.48 -0.00    +0.000 HD
DOCKED: ENDBRANCH  20  21
DOCKED: ENDBRANCH  19  20
DOCKED: ENDBRANCH   1  19
DOCKED: TORSDOF 8
DOCKED: TER
DOCKED: ENDMDL
________________________________________________________________________________


	BEGINNING GENETIC ALGORITHM DOCKING 76 of 100
Run: 76 Seed: 1524367170 1891779893 [ Run 76 of 100 GA/GALS ]
Beginning LAMARCKIAN GENETIC ALGORITHM (LGA), with a maximum of 2500000 energy evaluations.

Final-Value: -13.771


	FINAL GENETIC ALGORITHM DOCKED STATE
	_______________________________________________


Detailed state:  trans 21.627 -9.995 -6.063 quatxyzw -0.111244 -0.317586 -0.845826 -0.413935 center 0.698 0.076 -0.072 ntor 8 72.0826 -131.7895 111.6725 6.1605 85.3518 -33.5671 -148.6800 51.9507
State:	 21.627  -9.995  -6.063  -0.122 -0.349 -0.929 -131.095     72.08 -131.79  111.67    6.16   85.35  -33.57 -148.68   51.95

DOCKED: MODEL       76
DOCKED: USER    Run = 76
DOCKED: USER    DPF = ligand_dock.biased.dpf
DOCKED: USER  
DOCKED: USER    Estimated Free Energy of Binding    =  -10.25 kcal/mol  [=(1)+(2)+(3)-(4)]
DOCKED: USER    Estimated Inhibition Constant, Ki   =   30.58 nM (nanomolar)  [Temperature = 298.15 K]
DOCKED: USER    
DOCKED: USER    (1) Final Intermolecular Energy     =  -12.64 kcal/mol
DOCKED: USER        vdW + Hbond + desolv Energy     =  -12.64 kcal/mol
DOCKED: USER        Electrostatic Energy            =   +0.00 kcal/mol
DOCKED: USER    (2) Final Total Internal Energy     =   -1.13 kcal/mol
DOCKED: USER    (3) Torsional Free Energy           =   +2.39 kcal/mol
DOCKED: USER    (4) Unbound System's Energy  [=(2)] =   -1.13 kcal/mol
DOCKED: USER    
DOCKED: USER    
DOCKED: USER    NEWDPF move ligand.pdbqt
DOCKED: USER    NEWDPF about 0.698000 0.076000 -0.072000
DOCKED: USER    NEWDPF tran0 21.626521 -9.995380 -6.062515
DOCKED: USER    NEWDPF quaternion0 -0.111244 -0.317586 -0.845826 -0.413935
DOCKED: USER    NEWDPF axisangle0 -0.122206 -0.348878 -0.929166 -131.095431
DOCKED: USER    NEWDPF quat0 -0.122206 -0.348878 -0.929166 -131.095431
DOCKED: USER    NEWDPF dihe0 72.08 -131.79 111.67 6.16 85.35 -33.57 -148.68 51.95 
DOCKED: USER  keepresnum = 1 
DOCKED: USER  
DOCKED: REMARK  Name = 
DOCKED: REMARK  9 active torsions:
DOCKED: REMARK  status: ('A' for Active; 'I' for Inactive)
DOCKED: REMARK    1  A    between atoms: C_2  and  C_3
DOCKED: REMARK    2  A    between atoms: C_4  and  C_5
DOCKED: REMARK    3  A    between atoms: C_8  and  C_9
DOCKED: REMARK    4  A    between atoms: C_9  and  N_10
DOCKED: REMARK    5  A    between atoms: N_10  and  C_11
DOCKED: REMARK    6  A    between atoms: C_11  and  C_12
DOCKED: REMARK    7  A    between atoms: C_12  and  C_13
DOCKED: REMARK    8  A    between atoms: C_14  and  C_22
DOCKED: REMARK    9  A    between atoms: N_25  and  O_26
DOCKED: REMARK                            x       y       z     vdW  Elec       q    Type
DOCKED: REMARK                         _______ _______ _______ _____ _____    ______ ____
DOCKED: USER                              x       y       z     vdW  Elec       q    Type
DOCKED: USER                           _______ _______ _______ _____ _____    ______ ____
DOCKED: ROOT
DOCKED: ATOM      1  N   UNL     1      22.714  -9.779  -6.430 -0.29 -0.00    +0.000 N 
DOCKED: ATOM      2  H   UNL     1      22.577 -10.353  -7.262 -0.00 -0.00    +0.000 HD
DOCKED: ATOM      3  H   UNL     1      23.000 -10.344  -5.632 -0.01 -0.00    +0.000 HD
DOCKED: ENDROOT
DOCKED: BRANCH   1   4
DOCKED: ATOM      4  C   UNL     1      21.441  -9.130  -6.089 -0.26 -0.00    +0.000 C 
DOCKED: BRANCH   4   8
DOCKED: ATOM      5  C   UNL     1      20.176 -10.263  -2.110 -0.45 -0.00    +0.000 A 
DOCKED: ATOM      6  C   UNL     1      20.237 -11.220  -3.143 -0.21 -0.00    +0.000 A 
DOCKED: ATOM      7  C   UNL     1      20.652 -10.851  -4.426 -0.45 -0.00    +0.000 A 
DOCKED: ATOM      8  C   UNL     1      21.033  -9.529  -4.698 -0.33 -0.00    +0.000 A 
DOCKED: ATOM      9  C   UNL     1      20.976  -8.574  -3.673 -0.35 -0.00    +0.000 A 
DOCKED: ATOM     10  C   UNL     1      20.563  -8.942  -2.389 -0.37 -0.00    +0.000 A 
DOCKED: BRANCH   5  12
DOCKED: ATOM     11  C   UNL     1      20.602 -11.014   0.228 -0.67 -0.00    +0.000 C 
DOCKED: ATOM     12  C   UNL     1      19.755 -10.603  -0.728 -0.54 -0.00    +0.000 C 
DOCKED: BRANCH  11  14
DOCKED: ATOM     13  O   UNL     1      19.407 -12.335   1.766 -1.54 -0.00    +0.000 OA
DOCKED: ATOM     14  C   UNL     1      20.178 -11.354   1.602 -0.75 -0.00    +0.000 C 
DOCKED: ATOM     15  N   UNL     1      20.593 -10.591   2.744 -0.63 -0.00    +0.000 N 
DOCKED: ATOM     16  H   UNL     1      21.116  -9.767   2.621 -0.59 -0.00    +0.000 HD
DOCKED: BRANCH  15  17
DOCKED: ATOM     17  O   UNL     1      20.265 -11.004   3.993 -0.82 -0.00    +0.000 OA
DOCKED: ATOM     18  H   UNL     1      20.790 -11.786   4.224 -0.47 -0.00    +0.000 HD
DOCKED: ENDBRANCH  15  17
DOCKED: ENDBRANCH  11  14
DOCKED: ENDBRANCH   5  12
DOCKED: ENDBRANCH   4   8
DOCKED: ENDBRANCH   1   4
DOCKED: BRANCH   1  19
DOCKED: ATOM     19  C   UNL     1      23.781  -8.802  -6.699 -0.10 -0.00    +0.000 C 
DOCKED: BRANCH  19  20
DOCKED: ATOM     20  C   UNL     1      24.189  -8.772  -8.181 -0.18 -0.00    +0.000 C 
DOCKED: BRANCH  20  21
DOCKED: ATOM     21  C   UNL     1      25.308  -9.740  -8.434 -0.24 -0.00    +0.000 A 
DOCKED: ATOM     22  C   UNL     1      25.213 -11.038  -8.941 -0.31 -0.00    +0.000 A 
DOCKED: ATOM     23  N   UNL     1      26.429 -11.632  -8.966 -0.37 -0.00    +0.000 N 
DOCKED: ATOM     24  C   UNL     1      27.288 -10.732  -8.458 -0.37 -0.00    +0.000 A 
DOCKED: ATOM     25  C   UNL     1      26.643  -9.570  -8.116 -0.30 -0.00    +0.000 A 
DOCKED: ATOM     26  C   UNL     1      27.321  -8.494  -7.543 -0.27 -0.00    +0.000 A 
DOCKED: ATOM     27  C   UNL     1      28.706  -8.629  -7.330 -0.31 -0.00    +0.000 A 
DOCKED: ATOM     28  C   UNL     1      29.371  -9.823  -7.686 -0.41 -0.00    +0.000 A 
DOCKED: ATOM     29  C   UNL     1      28.658 -10.893  -8.257 -0.31 -0.00    +0.000 A 
DOCKED: ATOM     30  C   UNL     1      23.961 -11.695  -9.427 -0.31 -0.00    +0.000 C 
DOCKED: ATOM     31  H   UNL     1      26.640 -12.537  -9.290 -0.44 -0.00    +0.000 HD
DOCKED: ENDBRANCH  20  21
DOCKED: ENDBRANCH  19  20
DOCKED: ENDBRANCH   1  19
DOCKED: TORSDOF 8
DOCKED: TER
DOCKED: ENDMDL
________________________________________________________________________________


	BEGINNING GENETIC ALGORITHM DOCKING 77 of 100
Run: 77 Seed: 998067055 597852900 [ Run 77 of 100 GA/GALS ]
Beginning LAMARCKIAN GENETIC ALGORITHM (LGA), with a maximum of 2500000 energy evaluations.

Final-Value: -14.024


	FINAL GENETIC ALGORITHM DOCKED STATE
	_______________________________________________


Detailed state:  trans 22.181 -9.695 -5.618 quatxyzw 0.060649 0.541682 0.508561 0.666535 center 0.698 0.076 -0.072 ntor 8 31.2387 -45.7677 -137.3274 14.5900 135.5378 -35.3055 -24.8180 41.9249
State:	 22.181  -9.695  -5.618   0.081  0.727  0.682 96.400     31.24  -45.77 -137.33   14.59  135.54  -35.31  -24.82   41.92

DOCKED: MODEL       77
DOCKED: USER    Run = 77
DOCKED: USER    DPF = ligand_dock.biased.dpf
DOCKED: USER  
DOCKED: USER    Estimated Free Energy of Binding    =  -10.02 kcal/mol  [=(1)+(2)+(3)-(4)]
DOCKED: USER    Estimated Inhibition Constant, Ki   =   45.12 nM (nanomolar)  [Temperature = 298.15 K]
DOCKED: USER    
DOCKED: USER    (1) Final Intermolecular Energy     =  -12.41 kcal/mol
DOCKED: USER        vdW + Hbond + desolv Energy     =  -12.41 kcal/mol
DOCKED: USER        Electrostatic Energy            =   +0.00 kcal/mol
DOCKED: USER    (2) Final Total Internal Energy     =   -1.62 kcal/mol
DOCKED: USER    (3) Torsional Free Energy           =   +2.39 kcal/mol
DOCKED: USER    (4) Unbound System's Energy  [=(2)] =   -1.62 kcal/mol
DOCKED: USER    
DOCKED: USER    
DOCKED: USER    NEWDPF move ligand.pdbqt
DOCKED: USER    NEWDPF about 0.698000 0.076000 -0.072000
DOCKED: USER    NEWDPF tran0 22.181091 -9.695290 -5.617895
DOCKED: USER    NEWDPF quaternion0 0.060649 0.541682 0.508561 0.666535
DOCKED: USER    NEWDPF axisangle0 0.081356 0.726627 0.682198 96.399674
DOCKED: USER    NEWDPF quat0 0.081356 0.726627 0.682198 96.399674
DOCKED: USER    NEWDPF dihe0 31.24 -45.77 -137.33 14.59 135.54 -35.31 -24.82 41.92 
DOCKED: USER  keepresnum = 1 
DOCKED: USER  
DOCKED: REMARK  Name = 
DOCKED: REMARK  9 active torsions:
DOCKED: REMARK  status: ('A' for Active; 'I' for Inactive)
DOCKED: REMARK    1  A    between atoms: C_2  and  C_3
DOCKED: REMARK    2  A    between atoms: C_4  and  C_5
DOCKED: REMARK    3  A    between atoms: C_8  and  C_9
DOCKED: REMARK    4  A    between atoms: C_9  and  N_10
DOCKED: REMARK    5  A    between atoms: N_10  and  C_11
DOCKED: REMARK    6  A    between atoms: C_11  and  C_12
DOCKED: REMARK    7  A    between atoms: C_12  and  C_13
DOCKED: REMARK    8  A    between atoms: C_14  and  C_22
DOCKED: REMARK    9  A    between atoms: N_25  and  O_26
DOCKED: REMARK                            x       y       z     vdW  Elec       q    Type
DOCKED: REMARK                         _______ _______ _______ _____ _____    ______ ____
DOCKED: USER                              x       y       z     vdW  Elec       q    Type
DOCKED: USER                           _______ _______ _______ _____ _____    ______ ____
DOCKED: ROOT
DOCKED: ATOM      1  N   UNL     1      22.864  -8.960  -6.216 -0.25 -0.00    +0.000 N 
DOCKED: ATOM      2  H   UNL     1      23.354  -9.735  -6.663 -0.02 -0.00    +0.000 HD
DOCKED: ATOM      3  H   UNL     1      23.270  -8.739  -5.307 +0.02 -0.00    +0.000 HD
DOCKED: ENDROOT
DOCKED: BRANCH   1   4
DOCKED: ATOM      4  C   UNL     1      21.463  -9.348  -6.002 -0.28 -0.00    +0.000 C 
DOCKED: BRANCH   4   8
DOCKED: ATOM      5  C   UNL     1      20.822  -9.842  -1.752 -0.53 -0.00    +0.000 A 
DOCKED: ATOM      6  C   UNL     1      21.281  -8.615  -2.271 -0.44 -0.00    +0.000 A 
DOCKED: ATOM      7  C   UNL     1      21.481  -8.456  -3.645 -0.33 -0.00    +0.000 A 
DOCKED: ATOM      8  C   UNL     1      21.209  -9.510  -4.529 -0.34 -0.00    +0.000 A 
DOCKED: ATOM      9  C   UNL     1      20.750 -10.734  -4.019 -0.45 -0.00    +0.000 A 
DOCKED: ATOM     10  C   UNL     1      20.547 -10.892  -2.645 -0.36 -0.00    +0.000 A 
DOCKED: BRANCH   5  12
DOCKED: ATOM     11  C   UNL     1      20.524 -11.273   0.266 -0.63 -0.00    +0.000 C 
DOCKED: ATOM     12  C   UNL     1      20.581 -10.060  -0.305 -0.65 -0.00    +0.000 C 
DOCKED: BRANCH  11  14
DOCKED: ATOM     13  O   UNL     1      19.698 -12.542   2.069 -1.57 -0.00    +0.000 OA
DOCKED: ATOM     14  C   UNL     1      20.281 -11.485   1.708 -0.77 -0.00    +0.000 C 
DOCKED: ATOM     15  N   UNL     1      20.660 -10.522   2.702 -0.59 -0.00    +0.000 N 
DOCKED: ATOM     16  H   UNL     1      21.027  -9.651   2.426 -0.56 -0.00    +0.000 HD
DOCKED: BRANCH  15  17
DOCKED: ATOM     17  O   UNL     1      20.513 -10.808   4.018 -0.80 -0.00    +0.000 OA
DOCKED: ATOM     18  H   UNL     1      20.627 -11.760   4.157 -0.45 -0.00    +0.000 HD
DOCKED: ENDBRANCH  15  17
DOCKED: ENDBRANCH  11  14
DOCKED: ENDBRANCH   5  12
DOCKED: ENDBRANCH   4   8
DOCKED: ENDBRANCH   1   4
DOCKED: BRANCH   1  19
DOCKED: ATOM     19  C   UNL     1      22.987  -7.767  -7.068 -0.17 -0.00    +0.000 C 
DOCKED: BRANCH  19  20
DOCKED: ATOM     20  C   UNL     1      23.622  -8.083  -8.432 -0.11 -0.00    +0.000 C 
DOCKED: BRANCH  20  21
DOCKED: ATOM     21  C   UNL     1      24.754  -9.056  -8.267 -0.18 -0.00    +0.000 A 
DOCKED: ATOM     22  C   UNL     1      24.768 -10.411  -8.609 -0.26 -0.00    +0.000 A 
DOCKED: ATOM     23  N   UNL     1      25.941 -10.982  -8.249 -0.40 -0.00    +0.000 N 
DOCKED: ATOM     24  C   UNL     1      26.660 -10.008  -7.664 -0.37 -0.00    +0.000 A 
DOCKED: ATOM     25  C   UNL     1      25.968  -8.823  -7.649 -0.25 -0.00    +0.000 A 
DOCKED: ATOM     26  C   UNL     1      26.498  -7.670  -7.069 -0.22 -0.00    +0.000 A 
DOCKED: ATOM     27  C   UNL     1      27.782  -7.752  -6.499 -0.32 -0.00    +0.000 A 
DOCKED: ATOM     28  C   UNL     1      28.496  -8.971  -6.519 -0.42 -0.00    +0.000 A 
DOCKED: ATOM     29  C   UNL     1      27.933 -10.119  -7.106 -0.37 -0.00    +0.000 A 
DOCKED: ATOM     30  C   UNL     1      23.668 -11.148  -9.303 -0.26 -0.00    +0.000 C 
DOCKED: ATOM     31  H   UNL     1      26.212 -11.918  -8.389 -0.08 -0.00    +0.000 HD
DOCKED: ENDBRANCH  20  21
DOCKED: ENDBRANCH  19  20
DOCKED: ENDBRANCH   1  19
DOCKED: TORSDOF 8
DOCKED: TER
DOCKED: ENDMDL
________________________________________________________________________________


	BEGINNING GENETIC ALGORITHM DOCKING 78 of 100
Run: 78 Seed: 464619701 1618161453 [ Run 78 of 100 GA/GALS ]
Beginning LAMARCKIAN GENETIC ALGORITHM (LGA), with a maximum of 2500000 energy evaluations.

Final-Value: -12.553


	FINAL GENETIC ALGORITHM DOCKED STATE
	_______________________________________________


Detailed state:  trans 22.524 -8.225 -6.215 quatxyzw -0.311747 0.597548 -0.276458 0.685070 center 0.698 0.076 -0.072 ntor 8 -143.5192 149.7599 -125.8130 -40.3773 -150.6050 145.5050 -109.5193 39.8728
State:	 22.524  -8.225  -6.215  -0.428  0.820 -0.380 93.518   -143.52  149.76 -125.81  -40.38 -150.60  145.51 -109.52   39.87

DOCKED: MODEL       78
DOCKED: USER    Run = 78
DOCKED: USER    DPF = ligand_dock.biased.dpf
DOCKED: USER  
DOCKED: USER    Estimated Free Energy of Binding    =   -7.52 kcal/mol  [=(1)+(2)+(3)-(4)]
DOCKED: USER    Estimated Inhibition Constant, Ki   =    3.08 uM (micromolar)  [Temperature = 298.15 K]
DOCKED: USER    
DOCKED: USER    (1) Final Intermolecular Energy     =   -9.91 kcal/mol
DOCKED: USER        vdW + Hbond + desolv Energy     =   -9.91 kcal/mol
DOCKED: USER        Electrostatic Energy            =   +0.00 kcal/mol
DOCKED: USER    (2) Final Total Internal Energy     =   -2.65 kcal/mol
DOCKED: USER    (3) Torsional Free Energy           =   +2.39 kcal/mol
DOCKED: USER    (4) Unbound System's Energy  [=(2)] =   -2.65 kcal/mol
DOCKED: USER    
DOCKED: USER    
DOCKED: USER    NEWDPF move ligand.pdbqt
DOCKED: USER    NEWDPF about 0.698000 0.076000 -0.072000
DOCKED: USER    NEWDPF tran0 22.523706 -8.225380 -6.214899
DOCKED: USER    NEWDPF quaternion0 -0.311747 0.597548 -0.276458 0.685070
DOCKED: USER    NEWDPF axisangle0 -0.427944 0.820270 -0.379501 93.517743
DOCKED: USER    NEWDPF quat0 -0.427944 0.820270 -0.379501 93.517743
DOCKED: USER    NEWDPF dihe0 -143.52 149.76 -125.81 -40.38 -150.60 145.51 -109.52 39.87 
DOCKED: USER  keepresnum = 1 
DOCKED: USER  
DOCKED: REMARK  Name = 
DOCKED: REMARK  9 active torsions:
DOCKED: REMARK  status: ('A' for Active; 'I' for Inactive)
DOCKED: REMARK    1  A    between atoms: C_2  and  C_3
DOCKED: REMARK    2  A    between atoms: C_4  and  C_5
DOCKED: REMARK    3  A    between atoms: C_8  and  C_9
DOCKED: REMARK    4  A    between atoms: C_9  and  N_10
DOCKED: REMARK    5  A    between atoms: N_10  and  C_11
DOCKED: REMARK    6  A    between atoms: C_11  and  C_12
DOCKED: REMARK    7  A    between atoms: C_12  and  C_13
DOCKED: REMARK    8  A    between atoms: C_14  and  C_22
DOCKED: REMARK    9  A    between atoms: N_25  and  O_26
DOCKED: REMARK                            x       y       z     vdW  Elec       q    Type
DOCKED: REMARK                         _______ _______ _______ _____ _____    ______ ____
DOCKED: USER                              x       y       z     vdW  Elec       q    Type
DOCKED: USER                           _______ _______ _______ _____ _____    ______ ____
DOCKED: ROOT
DOCKED: ATOM      1  N   UNL     1      22.107  -7.682  -7.161 -0.10 -0.00    +0.000 N 
DOCKED: ATOM      2  H   UNL     1      22.921  -7.068  -7.201 -0.00 -0.00    +0.000 HD
DOCKED: ATOM      3  H   UNL     1      21.397  -7.316  -6.528 +0.00 -0.00    +0.000 HD
DOCKED: ENDROOT
DOCKED: BRANCH   1   4
DOCKED: ATOM      4  C   UNL     1      22.530  -8.994  -6.654 -0.25 -0.00    +0.000 C 
DOCKED: BRANCH   4   8
DOCKED: ATOM      5  C   UNL     1      21.076  -9.555  -2.619 -0.48 -0.00    +0.000 A 
DOCKED: ATOM      6  C   UNL     1      21.307  -8.260  -3.124 -0.38 -0.00    +0.000 A 
DOCKED: ATOM      7  C   UNL     1      21.772  -8.082  -4.431 -0.24 -0.00    +0.000 A 
DOCKED: ATOM      8  C   UNL     1      21.994  -9.189  -5.263 -0.25 -0.00    +0.000 A 
DOCKED: ATOM      9  C   UNL     1      21.763 -10.480  -4.766 -0.41 -0.00    +0.000 A 
DOCKED: ATOM     10  C   UNL     1      21.296 -10.659  -3.460 -0.45 -0.00    +0.000 A 
DOCKED: BRANCH   5  12
DOCKED: ATOM     11  C   UNL     1      20.889 -10.882  -0.517 -0.60 -0.00    +0.000 C 
DOCKED: ATOM     12  C   UNL     1      20.572  -9.800  -1.244 -0.59 -0.00    +0.000 C 
DOCKED: BRANCH  11  14
DOCKED: ATOM     13  O   UNL     1      19.843 -10.167   1.466 -0.68 -0.00    +0.000 OA
DOCKED: ATOM     14  C   UNL     1      20.383 -11.123   0.850 -0.71 -0.00    +0.000 C 
DOCKED: ATOM     15  N   UNL     1      20.509 -12.394   1.503 -0.67 -0.00    +0.000 N 
DOCKED: ATOM     16  H   UNL     1      21.014 -13.120   1.071 -0.55 -0.00    +0.000 HD
DOCKED: BRANCH  15  17
DOCKED: ATOM     17  O   UNL     1      19.936 -12.597   2.714 -1.26 -0.00    +0.000 OA
DOCKED: ATOM     18  H   UNL     1      20.509 -13.163   3.253 -0.60 -0.00    +0.000 HD
DOCKED: ENDBRANCH  15  17
DOCKED: ENDBRANCH  11  14
DOCKED: ENDBRANCH   5  12
DOCKED: ENDBRANCH   4   8
DOCKED: ENDBRANCH   1   4
DOCKED: BRANCH   1  19
DOCKED: ATOM     19  C   UNL     1      21.514  -7.770  -8.505 -0.05 -0.00    +0.000 C 
DOCKED: BRANCH  19  20
DOCKED: ATOM     20  C   UNL     1      20.159  -8.497  -8.501 -0.08 -0.00    +0.000 C 
DOCKED: BRANCH  20  21
DOCKED: ATOM     21  C   UNL     1      19.424  -8.223  -7.221 -0.07 -0.00    +0.000 A 
DOCKED: ATOM     22  C   UNL     1      19.159  -6.981  -6.641 -0.06 -0.00    +0.000 A 
DOCKED: ATOM     23  N   UNL     1      18.532  -7.133  -5.452 -0.12 -0.00    +0.000 N 
DOCKED: ATOM     24  C   UNL     1      18.417  -8.458  -5.263 -0.15 -0.00    +0.000 A 
DOCKED: ATOM     25  C   UNL     1      18.955  -9.156  -6.315 -0.14 -0.00    +0.000 A 
DOCKED: ATOM     26  C   UNL     1      18.978 -10.551  -6.336 -0.29 -0.00    +0.000 A 
DOCKED: ATOM     27  C   UNL     1      18.420 -11.234  -5.240 -0.30 -0.00    +0.000 A 
DOCKED: ATOM     28  C   UNL     1      17.862 -10.516  -4.159 -0.22 -0.00    +0.000 A 
DOCKED: ATOM     29  C   UNL     1      17.858  -9.109  -4.163 -0.19 -0.00    +0.000 A 
DOCKED: ATOM     30  C   UNL     1      19.484  -5.650  -7.241 -0.03 -0.00    +0.000 C 
DOCKED: ATOM     31  H   UNL     1      18.222  -6.418  -4.849 -0.01 -0.00    +0.000 HD
DOCKED: ENDBRANCH  20  21
DOCKED: ENDBRANCH  19  20
DOCKED: ENDBRANCH   1  19
DOCKED: TORSDOF 8
DOCKED: TER
DOCKED: ENDMDL
________________________________________________________________________________


	BEGINNING GENETIC ALGORITHM DOCKING 79 of 100
Run: 79 Seed: 846355793 1493722274 [ Run 79 of 100 GA/GALS ]
Beginning LAMARCKIAN GENETIC ALGORITHM (LGA), with a maximum of 2500000 energy evaluations.

Final-Value: -13.997


	FINAL GENETIC ALGORITHM DOCKED STATE
	_______________________________________________


Detailed state:  trans 22.042 -10.260 -6.287 quatxyzw -0.811493 -0.279314 -0.330703 -0.392553 center 0.698 0.076 -0.072 ntor 8 -150.9331 -25.7064 148.5889 178.0122 -112.1725 171.8917 122.3970 -45.9034
State:	 22.042 -10.260  -6.287  -0.882 -0.304 -0.360 -133.773   -150.93  -25.71  148.59  178.01 -112.17  171.89  122.40  -45.90

DOCKED: MODEL       79
DOCKED: USER    Run = 79
DOCKED: USER    DPF = ligand_dock.biased.dpf
DOCKED: USER  
DOCKED: USER    Estimated Free Energy of Binding    =  -10.49 kcal/mol  [=(1)+(2)+(3)-(4)]
DOCKED: USER    Estimated Inhibition Constant, Ki   =   20.46 nM (nanomolar)  [Temperature = 298.15 K]
DOCKED: USER    
DOCKED: USER    (1) Final Intermolecular Energy     =  -12.88 kcal/mol
DOCKED: USER        vdW + Hbond + desolv Energy     =  -12.88 kcal/mol
DOCKED: USER        Electrostatic Energy            =   +0.00 kcal/mol
DOCKED: USER    (2) Final Total Internal Energy     =   -1.12 kcal/mol
DOCKED: USER    (3) Torsional Free Energy           =   +2.39 kcal/mol
DOCKED: USER    (4) Unbound System's Energy  [=(2)] =   -1.12 kcal/mol
DOCKED: USER    
DOCKED: USER    
DOCKED: USER    NEWDPF move ligand.pdbqt
DOCKED: USER    NEWDPF about 0.698000 0.076000 -0.072000
DOCKED: USER    NEWDPF tran0 22.041975 -10.259653 -6.287215
DOCKED: USER    NEWDPF quaternion0 -0.811493 -0.279314 -0.330703 -0.392553
DOCKED: USER    NEWDPF axisangle0 -0.882317 -0.303691 -0.359566 -133.773101
DOCKED: USER    NEWDPF quat0 -0.882317 -0.303691 -0.359566 -133.773101
DOCKED: USER    NEWDPF dihe0 -150.93 -25.71 148.59 178.01 -112.17 171.89 122.40 -45.90 
DOCKED: USER  keepresnum = 1 
DOCKED: USER  
DOCKED: REMARK  Name = 
DOCKED: REMARK  9 active torsions:
DOCKED: REMARK  status: ('A' for Active; 'I' for Inactive)
DOCKED: REMARK    1  A    between atoms: C_2  and  C_3
DOCKED: REMARK    2  A    between atoms: C_4  and  C_5
DOCKED: REMARK    3  A    between atoms: C_8  and  C_9
DOCKED: REMARK    4  A    between atoms: C_9  and  N_10
DOCKED: REMARK    5  A    between atoms: N_10  and  C_11
DOCKED: REMARK    6  A    between atoms: C_11  and  C_12
DOCKED: REMARK    7  A    between atoms: C_12  and  C_13
DOCKED: REMARK    8  A    between atoms: C_14  and  C_22
DOCKED: REMARK    9  A    between atoms: N_25  and  O_26
DOCKED: REMARK                            x       y       z     vdW  Elec       q    Type
DOCKED: REMARK                         _______ _______ _______ _____ _____    ______ ____
DOCKED: USER                              x       y       z     vdW  Elec       q    Type
DOCKED: USER                           _______ _______ _______ _____ _____    ______ ____
DOCKED: ROOT
DOCKED: ATOM      1  N   UNL     1      21.761 -10.948  -7.188 -0.32 -0.00    +0.000 N 
DOCKED: ATOM      2  H   UNL     1      21.338 -11.637  -6.565 -0.40 -0.00    +0.000 HD
DOCKED: ATOM      3  H   UNL     1      22.766 -11.094  -7.274 -0.03 -0.00    +0.000 HD
DOCKED: ENDROOT
DOCKED: BRANCH   1   4
DOCKED: ATOM      4  C   UNL     1      21.547  -9.608  -6.625 -0.27 -0.00    +0.000 C 
DOCKED: BRANCH   4   8
DOCKED: ATOM      5  C   UNL     1      20.977  -9.874  -2.345 -0.51 -0.00    +0.000 A 
DOCKED: ATOM      6  C   UNL     1      20.457  -8.784  -3.072 -0.35 -0.00    +0.000 A 
DOCKED: ATOM      7  C   UNL     1      20.638  -8.705  -4.456 -0.27 -0.00    +0.000 A 
DOCKED: ATOM      8  C   UNL     1      21.322  -9.718  -5.143 -0.32 -0.00    +0.000 A 
DOCKED: ATOM      9  C   UNL     1      21.839 -10.806  -4.425 -0.38 -0.00    +0.000 A 
DOCKED: ATOM     10  C   UNL     1      21.657 -10.888  -3.041 -0.26 -0.00    +0.000 A 
DOCKED: BRANCH   5  12
DOCKED: ATOM     11  C   UNL     1      20.284 -11.103  -0.291 -0.53 -0.00    +0.000 C 
DOCKED: ATOM     12  C   UNL     1      20.803 -10.014  -0.878 -0.65 -0.00    +0.000 C 
DOCKED: BRANCH  11  14
DOCKED: ATOM     13  O   UNL     1      19.448 -12.214   1.608 -1.52 -0.00    +0.000 OA
DOCKED: ATOM     14  C   UNL     1      20.110 -11.237   1.170 -0.72 -0.00    +0.000 C 
DOCKED: ATOM     15  N   UNL     1      20.645 -10.282   2.098 -0.38 -0.00    +0.000 N 
DOCKED: ATOM     16  H   UNL     1      21.080  -9.464   1.766 -0.54 -0.00    +0.000 HD
DOCKED: BRANCH  15  17
DOCKED: ATOM     17  O   UNL     1      20.551 -10.504   3.432 -0.81 -0.00    +0.000 OA
DOCKED: ATOM     18  H   UNL     1      20.514  -9.655   3.899 -0.43 -0.00    +0.000 HD
DOCKED: ENDBRANCH  15  17
DOCKED: ENDBRANCH  11  14
DOCKED: ENDBRANCH   5  12
DOCKED: ENDBRANCH   4   8
DOCKED: ENDBRANCH   1   4
DOCKED: BRANCH   1  19
DOCKED: ATOM     19  C   UNL     1      21.166 -11.091  -8.526 -0.13 -0.00    +0.000 C 
DOCKED: BRANCH  19  20
DOCKED: ATOM     20  C   UNL     1      22.181 -10.823  -9.650 -0.22 -0.00    +0.000 C 
DOCKED: BRANCH  20  21
DOCKED: ATOM     21  C   UNL     1      23.170 -11.949  -9.740 -0.27 -0.00    +0.000 A 
DOCKED: ATOM     22  C   UNL     1      24.393 -12.063  -9.074 -0.36 -0.00    +0.000 A 
DOCKED: ATOM     23  N   UNL     1      25.043 -13.187  -9.457 -0.39 -0.00    +0.000 N 
DOCKED: ATOM     24  C   UNL     1      24.254 -13.773 -10.374 -0.35 -0.00    +0.000 A 
DOCKED: ATOM     25  C   UNL     1      23.109 -13.046 -10.579 -0.29 -0.00    +0.000 A 
DOCKED: ATOM     26  C   UNL     1      22.144 -13.440 -11.507 -0.20 +0.00    +0.000 A 
DOCKED: ATOM     27  C   UNL     1      22.376 -14.624 -12.232 -0.30 +0.00    +0.000 A 
DOCKED: ATOM     28  C   UNL     1      23.553 -15.375 -12.018 -0.30 +0.00    +0.000 A 
DOCKED: ATOM     29  C   UNL     1      24.510 -14.949 -11.079 -0.34 +0.00    +0.000 A 
DOCKED: ATOM     30  C   UNL     1      24.922 -11.109  -8.052 -0.42 -0.00    +0.000 C 
DOCKED: ATOM     31  H   UNL     1      25.914 -13.509  -9.129 -0.63 -0.00    +0.000 HD
DOCKED: ENDBRANCH  20  21
DOCKED: ENDBRANCH  19  20
DOCKED: ENDBRANCH   1  19
DOCKED: TORSDOF 8
DOCKED: TER
DOCKED: ENDMDL
________________________________________________________________________________


	BEGINNING GENETIC ALGORITHM DOCKING 80 of 100
Run: 80 Seed: 1904167219 118772794 [ Run 80 of 100 GA/GALS ]
Beginning LAMARCKIAN GENETIC ALGORITHM (LGA), with a maximum of 2500000 energy evaluations.

Final-Value: -14.230


	FINAL GENETIC ALGORITHM DOCKED STATE
	_______________________________________________


Detailed state:  trans 15.691 -9.349 -1.885 quatxyzw 0.709843 0.289878 -0.247767 -0.592204 center 0.698 0.076 -0.072 ntor 8 -1.2958 -62.9927 164.0853 -138.7469 128.1804 -149.1083 114.7337 31.4127
State:	 15.691  -9.349  -1.885   0.881  0.360 -0.307 -107.373     -1.30  -62.99  164.09 -138.75  128.18 -149.11  114.73   31.41

DOCKED: MODEL       80
DOCKED: USER    Run = 80
DOCKED: USER    DPF = ligand_dock.biased.dpf
DOCKED: USER  
DOCKED: USER    Estimated Free Energy of Binding    =   -9.59 kcal/mol  [=(1)+(2)+(3)-(4)]
DOCKED: USER    Estimated Inhibition Constant, Ki   =   93.78 nM (nanomolar)  [Temperature = 298.15 K]
DOCKED: USER    
DOCKED: USER    (1) Final Intermolecular Energy     =  -11.97 kcal/mol
DOCKED: USER        vdW + Hbond + desolv Energy     =  -11.97 kcal/mol
DOCKED: USER        Electrostatic Energy            =   +0.00 kcal/mol
DOCKED: USER    (2) Final Total Internal Energy     =   -2.26 kcal/mol
DOCKED: USER    (3) Torsional Free Energy           =   +2.39 kcal/mol
DOCKED: USER    (4) Unbound System's Energy  [=(2)] =   -2.26 kcal/mol
DOCKED: USER    
DOCKED: USER    
DOCKED: USER    NEWDPF move ligand.pdbqt
DOCKED: USER    NEWDPF about 0.698000 0.076000 -0.072000
DOCKED: USER    NEWDPF tran0 15.690515 -9.349152 -1.884858
DOCKED: USER    NEWDPF quaternion0 0.709843 0.289878 -0.247767 -0.592204
DOCKED: USER    NEWDPF axisangle0 0.880930 0.359745 -0.307484 -107.372811
DOCKED: USER    NEWDPF quat0 0.880930 0.359745 -0.307484 -107.372811
DOCKED: USER    NEWDPF dihe0 -1.30 -62.99 164.09 -138.75 128.18 -149.11 114.73 31.41 
DOCKED: USER  keepresnum = 1 
DOCKED: USER  
DOCKED: REMARK  Name = 
DOCKED: REMARK  9 active torsions:
DOCKED: REMARK  status: ('A' for Active; 'I' for Inactive)
DOCKED: REMARK    1  A    between atoms: C_2  and  C_3
DOCKED: REMARK    2  A    between atoms: C_4  and  C_5
DOCKED: REMARK    3  A    between atoms: C_8  and  C_9
DOCKED: REMARK    4  A    between atoms: C_9  and  N_10
DOCKED: REMARK    5  A    between atoms: N_10  and  C_11
DOCKED: REMARK    6  A    between atoms: C_11  and  C_12
DOCKED: REMARK    7  A    between atoms: C_12  and  C_13
DOCKED: REMARK    8  A    between atoms: C_14  and  C_22
DOCKED: REMARK    9  A    between atoms: N_25  and  O_26
DOCKED: REMARK                            x       y       z     vdW  Elec       q    Type
DOCKED: REMARK                         _______ _______ _______ _____ _____    ______ ____
DOCKED: USER                              x       y       z     vdW  Elec       q    Type
DOCKED: USER                           _______ _______ _______ _____ _____    ______ ____
DOCKED: ROOT
DOCKED: ATOM      1  N   UNL     1      15.396  -9.316  -0.755 -0.25 -0.00    +0.000 N 
DOCKED: ATOM      2  H   UNL     1      15.306  -8.300  -0.780 -0.03 -0.00    +0.000 HD
DOCKED: ATOM      3  H   UNL     1      16.362  -9.598  -0.588 -0.02 -0.00    +0.000 HD
DOCKED: ENDROOT
DOCKED: BRANCH   1   4
DOCKED: ATOM      4  C   UNL     1      14.988  -9.859  -2.057 -0.27 -0.00    +0.000 C 
DOCKED: BRANCH   4   8
DOCKED: ATOM      5  C   UNL     1      18.486 -10.872  -4.390 -0.24 -0.00    +0.000 A 
DOCKED: ATOM      6  C   UNL     1      17.227 -10.738  -5.008 -0.20 -0.00    +0.000 A 
DOCKED: ATOM      7  C   UNL     1      16.099 -10.405  -4.251 -0.20 -0.00    +0.000 A 
DOCKED: ATOM      8  C   UNL     1      16.210 -10.179  -2.872 -0.23 -0.00    +0.000 A 
DOCKED: ATOM      9  C   UNL     1      17.462 -10.309  -2.253 -0.14 -0.00    +0.000 A 
DOCKED: ATOM     10  C   UNL     1      18.590 -10.640  -3.009 -0.26 -0.00    +0.000 A 
DOCKED: BRANCH   5  12
DOCKED: ATOM     11  C   UNL     1      20.920 -10.675  -4.892 -0.48 -0.00    +0.000 C 
DOCKED: ATOM     12  C   UNL     1      19.717 -11.212  -5.147 -0.47 -0.00    +0.000 C 
DOCKED: BRANCH  11  14
DOCKED: ATOM     13  O   UNL     1      22.880 -10.075  -6.048 -0.32 -0.00    +0.000 OA
DOCKED: ATOM     14  C   UNL     1      22.142 -11.014  -5.650 -0.47 -0.00    +0.000 C 
DOCKED: ATOM     15  N   UNL     1      22.499 -12.367  -5.967 -0.58 -0.00    +0.000 N 
DOCKED: ATOM     16  H   UNL     1      21.882 -13.102  -5.747 -0.60 -0.00    +0.000 HD
DOCKED: BRANCH  15  17
DOCKED: ATOM     17  O   UNL     1      23.681 -12.635  -6.571 -1.16 -0.00    +0.000 OA
DOCKED: ATOM     18  H   UNL     1      24.156 -11.806  -6.736 -0.05 +0.00    +0.000 HD
DOCKED: ENDBRANCH  15  17
DOCKED: ENDBRANCH  11  14
DOCKED: ENDBRANCH   5  12
DOCKED: ENDBRANCH   4   8
DOCKED: ENDBRANCH   1   4
DOCKED: BRANCH   1  19
DOCKED: ATOM     19  C   UNL     1      14.575  -9.838   0.348 -0.26 +0.00    +0.000 C 
DOCKED: BRANCH  19  20
DOCKED: ATOM     20  C   UNL     1      15.424 -10.288   1.549 -0.34 +0.00    +0.000 C 
DOCKED: BRANCH  20  21
DOCKED: ATOM     21  C   UNL     1      16.561 -11.153   1.088 -0.36 +0.00    +0.000 A 
DOCKED: ATOM     22  C   UNL     1      16.508 -12.226   0.196 -0.45 +0.00    +0.000 A 
DOCKED: ATOM     23  N   UNL     1      17.723 -12.809   0.075 -0.49 +0.00    +0.000 N 
DOCKED: ATOM     24  C   UNL     1      18.539 -12.130   0.899 -0.52 -0.00    +0.000 A 
DOCKED: ATOM     25  C   UNL     1      17.868 -11.119   1.539 -0.44 -0.00    +0.000 A 
DOCKED: ATOM     26  C   UNL     1      18.499 -10.291   2.468 -0.51 -0.00    +0.000 A 
DOCKED: ATOM     27  C   UNL     1      19.863 -10.515   2.728 -0.59 -0.00    +0.000 A 
DOCKED: ATOM     28  C   UNL     1      20.556 -11.553   2.065 -0.69 -0.00    +0.000 A 
DOCKED: ATOM     29  C   UNL     1      19.891 -12.376   1.138 -0.49 -0.00    +0.000 A 
DOCKED: ATOM     30  C   UNL     1      15.297 -12.673  -0.560 -0.53 +0.00    +0.000 C 
DOCKED: ATOM     31  H   UNL     1      17.960 -13.573  -0.500 -0.34 -0.00    +0.000 HD
DOCKED: ENDBRANCH  20  21
DOCKED: ENDBRANCH  19  20
DOCKED: ENDBRANCH   1  19
DOCKED: TORSDOF 8
DOCKED: TER
DOCKED: ENDMDL
________________________________________________________________________________


	BEGINNING GENETIC ALGORITHM DOCKING 81 of 100
Run: 81 Seed: 1575680111 905011394 [ Run 81 of 100 GA/GALS ]
Beginning LAMARCKIAN GENETIC ALGORITHM (LGA), with a maximum of 2500000 energy evaluations.

Final-Value: -13.688


	FINAL GENETIC ALGORITHM DOCKED STATE
	_______________________________________________


Detailed state:  trans 21.231 -8.689 -0.363 quatxyzw 0.794502 0.599329 -0.023764 -0.094904 center 0.698 0.076 -0.072 ntor 8 -1.3407 -66.8940 -32.8008 147.3387 -117.9129 -48.8777 -9.7972 111.4433
State:	 21.231  -8.689  -0.363   0.798  0.602 -0.024 -169.108     -1.34  -66.89  -32.80  147.34 -117.91  -48.88   -9.80  111.44

DOCKED: MODEL       81
DOCKED: USER    Run = 81
DOCKED: USER    DPF = ligand_dock.biased.dpf
DOCKED: USER  
DOCKED: USER    Estimated Free Energy of Binding    =   -9.60 kcal/mol  [=(1)+(2)+(3)-(4)]
DOCKED: USER    Estimated Inhibition Constant, Ki   =   91.78 nM (nanomolar)  [Temperature = 298.15 K]
DOCKED: USER    
DOCKED: USER    (1) Final Intermolecular Energy     =  -11.99 kcal/mol
DOCKED: USER        vdW + Hbond + desolv Energy     =  -11.99 kcal/mol
DOCKED: USER        Electrostatic Energy            =   +0.00 kcal/mol
DOCKED: USER    (2) Final Total Internal Energy     =   -1.70 kcal/mol
DOCKED: USER    (3) Torsional Free Energy           =   +2.39 kcal/mol
DOCKED: USER    (4) Unbound System's Energy  [=(2)] =   -1.70 kcal/mol
DOCKED: USER    
DOCKED: USER    
DOCKED: USER    NEWDPF move ligand.pdbqt
DOCKED: USER    NEWDPF about 0.698000 0.076000 -0.072000
DOCKED: USER    NEWDPF tran0 21.230802 -8.688624 -0.362914
DOCKED: USER    NEWDPF quaternion0 0.794502 0.599329 -0.023764 -0.094904
DOCKED: USER    NEWDPF axisangle0 0.798104 0.602047 -0.023872 -169.108466
DOCKED: USER    NEWDPF quat0 0.798104 0.602047 -0.023872 -169.108466
DOCKED: USER    NEWDPF dihe0 -1.34 -66.89 -32.80 147.34 -117.91 -48.88 -9.80 111.44 
DOCKED: USER  keepresnum = 1 
DOCKED: USER  
DOCKED: REMARK  Name = 
DOCKED: REMARK  9 active torsions:
DOCKED: REMARK  status: ('A' for Active; 'I' for Inactive)
DOCKED: REMARK    1  A    between atoms: C_2  and  C_3
DOCKED: REMARK    2  A    between atoms: C_4  and  C_5
DOCKED: REMARK    3  A    between atoms: C_8  and  C_9
DOCKED: REMARK    4  A    between atoms: C_9  and  N_10
DOCKED: REMARK    5  A    between atoms: N_10  and  C_11
DOCKED: REMARK    6  A    between atoms: C_11  and  C_12
DOCKED: REMARK    7  A    between atoms: C_12  and  C_13
DOCKED: REMARK    8  A    between atoms: C_14  and  C_22
DOCKED: REMARK    9  A    between atoms: N_25  and  O_26
DOCKED: REMARK                            x       y       z     vdW  Elec       q    Type
DOCKED: REMARK                         _______ _______ _______ _____ _____    ______ ____
DOCKED: USER                              x       y       z     vdW  Elec       q    Type
DOCKED: USER                           _______ _______ _______ _____ _____    ______ ____
DOCKED: ROOT
DOCKED: ATOM      1  N   UNL     1      21.487  -9.738   0.082 -0.66 -0.00    +0.000 N 
DOCKED: ATOM      2  H   UNL     1      21.227  -9.434   1.021 -0.42 -0.00    +0.000 HD
DOCKED: ATOM      3  H   UNL     1      22.453  -9.494  -0.132 -0.05 -0.00    +0.000 HD
DOCKED: ENDROOT
DOCKED: BRANCH   1   4
DOCKED: ATOM      4  C   UNL     1      20.623  -9.056  -0.891 -0.41 -0.00    +0.000 C 
DOCKED: BRANCH   4   8
DOCKED: ATOM      5  C   UNL     1      21.742 -10.384  -4.854 -0.40 -0.00    +0.000 A 
DOCKED: ATOM      6  C   UNL     1      21.041 -11.240  -3.981 -0.29 -0.00    +0.000 A 
DOCKED: ATOM      7  C   UNL     1      20.676 -10.806  -2.703 -0.39 -0.00    +0.000 A 
DOCKED: ATOM      8  C   UNL     1      20.984  -9.505  -2.280 -0.50 -0.00    +0.000 A 
DOCKED: ATOM      9  C   UNL     1      21.679  -8.647  -3.146 -0.31 -0.00    +0.000 A 
DOCKED: ATOM     10  C   UNL     1      22.042  -9.080  -4.424 -0.04 -0.00    +0.000 A 
DOCKED: BRANCH   5  12
DOCKED: ATOM     11  C   UNL     1      22.877 -11.879  -6.493 -0.52 -0.00    +0.000 C 
DOCKED: ATOM     12  C   UNL     1      22.142 -10.789  -6.224 -0.44 -0.00    +0.000 C 
DOCKED: BRANCH  11  14
DOCKED: ATOM     13  O   UNL     1      24.489 -12.530  -8.079 -0.80 -0.00    +0.000 OA
DOCKED: ATOM     14  C   UNL     1      23.276 -12.277  -7.859 -0.48 -0.00    +0.000 C 
DOCKED: ATOM     15  N   UNL     1      22.336 -12.360  -8.940 -0.26 -0.00    +0.000 N 
DOCKED: ATOM     16  H   UNL     1      21.405 -12.072  -8.804 -0.44 -0.00    +0.000 HD
DOCKED: BRANCH  15  17
DOCKED: ATOM     17  O   UNL     1      22.729 -12.832 -10.147 -0.37 -0.00    +0.000 OA
DOCKED: ATOM     18  H   UNL     1      23.674 -13.049 -10.119 -0.01 -0.00    +0.000 HD
DOCKED: ENDBRANCH  15  17
DOCKED: ENDBRANCH  11  14
DOCKED: ENDBRANCH   5  12
DOCKED: ENDBRANCH   4   8
DOCKED: ENDBRANCH   1   4
DOCKED: BRANCH   1  19
DOCKED: ATOM     19  C   UNL     1      21.363 -11.202   0.007 -0.29 -0.00    +0.000 C 
DOCKED: BRANCH  19  20
DOCKED: ATOM     20  C   UNL     1      21.021 -11.832   1.367 -0.59 -0.00    +0.000 C 
DOCKED: BRANCH  20  21
DOCKED: ATOM     21  C   UNL     1      19.651 -11.407   1.810 -0.63 -0.00    +0.000 A 
DOCKED: ATOM     22  C   UNL     1      19.308 -10.722   2.978 -0.58 -0.00    +0.000 A 
DOCKED: ATOM     23  N   UNL     1      17.966 -10.573   3.068 -0.48 -0.00    +0.000 N 
DOCKED: ATOM     24  C   UNL     1      17.455 -11.175   1.980 -0.42 +0.00    +0.000 A 
DOCKED: ATOM     25  C   UNL     1      18.449 -11.701   1.194 -0.51 -0.00    +0.000 A 
DOCKED: ATOM     26  C   UNL     1      18.164 -12.399   0.020 -0.45 -0.00    +0.000 A 
DOCKED: ATOM     27  C   UNL     1      16.814 -12.545  -0.347 -0.37 +0.00    +0.000 A 
DOCKED: ATOM     28  C   UNL     1      15.791 -12.000   0.460 -0.42 +0.00    +0.000 A 
DOCKED: ATOM     29  C   UNL     1      16.109 -11.305   1.642 -0.38 +0.00    +0.000 A 
DOCKED: ATOM     30  C   UNL     1      20.269 -10.190   3.992 -0.04 -0.00    +0.000 C 
DOCKED: ATOM     31  H   UNL     1      17.467 -10.116   3.783 -0.00 +0.00    +0.000 HD
DOCKED: ENDBRANCH  20  21
DOCKED: ENDBRANCH  19  20
DOCKED: ENDBRANCH   1  19
DOCKED: TORSDOF 8
DOCKED: TER
DOCKED: ENDMDL
________________________________________________________________________________


	BEGINNING GENETIC ALGORITHM DOCKING 82 of 100
Run: 82 Seed: 1518870299 1242056828 [ Run 82 of 100 GA/GALS ]
Beginning LAMARCKIAN GENETIC ALGORITHM (LGA), with a maximum of 2500000 energy evaluations.

Final-Value: -14.566


	FINAL GENETIC ALGORITHM DOCKED STATE
	_______________________________________________


Detailed state:  trans 22.032 -7.977 -4.880 quatxyzw 0.285110 0.664466 0.391339 0.569254 center 0.698 0.076 -0.072 ntor 8 29.9546 -163.7142 176.9177 24.1514 112.7842 24.3968 -177.7387 -21.6042
State:	 22.032  -7.977  -4.880   0.347  0.808  0.476 110.604     29.95 -163.71  176.92   24.15  112.78   24.40 -177.74  -21.60

DOCKED: MODEL       82
DOCKED: USER    Run = 82
DOCKED: USER    DPF = ligand_dock.biased.dpf
DOCKED: USER  
DOCKED: USER    Estimated Free Energy of Binding    =  -10.27 kcal/mol  [=(1)+(2)+(3)-(4)]
DOCKED: USER    Estimated Inhibition Constant, Ki   =   29.59 nM (nanomolar)  [Temperature = 298.15 K]
DOCKED: USER    
DOCKED: USER    (1) Final Intermolecular Energy     =  -12.66 kcal/mol
DOCKED: USER        vdW + Hbond + desolv Energy     =  -12.66 kcal/mol
DOCKED: USER        Electrostatic Energy            =   +0.00 kcal/mol
DOCKED: USER    (2) Final Total Internal Energy     =   -1.91 kcal/mol
DOCKED: USER    (3) Torsional Free Energy           =   +2.39 kcal/mol
DOCKED: USER    (4) Unbound System's Energy  [=(2)] =   -1.91 kcal/mol
DOCKED: USER    
DOCKED: USER    
DOCKED: USER    NEWDPF move ligand.pdbqt
DOCKED: USER    NEWDPF about 0.698000 0.076000 -0.072000
DOCKED: USER    NEWDPF tran0 22.031806 -7.977431 -4.879502
DOCKED: USER    NEWDPF quaternion0 0.285110 0.664466 0.391339 0.569254
DOCKED: USER    NEWDPF axisangle0 0.346782 0.808194 0.475988 110.603522
DOCKED: USER    NEWDPF quat0 0.346782 0.808194 0.475988 110.603522
DOCKED: USER    NEWDPF dihe0 29.95 -163.71 176.92 24.15 112.78 24.40 -177.74 -21.60 
DOCKED: USER  keepresnum = 1 
DOCKED: USER  
DOCKED: REMARK  Name = 
DOCKED: REMARK  9 active torsions:
DOCKED: REMARK  status: ('A' for Active; 'I' for Inactive)
DOCKED: REMARK    1  A    between atoms: C_2  and  C_3
DOCKED: REMARK    2  A    between atoms: C_4  and  C_5
DOCKED: REMARK    3  A    between atoms: C_8  and  C_9
DOCKED: REMARK    4  A    between atoms: C_9  and  N_10
DOCKED: REMARK    5  A    between atoms: N_10  and  C_11
DOCKED: REMARK    6  A    between atoms: C_11  and  C_12
DOCKED: REMARK    7  A    between atoms: C_12  and  C_13
DOCKED: REMARK    8  A    between atoms: C_14  and  C_22
DOCKED: REMARK    9  A    between atoms: N_25  and  O_26
DOCKED: REMARK                            x       y       z     vdW  Elec       q    Type
DOCKED: REMARK                         _______ _______ _______ _____ _____    ______ ____
DOCKED: USER                              x       y       z     vdW  Elec       q    Type
DOCKED: USER                           _______ _______ _______ _____ _____    ______ ____
DOCKED: ROOT
DOCKED: ATOM      1  N   UNL     1      22.816  -7.799  -5.726 -0.12 -0.00    +0.000 N 
DOCKED: ATOM      2  H   UNL     1      23.157  -8.758  -5.651 -0.02 -0.00    +0.000 HD
DOCKED: ATOM      3  H   UNL     1      23.275  -7.189  -5.050 -0.01 -0.00    +0.000 HD
DOCKED: ENDROOT
DOCKED: BRANCH   1   4
DOCKED: ATOM      4  C   UNL     1      21.375  -7.785  -5.441 -0.22 -0.00    +0.000 C 
DOCKED: BRANCH   4   8
DOCKED: ATOM      5  C   UNL     1      20.505 -10.037  -1.852 -0.50 -0.00    +0.000 A 
DOCKED: ATOM      6  C   UNL     1      20.402 -10.642  -3.121 -0.44 -0.00    +0.000 A 
DOCKED: ATOM      7  C   UNL     1      20.690  -9.913  -4.279 -0.37 -0.00    +0.000 A 
DOCKED: ATOM      8  C   UNL     1      21.105  -8.576  -4.192 -0.31 -0.00    +0.000 A 
DOCKED: ATOM      9  C   UNL     1      21.212  -7.970  -2.931 -0.38 -0.00    +0.000 A 
DOCKED: ATOM     10  C   UNL     1      20.926  -8.700  -1.773 -0.43 -0.00    +0.000 A 
DOCKED: BRANCH   5  12
DOCKED: ATOM     11  C   UNL     1      20.758 -10.440   0.594 -0.68 -0.00    +0.000 C 
DOCKED: ATOM     12  C   UNL     1      20.224 -10.769  -0.592 -0.59 -0.00    +0.000 C 
DOCKED: BRANCH  11  14
DOCKED: ATOM     13  O   UNL     1      20.259 -12.410   1.781 -1.69 -0.00    +0.000 OA
DOCKED: ATOM     14  C   UNL     1      20.478 -11.172   1.847 -0.74 -0.00    +0.000 C 
DOCKED: ATOM     15  N   UNL     1      20.421 -10.519   3.123 -0.67 -0.00    +0.000 N 
DOCKED: ATOM     16  H   UNL     1      20.494  -9.539   3.176 -0.58 -0.00    +0.000 HD
DOCKED: BRANCH  15  17
DOCKED: ATOM     17  O   UNL     1      20.266 -11.248   4.254 -0.79 -0.00    +0.000 OA
DOCKED: ATOM     18  H   UNL     1      20.666 -12.123   4.133 -0.52 -0.00    +0.000 HD
DOCKED: ENDBRANCH  15  17
DOCKED: ENDBRANCH  11  14
DOCKED: ENDBRANCH   5  12
DOCKED: ENDBRANCH   4   8
DOCKED: ENDBRANCH   1   4
DOCKED: BRANCH   1  19
DOCKED: ATOM     19  C   UNL     1      23.122  -7.292  -7.073 -0.14 -0.00    +0.000 C 
DOCKED: BRANCH  19  20
DOCKED: ATOM     20  C   UNL     1      22.310  -8.006  -8.167 -0.09 -0.00    +0.000 C 
DOCKED: BRANCH  20  21
DOCKED: ATOM     21  C   UNL     1      22.667  -9.464  -8.213 -0.15 -0.00    +0.000 A 
DOCKED: ATOM     22  C   UNL     1      21.837 -10.552  -7.939 -0.25 -0.00    +0.000 A 
DOCKED: ATOM     23  N   UNL     1      22.528 -11.713  -8.018 -0.35 -0.00    +0.000 N 
DOCKED: ATOM     24  C   UNL     1      23.792 -11.368  -8.318 -0.36 -0.00    +0.000 A 
DOCKED: ATOM     25  C   UNL     1      23.918 -10.007  -8.437 -0.20 -0.00    +0.000 A 
DOCKED: ATOM     26  C   UNL     1      25.145  -9.405  -8.719 -0.17 -0.00    +0.000 A 
DOCKED: ATOM     27  C   UNL     1      26.264 -10.241  -8.888 -0.28 -0.00    +0.000 A 
DOCKED: ATOM     28  C   UNL     1      26.133 -11.643  -8.769 -0.30 -0.00    +0.000 A 
DOCKED: ATOM     29  C   UNL     1      24.884 -12.221  -8.479 -0.40 -0.00    +0.000 A 
DOCKED: ATOM     30  C   UNL     1      20.376 -10.479  -7.628 -0.28 -0.00    +0.000 C 
DOCKED: ATOM     31  H   UNL     1      22.176 -12.623  -7.885 -0.62 -0.00    +0.000 HD
DOCKED: ENDBRANCH  20  21
DOCKED: ENDBRANCH  19  20
DOCKED: ENDBRANCH   1  19
DOCKED: TORSDOF 8
DOCKED: TER
DOCKED: ENDMDL
________________________________________________________________________________


	BEGINNING GENETIC ALGORITHM DOCKING 83 of 100
Run: 83 Seed: 274823872 758248063 [ Run 83 of 100 GA/GALS ]
Beginning LAMARCKIAN GENETIC ALGORITHM (LGA), with a maximum of 2500000 energy evaluations.

Final-Value: -13.992


	FINAL GENETIC ALGORITHM DOCKED STATE
	_______________________________________________


Detailed state:  trans 15.821 -9.164 -2.253 quatxyzw 0.757002 0.450958 -0.000768 -0.472847 center 0.698 0.076 -0.072 ntor 8 4.9719 14.3158 87.1786 -43.5793 -100.8109 174.1616 85.5838 71.0689
State:	 15.821  -9.164  -2.253   0.859  0.512 -0.001 -123.561      4.97   14.32   87.18  -43.58 -100.81  174.16   85.58   71.07

DOCKED: MODEL       83
DOCKED: USER    Run = 83
DOCKED: USER    DPF = ligand_dock.biased.dpf
DOCKED: USER  
DOCKED: USER    Estimated Free Energy of Binding    =   -9.61 kcal/mol  [=(1)+(2)+(3)-(4)]
DOCKED: USER    Estimated Inhibition Constant, Ki   =   90.46 nM (nanomolar)  [Temperature = 298.15 K]
DOCKED: USER    
DOCKED: USER    (1) Final Intermolecular Energy     =  -12.00 kcal/mol
DOCKED: USER        vdW + Hbond + desolv Energy     =  -12.00 kcal/mol
DOCKED: USER        Electrostatic Energy            =   +0.00 kcal/mol
DOCKED: USER    (2) Final Total Internal Energy     =   -2.00 kcal/mol
DOCKED: USER    (3) Torsional Free Energy           =   +2.39 kcal/mol
DOCKED: USER    (4) Unbound System's Energy  [=(2)] =   -2.00 kcal/mol
DOCKED: USER    
DOCKED: USER    
DOCKED: USER    NEWDPF move ligand.pdbqt
DOCKED: USER    NEWDPF about 0.698000 0.076000 -0.072000
DOCKED: USER    NEWDPF tran0 15.821271 -9.164061 -2.253161
DOCKED: USER    NEWDPF quaternion0 0.757002 0.450958 -0.000768 -0.472847
DOCKED: USER    NEWDPF axisangle0 0.859112 0.511786 -0.000872 -123.561457
DOCKED: USER    NEWDPF quat0 0.859112 0.511786 -0.000872 -123.561457
DOCKED: USER    NEWDPF dihe0 4.97 14.32 87.18 -43.58 -100.81 174.16 85.58 71.07 
DOCKED: USER  keepresnum = 1 
DOCKED: USER  
DOCKED: REMARK  Name = 
DOCKED: REMARK  9 active torsions:
DOCKED: REMARK  status: ('A' for Active; 'I' for Inactive)
DOCKED: REMARK    1  A    between atoms: C_2  and  C_3
DOCKED: REMARK    2  A    between atoms: C_4  and  C_5
DOCKED: REMARK    3  A    between atoms: C_8  and  C_9
DOCKED: REMARK    4  A    between atoms: C_9  and  N_10
DOCKED: REMARK    5  A    between atoms: N_10  and  C_11
DOCKED: REMARK    6  A    between atoms: C_11  and  C_12
DOCKED: REMARK    7  A    between atoms: C_12  and  C_13
DOCKED: REMARK    8  A    between atoms: C_14  and  C_22
DOCKED: REMARK    9  A    between atoms: N_25  and  O_26
DOCKED: REMARK                            x       y       z     vdW  Elec       q    Type
DOCKED: REMARK                         _______ _______ _______ _____ _____    ______ ____
DOCKED: USER                              x       y       z     vdW  Elec       q    Type
DOCKED: USER                           _______ _______ _______ _____ _____    ______ ____
DOCKED: ROOT
DOCKED: ATOM      1  N   UNL     1      15.530  -9.759  -1.291 -0.25 -0.00    +0.000 N 
DOCKED: ATOM      2  H   UNL     1      15.004  -8.965  -0.925 -0.02 -0.00    +0.000 HD
DOCKED: ATOM      3  H   UNL     1      16.520  -9.688  -1.056 -0.02 -0.00    +0.000 HD
DOCKED: ENDROOT
DOCKED: BRANCH   1   4
DOCKED: ATOM      4  C   UNL     1      15.414  -9.769  -2.755 -0.25 -0.00    +0.000 C 
DOCKED: BRANCH   4   8
DOCKED: ATOM      5  C   UNL     1      19.205 -10.945  -4.476 -0.37 -0.00    +0.000 A 
DOCKED: ATOM      6  C   UNL     1      18.042 -10.893  -5.270 -0.29 -0.00    +0.000 A 
DOCKED: ATOM      7  C   UNL     1      16.819 -10.507  -4.712 -0.20 -0.00    +0.000 A 
DOCKED: ATOM      8  C   UNL     1      16.738 -10.146  -3.360 -0.22 -0.00    +0.000 A 
DOCKED: ATOM      9  C   UNL     1      17.894 -10.193  -2.566 -0.17 -0.00    +0.000 A 
DOCKED: ATOM     10  C   UNL     1      19.117 -10.577  -3.124 -0.35 -0.00    +0.000 A 
DOCKED: BRANCH   5  12
DOCKED: ATOM     11  C   UNL     1      21.190 -10.628  -5.949 -0.41 -0.00    +0.000 C 
DOCKED: ATOM     12  C   UNL     1      20.529 -11.336  -5.021 -0.52 -0.00    +0.000 C 
DOCKED: BRANCH  11  14
DOCKED: ATOM     13  O   UNL     1      23.297 -10.116  -6.866 -0.35 -0.00    +0.000 OA
DOCKED: ATOM     14  C   UNL     1      22.508 -11.023  -6.490 -0.46 -0.00    +0.000 C 
DOCKED: ATOM     15  N   UNL     1      22.904 -12.395  -6.624 -0.56 -0.00    +0.000 N 
DOCKED: ATOM     16  H   UNL     1      22.261 -13.113  -6.425 -0.57 -0.00    +0.000 HD
DOCKED: BRANCH  15  17
DOCKED: ATOM     17  O   UNL     1      24.160 -12.704  -7.025 -1.07 +0.00    +0.000 OA
DOCKED: ATOM     18  H   UNL     1      24.685 -11.892  -7.103 -0.05 +0.00    +0.000 HD
DOCKED: ENDBRANCH  15  17
DOCKED: ENDBRANCH  11  14
DOCKED: ENDBRANCH   5  12
DOCKED: ENDBRANCH   4   8
DOCKED: ENDBRANCH   1   4
DOCKED: BRANCH   1  19
DOCKED: ATOM     19  C   UNL     1      15.009 -10.994  -0.684 -0.34 +0.00    +0.000 C 
DOCKED: BRANCH  19  20
DOCKED: ATOM     20  C   UNL     1      16.120 -12.012  -0.378 -0.45 +0.00    +0.000 C 
DOCKED: BRANCH  20  21
DOCKED: ATOM     21  C   UNL     1      16.773 -11.692   0.935 -0.41 +0.00    +0.000 A 
DOCKED: ATOM     22  C   UNL     1      16.146 -11.412   2.151 -0.40 +0.00    +0.000 A 
DOCKED: ATOM     23  N   UNL     1      17.060 -11.104   3.101 -0.44 +0.00    +0.000 N 
DOCKED: ATOM     24  C   UNL     1      18.257 -11.165   2.492 -0.46 -0.00    +0.000 A 
DOCKED: ATOM     25  C   UNL     1      18.123 -11.513   1.171 -0.47 -0.00    +0.000 A 
DOCKED: ATOM     26  C   UNL     1      19.226 -11.616   0.323 -0.53 -0.00    +0.000 A 
DOCKED: ATOM     27  C   UNL     1      20.498 -11.357   0.866 -0.63 -0.00    +0.000 A 
DOCKED: ATOM     28  C   UNL     1      20.637 -11.004   2.227 -0.59 -0.00    +0.000 A 
DOCKED: ATOM     29  C   UNL     1      19.505 -10.903   3.056 -0.62 -0.00    +0.000 A 
DOCKED: ATOM     30  C   UNL     1      14.674 -11.466   2.407 -0.49 +0.00    +0.000 C 
DOCKED: ATOM     31  H   UNL     1      16.884 -10.881   4.044 -0.04 +0.00    +0.000 HD
DOCKED: ENDBRANCH  20  21
DOCKED: ENDBRANCH  19  20
DOCKED: ENDBRANCH   1  19
DOCKED: TORSDOF 8
DOCKED: TER
DOCKED: ENDMDL
________________________________________________________________________________


	BEGINNING GENETIC ALGORITHM DOCKING 84 of 100
Run: 84 Seed: 66566793 1277957348 [ Run 84 of 100 GA/GALS ]
Beginning LAMARCKIAN GENETIC ALGORITHM (LGA), with a maximum of 2500000 energy evaluations.

Final-Value: -13.357


	FINAL GENETIC ALGORITHM DOCKED STATE
	_______________________________________________


Detailed state:  trans 20.975 -9.634 -5.277 quatxyzw -0.192765 -0.921163 0.134095 -0.310352 center 0.698 0.076 -0.072 ntor 8 -1.2928 95.5368 -152.9467 -68.5668 -32.3857 -105.5130 59.8704 -45.0541
State:	 20.975  -9.634  -5.277  -0.203 -0.969  0.141 -143.839     -1.29   95.54 -152.95  -68.57  -32.39 -105.51   59.87  -45.05

DOCKED: MODEL       84
DOCKED: USER    Run = 84
DOCKED: USER    DPF = ligand_dock.biased.dpf
DOCKED: USER  
DOCKED: USER    Estimated Free Energy of Binding    =   -9.93 kcal/mol  [=(1)+(2)+(3)-(4)]
DOCKED: USER    Estimated Inhibition Constant, Ki   =   52.47 nM (nanomolar)  [Temperature = 298.15 K]
DOCKED: USER    
DOCKED: USER    (1) Final Intermolecular Energy     =  -12.32 kcal/mol
DOCKED: USER        vdW + Hbond + desolv Energy     =  -12.32 kcal/mol
DOCKED: USER        Electrostatic Energy            =   +0.00 kcal/mol
DOCKED: USER    (2) Final Total Internal Energy     =   -1.04 kcal/mol
DOCKED: USER    (3) Torsional Free Energy           =   +2.39 kcal/mol
DOCKED: USER    (4) Unbound System's Energy  [=(2)] =   -1.04 kcal/mol
DOCKED: USER    
DOCKED: USER    
DOCKED: USER    NEWDPF move ligand.pdbqt
DOCKED: USER    NEWDPF about 0.698000 0.076000 -0.072000
DOCKED: USER    NEWDPF tran0 20.975103 -9.633693 -5.277175
DOCKED: USER    NEWDPF quaternion0 -0.192765 -0.921163 0.134095 -0.310352
DOCKED: USER    NEWDPF axisangle0 -0.202778 -0.969011 0.141060 -143.839110
DOCKED: USER    NEWDPF quat0 -0.202778 -0.969011 0.141060 -143.839110
DOCKED: USER    NEWDPF dihe0 -1.29 95.54 -152.95 -68.57 -32.39 -105.51 59.87 -45.05 
DOCKED: USER  keepresnum = 1 
DOCKED: USER  
DOCKED: REMARK  Name = 
DOCKED: REMARK  9 active torsions:
DOCKED: REMARK  status: ('A' for Active; 'I' for Inactive)
DOCKED: REMARK    1  A    between atoms: C_2  and  C_3
DOCKED: REMARK    2  A    between atoms: C_4  and  C_5
DOCKED: REMARK    3  A    between atoms: C_8  and  C_9
DOCKED: REMARK    4  A    between atoms: C_9  and  N_10
DOCKED: REMARK    5  A    between atoms: N_10  and  C_11
DOCKED: REMARK    6  A    between atoms: C_11  and  C_12
DOCKED: REMARK    7  A    between atoms: C_12  and  C_13
DOCKED: REMARK    8  A    between atoms: C_14  and  C_22
DOCKED: REMARK    9  A    between atoms: N_25  and  O_26
DOCKED: REMARK                            x       y       z     vdW  Elec       q    Type
DOCKED: REMARK                         _______ _______ _______ _____ _____    ______ ____
DOCKED: USER                              x       y       z     vdW  Elec       q    Type
DOCKED: USER                           _______ _______ _______ _____ _____    ______ ____
DOCKED: ROOT
DOCKED: ATOM      1  N   UNL     1      22.000  -9.526  -5.827 -0.29 -0.00    +0.000 N 
DOCKED: ATOM      2  H   UNL     1      22.509  -9.558  -4.943 -0.03 -0.00    +0.000 HD
DOCKED: ATOM      3  H   UNL     1      21.685  -8.580  -6.039 -0.00 -0.00    +0.000 HD
DOCKED: ENDROOT
DOCKED: BRANCH   1   4
DOCKED: ATOM      4  C   UNL     1      20.812 -10.383  -5.719 -0.38 -0.00    +0.000 C 
DOCKED: BRANCH   4   8
DOCKED: ATOM      5  C   UNL     1      19.696 -10.691  -1.551 -0.42 -0.00    +0.000 A 
DOCKED: ATOM      6  C   UNL     1      18.709 -10.608  -2.554 -0.31 -0.00    +0.000 A 
DOCKED: ATOM      7  C   UNL     1      19.074 -10.514  -3.901 -0.34 -0.00    +0.000 A 
DOCKED: ATOM      8  C   UNL     1      20.426 -10.523  -4.274 -0.41 -0.00    +0.000 A 
DOCKED: ATOM      9  C   UNL     1      21.412 -10.609  -3.279 -0.45 -0.00    +0.000 A 
DOCKED: ATOM     10  C   UNL     1      21.048 -10.705  -1.933 -0.42 -0.00    +0.000 A 
DOCKED: BRANCH   5  12
DOCKED: ATOM     11  C   UNL     1      20.284 -10.801   0.868 -0.68 -0.00    +0.000 C 
DOCKED: ATOM     12  C   UNL     1      19.365 -10.805  -0.109 -0.54 -0.00    +0.000 C 
DOCKED: BRANCH  11  14
DOCKED: ATOM     13  O   UNL     1      19.344  -9.963   2.856 -0.67 -0.00    +0.000 OA
DOCKED: ATOM     14  C   UNL     1      19.950 -10.917   2.303 -0.73 -0.00    +0.000 C 
DOCKED: ATOM     15  N   UNL     1      20.314 -12.063   3.086 -0.69 -0.00    +0.000 N 
DOCKED: ATOM     16  H   UNL     1      20.871 -12.771   2.691 -0.59 -0.00    +0.000 HD
DOCKED: BRANCH  15  17
DOCKED: ATOM     17  O   UNL     1      19.893 -12.170   4.370 -0.76 -0.00    +0.000 OA
DOCKED: ATOM     18  H   UNL     1      19.376 -11.385   4.608 -0.03 -0.00    +0.000 HD
DOCKED: ENDBRANCH  15  17
DOCKED: ENDBRANCH  11  14
DOCKED: ENDBRANCH   5  12
DOCKED: ENDBRANCH   4   8
DOCKED: ENDBRANCH   1   4
DOCKED: BRANCH   1  19
DOCKED: ATOM     19  C   UNL     1      22.901  -9.957  -6.907 -0.32 -0.00    +0.000 C 
DOCKED: BRANCH  19  20
DOCKED: ATOM     20  C   UNL     1      24.115  -9.026  -7.064 -0.23 -0.00    +0.000 C 
DOCKED: BRANCH  20  21
DOCKED: ATOM     21  C   UNL     1      25.288  -9.788  -7.612 -0.30 -0.00    +0.000 A 
DOCKED: ATOM     22  C   UNL     1      25.263 -10.970  -8.355 -0.35 -0.00    +0.000 A 
DOCKED: ATOM     23  N   UNL     1      26.520 -11.398  -8.615 -0.38 -0.00    +0.000 N 
DOCKED: ATOM     24  C   UNL     1      27.340 -10.511  -8.026 -0.39 -0.00    +0.000 A 
DOCKED: ATOM     25  C   UNL     1      26.627  -9.520  -7.399 -0.35 -0.00    +0.000 A 
DOCKED: ATOM     26  C   UNL     1      27.259  -8.495  -6.693 -0.37 -0.00    +0.000 A 
DOCKED: ATOM     27  C   UNL     1      28.665  -8.499  -6.647 -0.36 -0.00    +0.000 A 
DOCKED: ATOM     28  C   UNL     1      29.399  -9.516  -7.296 -0.37 -0.00    +0.000 A 
DOCKED: ATOM     29  C   UNL     1      28.734 -10.540  -7.996 -0.45 -0.00    +0.000 A 
DOCKED: ATOM     30  C   UNL     1      24.034 -11.673  -8.836 -0.38 -0.00    +0.000 C 
DOCKED: ATOM     31  H   UNL     1      26.780 -12.195  -9.131 -0.34 -0.00    +0.000 HD
DOCKED: ENDBRANCH  20  21
DOCKED: ENDBRANCH  19  20
DOCKED: ENDBRANCH   1  19
DOCKED: TORSDOF 8
DOCKED: TER
DOCKED: ENDMDL
________________________________________________________________________________


	BEGINNING GENETIC ALGORITHM DOCKING 85 of 100
Run: 85 Seed: 1156399283 461461893 [ Run 85 of 100 GA/GALS ]
Beginning LAMARCKIAN GENETIC ALGORITHM (LGA), with a maximum of 2500000 energy evaluations.

Final-Value: -14.625


	FINAL GENETIC ALGORITHM DOCKED STATE
	_______________________________________________


Detailed state:  trans 20.876 -8.408 -5.549 quatxyzw 0.288328 -0.012554 0.955964 -0.053322 center 0.698 0.076 -0.072 ntor 8 15.7960 -50.7708 40.3730 62.5325 2.3098 -92.7892 -79.2877 63.7298
State:	 20.876  -8.408  -5.549   0.289 -0.013  0.957 -173.887     15.80  -50.77   40.37   62.53    2.31  -92.79  -79.29   63.73

DOCKED: MODEL       85
DOCKED: USER    Run = 85
DOCKED: USER    DPF = ligand_dock.biased.dpf
DOCKED: USER  
DOCKED: USER    Estimated Free Energy of Binding    =  -11.15 kcal/mol  [=(1)+(2)+(3)-(4)]
DOCKED: USER    Estimated Inhibition Constant, Ki   =    6.68 nM (nanomolar)  [Temperature = 298.15 K]
DOCKED: USER    
DOCKED: USER    (1) Final Intermolecular Energy     =  -13.54 kcal/mol
DOCKED: USER        vdW + Hbond + desolv Energy     =  -13.54 kcal/mol
DOCKED: USER        Electrostatic Energy            =   +0.00 kcal/mol
DOCKED: USER    (2) Final Total Internal Energy     =   -1.09 kcal/mol
DOCKED: USER    (3) Torsional Free Energy           =   +2.39 kcal/mol
DOCKED: USER    (4) Unbound System's Energy  [=(2)] =   -1.09 kcal/mol
DOCKED: USER    
DOCKED: USER    
DOCKED: USER    NEWDPF move ligand.pdbqt
DOCKED: USER    NEWDPF about 0.698000 0.076000 -0.072000
DOCKED: USER    NEWDPF tran0 20.876430 -8.408176 -5.549413
DOCKED: USER    NEWDPF quaternion0 0.288328 -0.012554 0.955964 -0.053322
DOCKED: USER    NEWDPF axisangle0 0.288738 -0.012572 0.957325 -173.886887
DOCKED: USER    NEWDPF quat0 0.288738 -0.012572 0.957325 -173.886887
DOCKED: USER    NEWDPF dihe0 15.80 -50.77 40.37 62.53 2.31 -92.79 -79.29 63.73 
DOCKED: USER  keepresnum = 1 
DOCKED: USER  
DOCKED: REMARK  Name = 
DOCKED: REMARK  9 active torsions:
DOCKED: REMARK  status: ('A' for Active; 'I' for Inactive)
DOCKED: REMARK    1  A    between atoms: C_2  and  C_3
DOCKED: REMARK    2  A    between atoms: C_4  and  C_5
DOCKED: REMARK    3  A    between atoms: C_8  and  C_9
DOCKED: REMARK    4  A    between atoms: C_9  and  N_10
DOCKED: REMARK    5  A    between atoms: N_10  and  C_11
DOCKED: REMARK    6  A    between atoms: C_11  and  C_12
DOCKED: REMARK    7  A    between atoms: C_12  and  C_13
DOCKED: REMARK    8  A    between atoms: C_14  and  C_22
DOCKED: REMARK    9  A    between atoms: N_25  and  O_26
DOCKED: REMARK                            x       y       z     vdW  Elec       q    Type
DOCKED: REMARK                         _______ _______ _______ _____ _____    ______ ____
DOCKED: USER                              x       y       z     vdW  Elec       q    Type
DOCKED: USER                           _______ _______ _______ _____ _____    ______ ____
DOCKED: ROOT
DOCKED: ATOM      1  N   UNL     1      21.507  -9.062  -6.283 -0.21 -0.00    +0.000 N 
DOCKED: ATOM      2  H   UNL     1      20.923  -8.788  -7.074 +0.01 -0.00    +0.000 HD
DOCKED: ATOM      3  H   UNL     1      21.105  -9.853  -5.782 +0.00 -0.00    +0.000 HD
DOCKED: ENDROOT
DOCKED: BRANCH   1   4
DOCKED: ATOM      4  C   UNL     1      21.596  -7.934  -5.347 -0.24 -0.00    +0.000 C 
DOCKED: BRANCH   4   8
DOCKED: ATOM      5  C   UNL     1      20.792  -9.337  -1.335 -0.51 -0.00    +0.000 A 
DOCKED: ATOM      6  C   UNL     1      20.846 -10.241  -2.414 -0.50 -0.00    +0.000 A 
DOCKED: ATOM      7  C   UNL     1      21.112  -9.785  -3.709 -0.42 -0.00    +0.000 A 
DOCKED: ATOM      8  C   UNL     1      21.349  -8.424  -3.948 -0.33 -0.00    +0.000 A 
DOCKED: ATOM      9  C   UNL     1      21.299  -7.519  -2.877 -0.38 -0.00    +0.000 A 
DOCKED: ATOM     10  C   UNL     1      21.036  -7.975  -1.582 -0.37 -0.00    +0.000 A 
DOCKED: BRANCH   5  12
DOCKED: ATOM     11  C   UNL     1      20.652 -11.036   0.483 -0.69 -0.00    +0.000 C 
DOCKED: ATOM     12  C   UNL     1      20.527  -9.769   0.060 -0.60 -0.00    +0.000 C 
DOCKED: BRANCH  11  14
DOCKED: ATOM     13  O   UNL     1      19.885 -12.602   2.064 -1.60 -0.00    +0.000 OA
DOCKED: ATOM     14  C   UNL     1      20.384 -11.462   1.872 -0.77 -0.00    +0.000 C 
DOCKED: ATOM     15  N   UNL     1      20.648 -10.615   3.000 -0.64 -0.00    +0.000 N 
DOCKED: ATOM     16  H   UNL     1      20.947  -9.688   2.859 -0.60 -0.00    +0.000 HD
DOCKED: BRANCH  15  17
DOCKED: ATOM     17  O   UNL     1      20.486 -11.089   4.259 -0.71 -0.00    +0.000 OA
DOCKED: ATOM     18  H   UNL     1      20.437 -12.057   4.237 -0.36 -0.00    +0.000 HD
DOCKED: ENDBRANCH  15  17
DOCKED: ENDBRANCH  11  14
DOCKED: ENDBRANCH   5  12
DOCKED: ENDBRANCH   4   8
DOCKED: ENDBRANCH   1   4
DOCKED: BRANCH   1  19
DOCKED: ATOM     19  C   UNL     1      22.827  -9.470  -6.789 -0.28 -0.00    +0.000 C 
DOCKED: BRANCH  19  20
DOCKED: ATOM     20  C   UNL     1      22.726 -10.474  -7.950 -0.30 -0.00    +0.000 C 
DOCKED: BRANCH  20  21
DOCKED: ATOM     21  C   UNL     1      24.091 -10.973  -8.328 -0.32 -0.00    +0.000 A 
DOCKED: ATOM     22  C   UNL     1      24.415 -12.187  -8.936 -0.39 -0.00    +0.000 A 
DOCKED: ATOM     23  N   UNL     1      25.756 -12.317  -9.060 -0.36 -0.00    +0.000 N 
DOCKED: ATOM     24  C   UNL     1      26.285 -11.208  -8.516 -0.34 -0.00    +0.000 A 
DOCKED: ATOM     25  C   UNL     1      25.304 -10.368  -8.052 -0.33 -0.00    +0.000 A 
DOCKED: ATOM     26  C   UNL     1      25.607  -9.162  -7.420 -0.27 -0.00    +0.000 A 
DOCKED: ATOM     27  C   UNL     1      26.964  -8.819  -7.276 -0.33 -0.00    +0.000 A 
DOCKED: ATOM     28  C   UNL     1      27.974  -9.681  -7.758 -0.41 -0.00    +0.000 A 
DOCKED: ATOM     29  C   UNL     1      27.638 -10.894  -8.386 -0.34 -0.00    +0.000 A 
DOCKED: ATOM     30  C   UNL     1      23.437 -13.208  -9.423 -0.40 -0.00    +0.000 C 
DOCKED: ATOM     31  H   UNL     1      26.244 -13.070  -9.467 -0.57 -0.00    +0.000 HD
DOCKED: ENDBRANCH  20  21
DOCKED: ENDBRANCH  19  20
DOCKED: ENDBRANCH   1  19
DOCKED: TORSDOF 8
DOCKED: TER
DOCKED: ENDMDL
________________________________________________________________________________


	BEGINNING GENETIC ALGORITHM DOCKING 86 of 100
Run: 86 Seed: 617608557 1999056426 [ Run 86 of 100 GA/GALS ]
Beginning LAMARCKIAN GENETIC ALGORITHM (LGA), with a maximum of 2500000 energy evaluations.

Final-Value: -14.087


	FINAL GENETIC ALGORITHM DOCKED STATE
	_______________________________________________


Detailed state:  trans 11.846 -10.851 -2.443 quatxyzw -0.502321 0.680716 0.350483 -0.401821 center 0.698 0.076 -0.072 ntor 8 -17.9641 141.0374 69.8171 -29.8056 -46.7712 -48.1068 175.3186 -129.3784
State:	 11.846 -10.851  -2.443  -0.549  0.743  0.383 -132.616    -17.96  141.04   69.82  -29.81  -46.77  -48.11  175.32 -129.38

DOCKED: MODEL       86
DOCKED: USER    Run = 86
DOCKED: USER    DPF = ligand_dock.biased.dpf
DOCKED: USER  
DOCKED: USER    Estimated Free Energy of Binding    =   -8.50 kcal/mol  [=(1)+(2)+(3)-(4)]
DOCKED: USER    Estimated Inhibition Constant, Ki   =  590.55 nM (nanomolar)  [Temperature = 298.15 K]
DOCKED: USER    
DOCKED: USER    (1) Final Intermolecular Energy     =  -10.88 kcal/mol
DOCKED: USER        vdW + Hbond + desolv Energy     =  -10.88 kcal/mol
DOCKED: USER        Electrostatic Energy            =   +0.00 kcal/mol
DOCKED: USER    (2) Final Total Internal Energy     =   -3.20 kcal/mol
DOCKED: USER    (3) Torsional Free Energy           =   +2.39 kcal/mol
DOCKED: USER    (4) Unbound System's Energy  [=(2)] =   -3.20 kcal/mol
DOCKED: USER    
DOCKED: USER    
DOCKED: USER    NEWDPF move ligand.pdbqt
DOCKED: USER    NEWDPF about 0.698000 0.076000 -0.072000
DOCKED: USER    NEWDPF tran0 11.845806 -10.850731 -2.442755
DOCKED: USER    NEWDPF quaternion0 -0.502321 0.680716 0.350483 -0.401821
DOCKED: USER    NEWDPF axisangle0 -0.548554 0.743369 0.382741 -132.615834
DOCKED: USER    NEWDPF quat0 -0.548554 0.743369 0.382741 -132.615834
DOCKED: USER    NEWDPF dihe0 -17.96 141.04 69.82 -29.81 -46.77 -48.11 175.32 -129.38 
DOCKED: USER  keepresnum = 1 
DOCKED: USER  
DOCKED: REMARK  Name = 
DOCKED: REMARK  9 active torsions:
DOCKED: REMARK  status: ('A' for Active; 'I' for Inactive)
DOCKED: REMARK    1  A    between atoms: C_2  and  C_3
DOCKED: REMARK    2  A    between atoms: C_4  and  C_5
DOCKED: REMARK    3  A    between atoms: C_8  and  C_9
DOCKED: REMARK    4  A    between atoms: C_9  and  N_10
DOCKED: REMARK    5  A    between atoms: N_10  and  C_11
DOCKED: REMARK    6  A    between atoms: C_11  and  C_12
DOCKED: REMARK    7  A    between atoms: C_12  and  C_13
DOCKED: REMARK    8  A    between atoms: C_14  and  C_22
DOCKED: REMARK    9  A    between atoms: N_25  and  O_26
DOCKED: REMARK                            x       y       z     vdW  Elec       q    Type
DOCKED: REMARK                         _______ _______ _______ _____ _____    ______ ____
DOCKED: USER                              x       y       z     vdW  Elec       q    Type
DOCKED: USER                           _______ _______ _______ _____ _____    ______ ____
DOCKED: ROOT
DOCKED: ATOM      1  N   UNL     1      11.416 -10.510  -1.411 -0.21 -0.00    +0.000 N 
DOCKED: ATOM      2  H   UNL     1      11.416 -11.470  -1.064 -0.01 +0.00    +0.000 HD
DOCKED: ATOM      3  H   UNL     1      10.565 -10.306  -1.935 -0.03 -0.00    +0.000 HD
DOCKED: ENDROOT
DOCKED: BRANCH   1   4
DOCKED: ATOM      4  C   UNL     1      12.556 -10.337  -2.320 -0.19 -0.00    +0.000 C 
DOCKED: BRANCH   4   8
DOCKED: ATOM      5  C   UNL     1      16.282 -11.106  -0.260 -0.32 +0.00    +0.000 A 
DOCKED: ATOM      6  C   UNL     1      15.862  -9.785  -0.514 -0.18 -0.00    +0.000 A 
DOCKED: ATOM      7  C   UNL     1      14.654  -9.540  -1.175 -0.22 -0.00    +0.000 A 
DOCKED: ATOM      8  C   UNL     1      13.834 -10.605  -1.576 -0.27 -0.00    +0.000 A 
DOCKED: ATOM      9  C   UNL     1      14.247 -11.922  -1.323 -0.35 +0.00    +0.000 A 
DOCKED: ATOM     10  C   UNL     1      15.453 -12.168  -0.660 -0.40 +0.00    +0.000 A 
DOCKED: BRANCH   5  12
DOCKED: ATOM     11  C   UNL     1      17.930 -10.827   1.588 -0.49 -0.00    +0.000 C 
DOCKED: ATOM     12  C   UNL     1      17.547 -11.422   0.448 -0.47 -0.00    +0.000 C 
DOCKED: BRANCH  11  14
DOCKED: ATOM     13  O   UNL     1      19.730 -12.262   2.080 -1.64 -0.00    +0.000 OA
DOCKED: ATOM     14  C   UNL     1      19.193 -11.143   2.288 -0.66 -0.00    +0.000 C 
DOCKED: ATOM     15  N   UNL     1      19.808 -10.233   3.211 -0.62 -0.00    +0.000 N 
DOCKED: ATOM     16  H   UNL     1      19.349  -9.397   3.455 -0.41 -0.00    +0.000 HD
DOCKED: BRANCH  15  17
DOCKED: ATOM     17  O   UNL     1      21.018 -10.522   3.747 -0.69 -0.00    +0.000 OA
DOCKED: ATOM     18  H   UNL     1      21.201 -11.468   3.642 -0.53 -0.00    +0.000 HD
DOCKED: ENDBRANCH  15  17
DOCKED: ENDBRANCH  11  14
DOCKED: ENDBRANCH   5  12
DOCKED: ENDBRANCH   4   8
DOCKED: ENDBRANCH   1   4
DOCKED: BRANCH   1  19
DOCKED: ATOM     19  C   UNL     1      11.474  -9.590  -0.265 -0.18 +0.00    +0.000 C 
DOCKED: BRANCH  19  20
DOCKED: ATOM     20  C   UNL     1      11.399 -10.328   1.083 -0.26 +0.00    +0.000 C 
DOCKED: BRANCH  20  21
DOCKED: ATOM     21  C   UNL     1      12.393  -9.750   2.049 -0.18 +0.00    +0.000 A 
DOCKED: ATOM     22  C   UNL     1      12.439  -8.445   2.545 -0.13 +0.00    +0.000 A 
DOCKED: ATOM     23  N   UNL     1      13.519  -8.274   3.341 -0.20 +0.00    +0.000 N 
DOCKED: ATOM     24  C   UNL     1      14.170  -9.450   3.337 -0.30 +0.00    +0.000 A 
DOCKED: ATOM     25  C   UNL     1      13.519 -10.372   2.555 -0.29 +0.00    +0.000 A 
DOCKED: ATOM     26  C   UNL     1      14.017 -11.663   2.373 -0.39 +0.00    +0.000 A 
DOCKED: ATOM     27  C   UNL     1      15.216 -12.002   3.026 -0.33 +0.00    +0.000 A 
DOCKED: ATOM     28  C   UNL     1      15.883 -11.055   3.835 -0.47 +0.00    +0.000 A 
DOCKED: ATOM     29  C   UNL     1      15.359  -9.759   3.995 -0.39 +0.00    +0.000 A 
DOCKED: ATOM     30  C   UNL     1      11.432  -7.373   2.275 -0.07 +0.00    +0.000 C 
DOCKED: ATOM     31  H   UNL     1      13.775  -7.456   3.826 +0.00 +0.00    +0.000 HD
DOCKED: ENDBRANCH  20  21
DOCKED: ENDBRANCH  19  20
DOCKED: ENDBRANCH   1  19
DOCKED: TORSDOF 8
DOCKED: TER
DOCKED: ENDMDL
________________________________________________________________________________


	BEGINNING GENETIC ALGORITHM DOCKING 87 of 100
Run: 87 Seed: 263193434 1936851924 [ Run 87 of 100 GA/GALS ]
Beginning LAMARCKIAN GENETIC ALGORITHM (LGA), with a maximum of 2500000 energy evaluations.

Final-Value: -13.543


	FINAL GENETIC ALGORITHM DOCKED STATE
	_______________________________________________


Detailed state:  trans 15.545 -9.916 -1.508 quatxyzw 0.676676 0.593739 0.267105 -0.343858 center 0.698 0.076 -0.072 ntor 8 6.2725 107.0775 173.0230 139.9861 -166.6544 -152.6827 -102.4722 99.4297
State:	 15.545  -9.916  -1.508   0.721  0.632  0.284 -139.776      6.27  107.08  173.02  139.99 -166.65 -152.68 -102.47   99.43

DOCKED: MODEL       87
DOCKED: USER    Run = 87
DOCKED: USER    DPF = ligand_dock.biased.dpf
DOCKED: USER  
DOCKED: USER    Estimated Free Energy of Binding    =   -9.15 kcal/mol  [=(1)+(2)+(3)-(4)]
DOCKED: USER    Estimated Inhibition Constant, Ki   =  195.51 nM (nanomolar)  [Temperature = 298.15 K]
DOCKED: USER    
DOCKED: USER    (1) Final Intermolecular Energy     =  -11.54 kcal/mol
DOCKED: USER        vdW + Hbond + desolv Energy     =  -11.54 kcal/mol
DOCKED: USER        Electrostatic Energy            =   +0.00 kcal/mol
DOCKED: USER    (2) Final Total Internal Energy     =   -2.00 kcal/mol
DOCKED: USER    (3) Torsional Free Energy           =   +2.39 kcal/mol
DOCKED: USER    (4) Unbound System's Energy  [=(2)] =   -2.00 kcal/mol
DOCKED: USER    
DOCKED: USER    
DOCKED: USER    NEWDPF move ligand.pdbqt
DOCKED: USER    NEWDPF about 0.698000 0.076000 -0.072000
DOCKED: USER    NEWDPF tran0 15.544624 -9.916045 -1.507869
DOCKED: USER    NEWDPF quaternion0 0.676676 0.593739 0.267105 -0.343858
DOCKED: USER    NEWDPF axisangle0 0.720619 0.632295 0.284450 -139.775748
DOCKED: USER    NEWDPF quat0 0.720619 0.632295 0.284450 -139.775748
DOCKED: USER    NEWDPF dihe0 6.27 107.08 173.02 139.99 -166.65 -152.68 -102.47 99.43 
DOCKED: USER  keepresnum = 1 
DOCKED: USER  
DOCKED: REMARK  Name = 
DOCKED: REMARK  9 active torsions:
DOCKED: REMARK  status: ('A' for Active; 'I' for Inactive)
DOCKED: REMARK    1  A    between atoms: C_2  and  C_3
DOCKED: REMARK    2  A    between atoms: C_4  and  C_5
DOCKED: REMARK    3  A    between atoms: C_8  and  C_9
DOCKED: REMARK    4  A    between atoms: C_9  and  N_10
DOCKED: REMARK    5  A    between atoms: N_10  and  C_11
DOCKED: REMARK    6  A    between atoms: C_11  and  C_12
DOCKED: REMARK    7  A    between atoms: C_12  and  C_13
DOCKED: REMARK    8  A    between atoms: C_14  and  C_22
DOCKED: REMARK    9  A    between atoms: N_25  and  O_26
DOCKED: REMARK                            x       y       z     vdW  Elec       q    Type
DOCKED: REMARK                         _______ _______ _______ _____ _____    ______ ____
DOCKED: USER                              x       y       z     vdW  Elec       q    Type
DOCKED: USER                           _______ _______ _______ _____ _____    ______ ____
DOCKED: ROOT
DOCKED: ATOM      1  N   UNL     1      15.575 -10.893  -0.869 -0.28 +0.00    +0.000 N 
DOCKED: ATOM      2  H   UNL     1      14.687 -10.661  -0.422 +0.00 +0.00    +0.000 HD
DOCKED: ATOM      3  H   UNL     1      16.358 -10.449  -0.390 -0.01 -0.00    +0.000 HD
DOCKED: ENDROOT
DOCKED: BRANCH   1   4
DOCKED: ATOM      4  C   UNL     1      15.552 -10.397  -2.251 -0.29 -0.00    +0.000 C 
DOCKED: BRANCH   4   8
DOCKED: ATOM      5  C   UNL     1      19.538 -10.532  -3.924 -0.36 -0.00    +0.000 A 
DOCKED: ATOM      6  C   UNL     1      19.345 -10.557  -2.528 -0.38 -0.00    +0.000 A 
DOCKED: ATOM      7  C   UNL     1      18.055 -10.519  -1.991 -0.25 -0.00    +0.000 A 
DOCKED: ATOM      8  C   UNL     1      16.935 -10.477  -2.834 -0.13 -0.00    +0.000 A 
DOCKED: ATOM      9  C   UNL     1      17.122 -10.454  -4.224 -0.17 -0.00    +0.000 A 
DOCKED: ATOM     10  C   UNL     1      18.412 -10.494  -4.762 -0.29 -0.00    +0.000 A 
DOCKED: BRANCH   5  12
DOCKED: ATOM     11  C   UNL     1      21.127 -11.118  -5.753 -0.47 -0.00    +0.000 C 
DOCKED: ATOM     12  C   UNL     1      20.885 -10.582  -4.547 -0.48 -0.00    +0.000 C 
DOCKED: BRANCH  11  14
DOCKED: ATOM     13  O   UNL     1      23.097 -10.089  -6.528 -0.34 -0.00    +0.000 OA
DOCKED: ATOM     14  C   UNL     1      22.470 -11.168  -6.368 -0.47 -0.00    +0.000 C 
DOCKED: ATOM     15  N   UNL     1      23.066 -12.396  -6.810 -0.55 -0.00    +0.000 N 
DOCKED: ATOM     16  H   UNL     1      22.548 -13.232  -6.780 -0.55 -0.00    +0.000 HD
DOCKED: BRANCH  15  17
DOCKED: ATOM     17  O   UNL     1      24.340 -12.406  -7.270 -1.11 +0.00    +0.000 OA
DOCKED: ATOM     18  H   UNL     1      24.738 -11.530  -7.142 -0.04 +0.00    +0.000 HD
DOCKED: ENDBRANCH  15  17
DOCKED: ENDBRANCH  11  14
DOCKED: ENDBRANCH   5  12
DOCKED: ENDBRANCH   4   8
DOCKED: ENDBRANCH   1   4
DOCKED: BRANCH   1  19
DOCKED: ATOM     19  C   UNL     1      15.771 -12.350  -0.804 -0.37 +0.00    +0.000 C 
DOCKED: BRANCH  19  20
DOCKED: ATOM     20  C   UNL     1      16.889 -12.747   0.176 -0.55 +0.00    +0.000 C 
DOCKED: BRANCH  20  21
DOCKED: ATOM     21  C   UNL     1      17.196 -11.610   1.106 -0.42 +0.00    +0.000 A 
DOCKED: ATOM     22  C   UNL     1      18.446 -11.050   1.382 -0.47 -0.00    +0.000 A 
DOCKED: ATOM     23  N   UNL     1      18.339 -10.084   2.324 -0.51 -0.00    +0.000 N 
DOCKED: ATOM     24  C   UNL     1      17.040 -10.043   2.663 -0.41 +0.00    +0.000 A 
DOCKED: ATOM     25  C   UNL     1      16.312 -10.962   1.948 -0.38 +0.00    +0.000 A 
DOCKED: ATOM     26  C   UNL     1      14.941 -11.126   2.144 -0.40 +0.00    +0.000 A 
DOCKED: ATOM     27  C   UNL     1      14.311 -10.308   3.100 -0.34 +0.00    +0.000 A 
DOCKED: ATOM     28  C   UNL     1      15.058  -9.359   3.833 -0.37 +0.00    +0.000 A 
DOCKED: ATOM     29  C   UNL     1      16.442  -9.221   3.618 -0.18 +0.00    +0.000 A 
DOCKED: ATOM     30  C   UNL     1      19.735 -11.423   0.722 -0.67 -0.00    +0.000 C 
DOCKED: ATOM     31  H   UNL     1      19.066  -9.526   2.686 -0.28 -0.00    +0.000 HD
DOCKED: ENDBRANCH  20  21
DOCKED: ENDBRANCH  19  20
DOCKED: ENDBRANCH   1  19
DOCKED: TORSDOF 8
DOCKED: TER
DOCKED: ENDMDL
________________________________________________________________________________


	BEGINNING GENETIC ALGORITHM DOCKING 88 of 100
Run: 88 Seed: 760042208 1630353677 [ Run 88 of 100 GA/GALS ]
Beginning LAMARCKIAN GENETIC ALGORITHM (LGA), with a maximum of 2500000 energy evaluations.

Final-Value: -14.357


	FINAL GENETIC ALGORITHM DOCKED STATE
	_______________________________________________


Detailed state:  trans 20.895 -10.766 -6.206 quatxyzw 0.444438 0.259565 0.820865 0.247549 center 0.698 0.076 -0.072 ntor 8 45.3060 -145.4045 -14.0544 -115.3648 62.0870 -44.6760 35.6783 24.3643
State:	 20.895 -10.766  -6.206   0.459  0.268  0.847 151.335     45.31 -145.40  -14.05 -115.36   62.09  -44.68   35.68   24.36

DOCKED: MODEL       88
DOCKED: USER    Run = 88
DOCKED: USER    DPF = ligand_dock.biased.dpf
DOCKED: USER  
DOCKED: USER    Estimated Free Energy of Binding    =  -11.25 kcal/mol  [=(1)+(2)+(3)-(4)]
DOCKED: USER    Estimated Inhibition Constant, Ki   =    5.66 nM (nanomolar)  [Temperature = 298.15 K]
DOCKED: USER    
DOCKED: USER    (1) Final Intermolecular Energy     =  -13.64 kcal/mol
DOCKED: USER        vdW + Hbond + desolv Energy     =  -13.64 kcal/mol
DOCKED: USER        Electrostatic Energy            =   +0.00 kcal/mol
DOCKED: USER    (2) Final Total Internal Energy     =   -0.72 kcal/mol
DOCKED: USER    (3) Torsional Free Energy           =   +2.39 kcal/mol
DOCKED: USER    (4) Unbound System's Energy  [=(2)] =   -0.72 kcal/mol
DOCKED: USER    
DOCKED: USER    
DOCKED: USER    NEWDPF move ligand.pdbqt
DOCKED: USER    NEWDPF about 0.698000 0.076000 -0.072000
DOCKED: USER    NEWDPF tran0 20.895196 -10.766231 -6.205530
DOCKED: USER    NEWDPF quaternion0 0.444438 0.259565 0.820865 0.247549
DOCKED: USER    NEWDPF axisangle0 0.458716 0.267903 0.847235 151.334898
DOCKED: USER    NEWDPF quat0 0.458716 0.267903 0.847235 151.334898
DOCKED: USER    NEWDPF dihe0 45.31 -145.40 -14.05 -115.36 62.09 -44.68 35.68 24.36 
DOCKED: USER  keepresnum = 1 
DOCKED: USER  
DOCKED: REMARK  Name = 
DOCKED: REMARK  9 active torsions:
DOCKED: REMARK  status: ('A' for Active; 'I' for Inactive)
DOCKED: REMARK    1  A    between atoms: C_2  and  C_3
DOCKED: REMARK    2  A    between atoms: C_4  and  C_5
DOCKED: REMARK    3  A    between atoms: C_8  and  C_9
DOCKED: REMARK    4  A    between atoms: C_9  and  N_10
DOCKED: REMARK    5  A    between atoms: N_10  and  C_11
DOCKED: REMARK    6  A    between atoms: C_11  and  C_12
DOCKED: REMARK    7  A    between atoms: C_12  and  C_13
DOCKED: REMARK    8  A    between atoms: C_14  and  C_22
DOCKED: REMARK    9  A    between atoms: N_25  and  O_26
DOCKED: REMARK                            x       y       z     vdW  Elec       q    Type
DOCKED: REMARK                         _______ _______ _______ _____ _____    ______ ____
DOCKED: USER                              x       y       z     vdW  Elec       q    Type
DOCKED: USER                           _______ _______ _______ _____ _____    ______ ____
DOCKED: ROOT
DOCKED: ATOM      1  N   UNL     1      21.602 -11.168  -7.044 -0.29 -0.00    +0.000 N 
DOCKED: ATOM      2  H   UNL     1      20.832 -11.665  -7.493 -0.37 -0.00    +0.000 HD
DOCKED: ATOM      3  H   UNL     1      22.020 -11.726  -6.300 -0.21 -0.00    +0.000 HD
DOCKED: ENDROOT
DOCKED: BRANCH   1   4
DOCKED: ATOM      4  C   UNL     1      21.081  -9.934  -6.442 -0.29 -0.00    +0.000 C 
DOCKED: BRANCH   4   8
DOCKED: ATOM      5  C   UNL     1      20.135 -10.733  -2.298 -0.40 -0.00    +0.000 A 
DOCKED: ATOM      6  C   UNL     1      21.114  -9.778  -2.639 -0.49 -0.00    +0.000 A 
DOCKED: ATOM      7  C   UNL     1      21.413  -9.518  -3.980 -0.38 -0.00    +0.000 A 
DOCKED: ATOM      8  C   UNL     1      20.728 -10.189  -5.004 -0.35 -0.00    +0.000 A 
DOCKED: ATOM      9  C   UNL     1      19.751 -11.138  -4.669 -0.43 -0.00    +0.000 A 
DOCKED: ATOM     10  C   UNL     1      19.450 -11.397  -3.329 -0.24 -0.00    +0.000 A 
DOCKED: BRANCH   5  12
DOCKED: ATOM     11  C   UNL     1      20.654 -11.064   0.117 -0.63 -0.00    +0.000 C 
DOCKED: ATOM     12  C   UNL     1      19.770 -11.038  -0.892 -0.47 -0.00    +0.000 C 
DOCKED: BRANCH  11  14
DOCKED: ATOM     13  O   UNL     1      19.609 -12.408   1.743 -1.65 -0.00    +0.000 OA
DOCKED: ATOM     14  C   UNL     1      20.286 -11.371   1.516 -0.76 -0.00    +0.000 C 
DOCKED: ATOM     15  N   UNL     1      20.651 -10.519   2.611 -0.59 -0.00    +0.000 N 
DOCKED: ATOM     16  H   UNL     1      21.095  -9.658   2.436 -0.56 -0.00    +0.000 HD
DOCKED: BRANCH  15  17
DOCKED: ATOM     17  O   UNL     1      20.383 -10.896   3.884 -0.81 -0.00    +0.000 OA
DOCKED: ATOM     18  H   UNL     1      20.637 -11.824   4.007 -0.49 -0.00    +0.000 HD
DOCKED: ENDBRANCH  15  17
DOCKED: ENDBRANCH  11  14
DOCKED: ENDBRANCH   5  12
DOCKED: ENDBRANCH   4   8
DOCKED: ENDBRANCH   1   4
DOCKED: BRANCH   1  19
DOCKED: ATOM     19  C   UNL     1      22.644 -10.900  -8.048 -0.33 -0.00    +0.000 C 
DOCKED: BRANCH  19  20
DOCKED: ATOM     20  C   UNL     1      22.283 -11.465  -9.433 -0.27 -0.00    +0.000 C 
DOCKED: BRANCH  20  21
DOCKED: ATOM     21  C   UNL     1      23.231 -12.566  -9.810 -0.31 -0.00    +0.000 A 
DOCKED: ATOM     22  C   UNL     1      24.528 -12.773  -9.336 -0.36 -0.00    +0.000 A 
DOCKED: ATOM     23  N   UNL     1      25.101 -13.830  -9.956 -0.36 -0.00    +0.000 N 
DOCKED: ATOM     24  C   UNL     1      24.188 -14.281 -10.833 -0.35 -0.00    +0.000 A 
DOCKED: ATOM     25  C   UNL     1      23.039 -13.533 -10.779 -0.32 -0.00    +0.000 A 
DOCKED: ATOM     26  C   UNL     1      21.954 -13.792 -11.617 -0.10 +0.00    +0.000 A 
DOCKED: ATOM     27  C   UNL     1      22.066 -14.861 -12.526 -0.29 +0.00    +0.000 A 
DOCKED: ATOM     28  C   UNL     1      23.247 -15.634 -12.578 -0.26 +0.00    +0.000 A 
DOCKED: ATOM     29  C   UNL     1      24.328 -15.345 -11.724 -0.25 +0.00    +0.000 A 
DOCKED: ATOM     30  C   UNL     1      25.205 -11.972  -8.269 -0.39 -0.00    +0.000 C 
DOCKED: ATOM     31  H   UNL     1      26.002 -14.195  -9.795 -0.63 -0.00    +0.000 HD
DOCKED: ENDBRANCH  20  21
DOCKED: ENDBRANCH  19  20
DOCKED: ENDBRANCH   1  19
DOCKED: TORSDOF 8
DOCKED: TER
DOCKED: ENDMDL
________________________________________________________________________________


	BEGINNING GENETIC ALGORITHM DOCKING 89 of 100
Run: 89 Seed: 1648774706 2044622123 [ Run 89 of 100 GA/GALS ]
Beginning LAMARCKIAN GENETIC ALGORITHM (LGA), with a maximum of 2500000 energy evaluations.

Final-Value: -14.501


	FINAL GENETIC ALGORITHM DOCKED STATE
	_______________________________________________


Detailed state:  trans 21.210 -10.699 -6.061 quatxyzw 0.541124 0.140930 0.819257 0.127048 center 0.698 0.076 -0.072 ntor 8 1.1761 -85.5426 118.4101 15.8482 -25.2251 177.4352 -114.6908 15.4624
State:	 21.210 -10.699  -6.061   0.546  0.142  0.826 165.402      1.18  -85.54  118.41   15.85  -25.23  177.44 -114.69   15.46

DOCKED: MODEL       89
DOCKED: USER    Run = 89
DOCKED: USER    DPF = ligand_dock.biased.dpf
DOCKED: USER  
DOCKED: USER    Estimated Free Energy of Binding    =  -10.63 kcal/mol  [=(1)+(2)+(3)-(4)]
DOCKED: USER    Estimated Inhibition Constant, Ki   =   16.05 nM (nanomolar)  [Temperature = 298.15 K]
DOCKED: USER    
DOCKED: USER    (1) Final Intermolecular Energy     =  -13.02 kcal/mol
DOCKED: USER        vdW + Hbond + desolv Energy     =  -13.02 kcal/mol
DOCKED: USER        Electrostatic Energy            =   +0.00 kcal/mol
DOCKED: USER    (2) Final Total Internal Energy     =   -1.48 kcal/mol
DOCKED: USER    (3) Torsional Free Energy           =   +2.39 kcal/mol
DOCKED: USER    (4) Unbound System's Energy  [=(2)] =   -1.48 kcal/mol
DOCKED: USER    
DOCKED: USER    
DOCKED: USER    NEWDPF move ligand.pdbqt
DOCKED: USER    NEWDPF about 0.698000 0.076000 -0.072000
DOCKED: USER    NEWDPF tran0 21.210218 -10.698764 -6.060600
DOCKED: USER    NEWDPF quaternion0 0.541124 0.140930 0.819257 0.127048
DOCKED: USER    NEWDPF axisangle0 0.545545 0.142081 0.825950 165.401881
DOCKED: USER    NEWDPF quat0 0.545545 0.142081 0.825950 165.401881
DOCKED: USER    NEWDPF dihe0 1.18 -85.54 118.41 15.85 -25.23 177.44 -114.69 15.46 
DOCKED: USER  keepresnum = 1 
DOCKED: USER  
DOCKED: REMARK  Name = 
DOCKED: REMARK  9 active torsions:
DOCKED: REMARK  status: ('A' for Active; 'I' for Inactive)
DOCKED: REMARK    1  A    between atoms: C_2  and  C_3
DOCKED: REMARK    2  A    between atoms: C_4  and  C_5
DOCKED: REMARK    3  A    between atoms: C_8  and  C_9
DOCKED: REMARK    4  A    between atoms: C_9  and  N_10
DOCKED: REMARK    5  A    between atoms: N_10  and  C_11
DOCKED: REMARK    6  A    between atoms: C_11  and  C_12
DOCKED: REMARK    7  A    between atoms: C_12  and  C_13
DOCKED: REMARK    8  A    between atoms: C_14  and  C_22
DOCKED: REMARK    9  A    between atoms: N_25  and  O_26
DOCKED: REMARK                            x       y       z     vdW  Elec       q    Type
DOCKED: REMARK                         _______ _______ _______ _____ _____    ______ ____
DOCKED: USER                              x       y       z     vdW  Elec       q    Type
DOCKED: USER                           _______ _______ _______ _____ _____    ______ ____
DOCKED: ROOT
DOCKED: ATOM      1  N   UNL     1      21.601 -11.263  -7.006 -0.28 -0.00    +0.000 N 
DOCKED: ATOM      2  H   UNL     1      20.650 -11.435  -7.331 -0.27 -0.00    +0.000 HD
DOCKED: ATOM      3  H   UNL     1      21.902 -11.978  -6.344 -0.40 -0.00    +0.000 HD
DOCKED: ENDROOT
DOCKED: BRANCH   1   4
DOCKED: ATOM      4  C   UNL     1      21.638  -9.967  -6.315 -0.33 -0.00    +0.000 C 
DOCKED: BRANCH   4   8
DOCKED: ATOM      5  C   UNL     1      20.361 -10.437  -2.209 -0.46 -0.00    +0.000 A 
DOCKED: ATOM      6  C   UNL     1      19.830 -11.258  -3.224 -0.33 -0.00    +0.000 A 
DOCKED: ATOM      7  C   UNL     1      20.250 -11.108  -4.549 -0.45 -0.00    +0.000 A 
DOCKED: ATOM      8  C   UNL     1      21.219 -10.151  -4.884 -0.38 -0.00    +0.000 A 
DOCKED: ATOM      9  C   UNL     1      21.752  -9.332  -3.876 -0.29 -0.00    +0.000 A 
DOCKED: ATOM     10  C   UNL     1      21.335  -9.484  -2.551 -0.47 -0.00    +0.000 A 
DOCKED: BRANCH   5  12
DOCKED: ATOM     11  C   UNL     1      20.647 -11.276   0.120 -0.55 -0.00    +0.000 C 
DOCKED: ATOM     12  C   UNL     1      19.960 -10.563  -0.786 -0.56 -0.00    +0.000 C 
DOCKED: BRANCH  11  14
DOCKED: ATOM     13  O   UNL     1      19.826 -12.516   1.944 -1.65 -0.00    +0.000 OA
DOCKED: ATOM     14  C   UNL     1      20.243 -11.400   1.536 -0.76 -0.00    +0.000 C 
DOCKED: ATOM     15  N   UNL     1      20.286 -10.293   2.448 -0.48 -0.00    +0.000 N 
DOCKED: ATOM     16  H   UNL     1      20.517  -9.395   2.118 -0.50 -0.00    +0.000 HD
DOCKED: BRANCH  15  17
DOCKED: ATOM     17  O   UNL     1      20.007 -10.482   3.760 -0.73 -0.00    +0.000 OA
DOCKED: ATOM     18  H   UNL     1      19.819 -11.420   3.920 -0.06 -0.00    +0.000 HD
DOCKED: ENDBRANCH  15  17
DOCKED: ENDBRANCH  11  14
DOCKED: ENDBRANCH   5  12
DOCKED: ENDBRANCH   4   8
DOCKED: ENDBRANCH   1   4
DOCKED: BRANCH   1  19
DOCKED: ATOM     19  C   UNL     1      22.512 -11.303  -8.161 -0.35 -0.00    +0.000 C 
DOCKED: BRANCH  19  20
DOCKED: ATOM     20  C   UNL     1      23.829 -12.030  -7.844 -0.51 -0.00    +0.000 C 
DOCKED: BRANCH  20  21
DOCKED: ATOM     21  C   UNL     1      24.482 -12.503  -9.111 -0.38 -0.00    +0.000 A 
DOCKED: ATOM     22  C   UNL     1      25.626 -11.986  -9.723 -0.26 -0.00    +0.000 A 
DOCKED: ATOM     23  N   UNL     1      25.875 -12.626 -10.889 -0.08 -0.00    +0.000 N 
DOCKED: ATOM     24  C   UNL     1      24.888 -13.527 -11.032 -0.25 -0.00    +0.000 A 
DOCKED: ATOM     25  C   UNL     1      24.016 -13.478  -9.973 -0.36 -0.00    +0.000 A 
DOCKED: ATOM     26  C   UNL     1      22.892 -14.303  -9.907 -0.35 +0.00    +0.000 A 
DOCKED: ATOM     27  C   UNL     1      22.677 -15.205 -10.965 -0.40 +0.00    +0.000 A 
DOCKED: ATOM     28  C   UNL     1      23.577 -15.260 -12.053 -0.29 +0.00    +0.000 A 
DOCKED: ATOM     29  C   UNL     1      24.699 -14.411 -12.094 -0.20 -0.00    +0.000 A 
DOCKED: ATOM     30  C   UNL     1      26.493 -10.897  -9.176 -0.36 -0.00    +0.000 C 
DOCKED: ATOM     31  H   UNL     1      26.626 -12.465 -11.506 -0.28 -0.00    +0.000 HD
DOCKED: ENDBRANCH  20  21
DOCKED: ENDBRANCH  19  20
DOCKED: ENDBRANCH   1  19
DOCKED: TORSDOF 8
DOCKED: TER
DOCKED: ENDMDL
________________________________________________________________________________


	BEGINNING GENETIC ALGORITHM DOCKING 90 of 100
Run: 90 Seed: 2075991980 969192099 [ Run 90 of 100 GA/GALS ]
Beginning LAMARCKIAN GENETIC ALGORITHM (LGA), with a maximum of 2500000 energy evaluations.

Final-Value: -14.574


	FINAL GENETIC ALGORITHM DOCKED STATE
	_______________________________________________


Detailed state:  trans 21.902 -7.485 -5.685 quatxyzw 0.553811 0.720730 -0.302651 0.286782 center 0.698 0.076 -0.072 ntor 8 25.5087 -53.1705 59.9056 -0.0200 -55.9046 -171.6660 -178.8731 -104.3771
State:	 21.902  -7.485  -5.685   0.578  0.752 -0.316 146.669     25.51  -53.17   59.91   -0.02  -55.90 -171.67 -178.87 -104.38

DOCKED: MODEL       90
DOCKED: USER    Run = 90
DOCKED: USER    DPF = ligand_dock.biased.dpf
DOCKED: USER  
DOCKED: USER    Estimated Free Energy of Binding    =  -10.74 kcal/mol  [=(1)+(2)+(3)-(4)]
DOCKED: USER    Estimated Inhibition Constant, Ki   =   13.41 nM (nanomolar)  [Temperature = 298.15 K]
DOCKED: USER    
DOCKED: USER    (1) Final Intermolecular Energy     =  -13.13 kcal/mol
DOCKED: USER        vdW + Hbond + desolv Energy     =  -13.13 kcal/mol
DOCKED: USER        Electrostatic Energy            =   +0.00 kcal/mol
DOCKED: USER    (2) Final Total Internal Energy     =   -1.45 kcal/mol
DOCKED: USER    (3) Torsional Free Energy           =   +2.39 kcal/mol
DOCKED: USER    (4) Unbound System's Energy  [=(2)] =   -1.45 kcal/mol
DOCKED: USER    
DOCKED: USER    
DOCKED: USER    NEWDPF move ligand.pdbqt
DOCKED: USER    NEWDPF about 0.698000 0.076000 -0.072000
DOCKED: USER    NEWDPF tran0 21.901732 -7.485085 -5.684563
DOCKED: USER    NEWDPF quaternion0 0.553811 0.720730 -0.302651 0.286782
DOCKED: USER    NEWDPF axisangle0 0.578093 0.752331 -0.315921 146.669217
DOCKED: USER    NEWDPF quat0 0.578093 0.752331 -0.315921 146.669217
DOCKED: USER    NEWDPF dihe0 25.51 -53.17 59.91 -0.02 -55.90 -171.67 -178.87 -104.38 
DOCKED: USER  keepresnum = 1 
DOCKED: USER  
DOCKED: REMARK  Name = 
DOCKED: REMARK  9 active torsions:
DOCKED: REMARK  status: ('A' for Active; 'I' for Inactive)
DOCKED: REMARK    1  A    between atoms: C_2  and  C_3
DOCKED: REMARK    2  A    between atoms: C_4  and  C_5
DOCKED: REMARK    3  A    between atoms: C_8  and  C_9
DOCKED: REMARK    4  A    between atoms: C_9  and  N_10
DOCKED: REMARK    5  A    between atoms: N_10  and  C_11
DOCKED: REMARK    6  A    between atoms: C_11  and  C_12
DOCKED: REMARK    7  A    between atoms: C_12  and  C_13
DOCKED: REMARK    8  A    between atoms: C_14  and  C_22
DOCKED: REMARK    9  A    between atoms: N_25  and  O_26
DOCKED: REMARK                            x       y       z     vdW  Elec       q    Type
DOCKED: REMARK                         _______ _______ _______ _____ _____    ______ ____
DOCKED: USER                              x       y       z     vdW  Elec       q    Type
DOCKED: USER                           _______ _______ _______ _____ _____    ______ ____
DOCKED: ROOT
DOCKED: ATOM      1  N   UNL     1      22.653  -8.303  -6.047 -0.21 -0.00    +0.000 N 
DOCKED: ATOM      2  H   UNL     1      23.248  -8.157  -5.231 +0.04 -0.00    +0.000 HD
DOCKED: ATOM      3  H   UNL     1      22.875  -7.642  -6.790 -0.01 -0.00    +0.000 HD
DOCKED: ENDROOT
DOCKED: BRANCH   1   4
DOCKED: ATOM      4  C   UNL     1      21.254  -8.087  -5.656 -0.21 -0.00    +0.000 C 
DOCKED: BRANCH   4   8
DOCKED: ATOM      5  C   UNL     1      20.568  -9.454  -1.609 -0.46 -0.00    +0.000 A 
DOCKED: ATOM      6  C   UNL     1      20.268 -10.284  -2.708 -0.44 -0.00    +0.000 A 
DOCKED: ATOM      7  C   UNL     1      20.496  -9.842  -4.014 -0.37 -0.00    +0.000 A 
DOCKED: ATOM      8  C   UNL     1      21.047  -8.573  -4.249 -0.31 -0.00    +0.000 A 
DOCKED: ATOM      9  C   UNL     1      21.350  -7.744  -3.159 -0.36 -0.00    +0.000 A 
DOCKED: ATOM     10  C   UNL     1      21.124  -8.187  -1.852 -0.43 -0.00    +0.000 A 
DOCKED: BRANCH   5  12
DOCKED: ATOM     11  C   UNL     1      20.573 -11.128   0.237 -0.65 -0.00    +0.000 C 
DOCKED: ATOM     12  C   UNL     1      20.358  -9.879  -0.203 -0.58 -0.00    +0.000 C 
DOCKED: BRANCH  11  14
DOCKED: ATOM     13  O   UNL     1      19.895 -12.697   1.855 -1.59 -0.00    +0.000 OA
DOCKED: ATOM     14  C   UNL     1      20.359 -11.547   1.638 -0.77 -0.00    +0.000 C 
DOCKED: ATOM     15  N   UNL     1      20.637 -10.683   2.749 -0.64 -0.00    +0.000 N 
DOCKED: ATOM     16  H   UNL     1      20.908  -9.750   2.590 -0.58 -0.00    +0.000 HD
DOCKED: BRANCH  15  17
DOCKED: ATOM     17  O   UNL     1      20.526 -11.149   4.017 -0.74 -0.00    +0.000 OA
DOCKED: ATOM     18  H   UNL     1      20.654 -12.110   4.021 -0.54 -0.00    +0.000 HD
DOCKED: ENDBRANCH  15  17
DOCKED: ENDBRANCH  11  14
DOCKED: ENDBRANCH   5  12
DOCKED: ENDBRANCH   4   8
DOCKED: ENDBRANCH   1   4
DOCKED: BRANCH   1  19
DOCKED: ATOM     19  C   UNL     1      22.883  -9.661  -6.565 -0.29 -0.00    +0.000 C 
DOCKED: BRANCH  19  20
DOCKED: ATOM     20  C   UNL     1      23.196  -9.669  -8.071 -0.22 -0.00    +0.000 C 
DOCKED: BRANCH  20  21
DOCKED: ATOM     21  C   UNL     1      24.458 -10.438  -8.336 -0.27 -0.00    +0.000 A 
DOCKED: ATOM     22  C   UNL     1      24.580 -11.796  -8.637 -0.39 -0.00    +0.000 A 
DOCKED: ATOM     23  N   UNL     1      25.882 -12.147  -8.745 -0.37 -0.00    +0.000 N 
DOCKED: ATOM     24  C   UNL     1      26.586 -11.030  -8.493 -0.33 -0.00    +0.000 A 
DOCKED: ATOM     25  C   UNL     1      25.755  -9.970  -8.233 -0.30 -0.00    +0.000 A 
DOCKED: ATOM     26  C   UNL     1      26.254  -8.706  -7.916 -0.23 -0.00    +0.000 A 
DOCKED: ATOM     27  C   UNL     1      27.651  -8.542  -7.878 -0.23 -0.00    +0.000 A 
DOCKED: ATOM     28  C   UNL     1      28.507  -9.632  -8.151 -0.36 -0.00    +0.000 A 
DOCKED: ATOM     29  C   UNL     1      27.974 -10.896  -8.462 -0.33 -0.00    +0.000 A 
DOCKED: ATOM     30  C   UNL     1      23.446 -12.748  -8.848 -0.42 -0.00    +0.000 C 
DOCKED: ATOM     31  H   UNL     1      26.240 -13.038  -8.964 -0.54 -0.00    +0.000 HD
DOCKED: ENDBRANCH  20  21
DOCKED: ENDBRANCH  19  20
DOCKED: ENDBRANCH   1  19
DOCKED: TORSDOF 8
DOCKED: TER
DOCKED: ENDMDL
________________________________________________________________________________


	BEGINNING GENETIC ALGORITHM DOCKING 91 of 100
Run: 91 Seed: 1448540364 121861191 [ Run 91 of 100 GA/GALS ]
Beginning LAMARCKIAN GENETIC ALGORITHM (LGA), with a maximum of 2500000 energy evaluations.

Final-Value: -13.858


	FINAL GENETIC ALGORITHM DOCKED STATE
	_______________________________________________


Detailed state:  trans 21.347 -8.228 -5.172 quatxyzw 0.718884 -0.050867 0.526984 0.450451 center 0.698 0.076 -0.072 ntor 8 24.9241 101.9155 -86.3370 -32.7680 -173.9998 -151.1650 -77.2801 -20.9991
State:	 21.347  -8.228  -5.172   0.805 -0.057  0.590 126.455     24.92  101.92  -86.34  -32.77 -174.00 -151.16  -77.28  -21.00

DOCKED: MODEL       91
DOCKED: USER    Run = 91
DOCKED: USER    DPF = ligand_dock.biased.dpf
DOCKED: USER  
DOCKED: USER    Estimated Free Energy of Binding    =   -9.86 kcal/mol  [=(1)+(2)+(3)-(4)]
DOCKED: USER    Estimated Inhibition Constant, Ki   =   59.38 nM (nanomolar)  [Temperature = 298.15 K]
DOCKED: USER    
DOCKED: USER    (1) Final Intermolecular Energy     =  -12.24 kcal/mol
DOCKED: USER        vdW + Hbond + desolv Energy     =  -12.24 kcal/mol
DOCKED: USER        Electrostatic Energy            =   +0.00 kcal/mol
DOCKED: USER    (2) Final Total Internal Energy     =   -1.61 kcal/mol
DOCKED: USER    (3) Torsional Free Energy           =   +2.39 kcal/mol
DOCKED: USER    (4) Unbound System's Energy  [=(2)] =   -1.61 kcal/mol
DOCKED: USER    
DOCKED: USER    
DOCKED: USER    NEWDPF move ligand.pdbqt
DOCKED: USER    NEWDPF about 0.698000 0.076000 -0.072000
DOCKED: USER    NEWDPF tran0 21.347091 -8.227606 -5.172128
DOCKED: USER    NEWDPF quaternion0 0.718884 -0.050867 0.526984 0.450451
DOCKED: USER    NEWDPF axisangle0 0.805201 -0.056975 0.590259 126.454803
DOCKED: USER    NEWDPF quat0 0.805201 -0.056975 0.590259 126.454803
DOCKED: USER    NEWDPF dihe0 24.92 101.92 -86.34 -32.77 -174.00 -151.16 -77.28 -21.00 
DOCKED: USER  keepresnum = 1 
DOCKED: USER  
DOCKED: REMARK  Name = 
DOCKED: REMARK  9 active torsions:
DOCKED: REMARK  status: ('A' for Active; 'I' for Inactive)
DOCKED: REMARK    1  A    between atoms: C_2  and  C_3
DOCKED: REMARK    2  A    between atoms: C_4  and  C_5
DOCKED: REMARK    3  A    between atoms: C_8  and  C_9
DOCKED: REMARK    4  A    between atoms: C_9  and  N_10
DOCKED: REMARK    5  A    between atoms: N_10  and  C_11
DOCKED: REMARK    6  A    between atoms: C_11  and  C_12
DOCKED: REMARK    7  A    between atoms: C_12  and  C_13
DOCKED: REMARK    8  A    between atoms: C_14  and  C_22
DOCKED: REMARK    9  A    between atoms: N_25  and  O_26
DOCKED: REMARK                            x       y       z     vdW  Elec       q    Type
DOCKED: REMARK                         _______ _______ _______ _____ _____    ______ ____
DOCKED: USER                              x       y       z     vdW  Elec       q    Type
DOCKED: USER                           _______ _______ _______ _____ _____    ______ ____
DOCKED: ROOT
DOCKED: ATOM      1  N   UNL     1      20.959  -8.160  -6.272 -0.13 -0.00    +0.000 N 
DOCKED: ATOM      2  H   UNL     1      20.106  -8.666  -6.031 +0.01 -0.00    +0.000 HD
DOCKED: ATOM      3  H   UNL     1      21.722  -8.802  -6.485 +0.00 -0.00    +0.000 HD
DOCKED: ENDROOT
DOCKED: BRANCH   1   4
DOCKED: ATOM      4  C   UNL     1      21.366  -7.344  -5.120 -0.22 -0.00    +0.000 C 
DOCKED: BRANCH   4   8
DOCKED: ATOM      5  C   UNL     1      21.189  -9.751  -1.531 -0.56 -0.00    +0.000 A 
DOCKED: ATOM      6  C   UNL     1      20.962 -10.331  -2.795 -0.49 -0.00    +0.000 A 
DOCKED: ATOM      7  C   UNL     1      21.026  -9.551  -3.953 -0.39 -0.00    +0.000 A 
DOCKED: ATOM      8  C   UNL     1      21.337  -8.186  -3.876 -0.32 -0.00    +0.000 A 
DOCKED: ATOM      9  C   UNL     1      21.567  -7.604  -2.619 -0.33 -0.00    +0.000 A 
DOCKED: ATOM     10  C   UNL     1      21.505  -8.384  -1.461 -0.32 -0.00    +0.000 A 
DOCKED: BRANCH   5  12
DOCKED: ATOM     11  C   UNL     1      20.170 -10.422   0.642 -0.64 -0.00    +0.000 C 
DOCKED: ATOM     12  C   UNL     1      21.146 -10.534  -0.271 -0.71 -0.00    +0.000 C 
DOCKED: BRANCH  11  14
DOCKED: ATOM     13  O   UNL     1      20.058 -12.457   1.820 -1.68 -0.00    +0.000 OA
DOCKED: ATOM     14  C   UNL     1      20.133 -11.203   1.897 -0.75 -0.00    +0.000 C 
DOCKED: ATOM     15  N   UNL     1      20.152 -10.581   3.189 -0.69 -0.00    +0.000 N 
DOCKED: ATOM     16  H   UNL     1      20.113  -9.600   3.263 -0.56 -0.00    +0.000 HD
DOCKED: BRANCH  15  17
DOCKED: ATOM     17  O   UNL     1      20.224 -11.341   4.309 -0.77 -0.00    +0.000 OA
DOCKED: ATOM     18  H   UNL     1      20.638 -12.192   4.097 -0.52 -0.00    +0.000 HD
DOCKED: ENDBRANCH  15  17
DOCKED: ENDBRANCH  11  14
DOCKED: ENDBRANCH   5  12
DOCKED: ENDBRANCH   4   8
DOCKED: ENDBRANCH   1   4
DOCKED: BRANCH   1  19
DOCKED: ATOM     19  C   UNL     1      20.706  -7.345  -7.470 -0.06 -0.00    +0.000 C 
DOCKED: BRANCH  19  20
DOCKED: ATOM     20  C   UNL     1      21.403  -7.907  -8.720 -0.05 -0.00    +0.000 C 
DOCKED: BRANCH  20  21
DOCKED: ATOM     21  C   UNL     1      21.961  -9.272  -8.437 -0.12 -0.00    +0.000 A 
DOCKED: ATOM     22  C   UNL     1      21.263 -10.408  -8.021 -0.23 -0.00    +0.000 A 
DOCKED: ATOM     23  N   UNL     1      22.112 -11.438  -7.800 -0.28 -0.00    +0.000 N 
DOCKED: ATOM     24  C   UNL     1      23.343 -10.959  -8.051 -0.32 -0.00    +0.000 A 
DOCKED: ATOM     25  C   UNL     1      23.293  -9.642  -8.434 -0.16 -0.00    +0.000 A 
DOCKED: ATOM     26  C   UNL     1      24.449  -8.917  -8.723 -0.12 -0.00    +0.000 A 
DOCKED: ATOM     27  C   UNL     1      25.685  -9.581  -8.618 -0.22 -0.00    +0.000 A 
DOCKED: ATOM     28  C   UNL     1      25.737 -10.938  -8.228 -0.36 -0.00    +0.000 A 
DOCKED: ATOM     29  C   UNL     1      24.553 -11.642  -7.938 -0.40 -0.00    +0.000 A 
DOCKED: ATOM     30  C   UNL     1      19.779 -10.510  -7.862 -0.27 -0.00    +0.000 C 
DOCKED: ATOM     31  H   UNL     1      21.877 -12.350  -7.516 -0.60 -0.00    +0.000 HD
DOCKED: ENDBRANCH  20  21
DOCKED: ENDBRANCH  19  20
DOCKED: ENDBRANCH   1  19
DOCKED: TORSDOF 8
DOCKED: TER
DOCKED: ENDMDL
________________________________________________________________________________


	BEGINNING GENETIC ALGORITHM DOCKING 92 of 100
Run: 92 Seed: 1764864993 1627334898 [ Run 92 of 100 GA/GALS ]
Beginning LAMARCKIAN GENETIC ALGORITHM (LGA), with a maximum of 2500000 energy evaluations.

Final-Value: -14.458


	FINAL GENETIC ALGORITHM DOCKED STATE
	_______________________________________________


Detailed state:  trans 21.948 -7.932 -4.963 quatxyzw 0.411208 0.770267 0.136766 0.467858 center 0.698 0.076 -0.072 ntor 8 46.3356 -172.2665 -175.6294 -169.2174 -62.9022 -61.8088 172.2055 -55.5807
State:	 21.948  -7.932  -4.963   0.465  0.872  0.155 124.209     46.34 -172.27 -175.63 -169.22  -62.90  -61.81  172.21  -55.58

DOCKED: MODEL       92
DOCKED: USER    Run = 92
DOCKED: USER    DPF = ligand_dock.biased.dpf
DOCKED: USER  
DOCKED: USER    Estimated Free Energy of Binding    =  -10.61 kcal/mol  [=(1)+(2)+(3)-(4)]
DOCKED: USER    Estimated Inhibition Constant, Ki   =   16.81 nM (nanomolar)  [Temperature = 298.15 K]
DOCKED: USER    
DOCKED: USER    (1) Final Intermolecular Energy     =  -12.99 kcal/mol
DOCKED: USER        vdW + Hbond + desolv Energy     =  -12.99 kcal/mol
DOCKED: USER        Electrostatic Energy            =   +0.00 kcal/mol
DOCKED: USER    (2) Final Total Internal Energy     =   -1.47 kcal/mol
DOCKED: USER    (3) Torsional Free Energy           =   +2.39 kcal/mol
DOCKED: USER    (4) Unbound System's Energy  [=(2)] =   -1.47 kcal/mol
DOCKED: USER    
DOCKED: USER    
DOCKED: USER    NEWDPF move ligand.pdbqt
DOCKED: USER    NEWDPF about 0.698000 0.076000 -0.072000
DOCKED: USER    NEWDPF tran0 21.947797 -7.932047 -4.963223
DOCKED: USER    NEWDPF quaternion0 0.411208 0.770267 0.136766 0.467858
DOCKED: USER    NEWDPF axisangle0 0.465271 0.871537 0.154747 124.209292
DOCKED: USER    NEWDPF quat0 0.465271 0.871537 0.154747 124.209292
DOCKED: USER    NEWDPF dihe0 46.34 -172.27 -175.63 -169.22 -62.90 -61.81 172.21 -55.58 
DOCKED: USER  keepresnum = 1 
DOCKED: USER  
DOCKED: REMARK  Name = 
DOCKED: REMARK  9 active torsions:
DOCKED: REMARK  status: ('A' for Active; 'I' for Inactive)
DOCKED: REMARK    1  A    between atoms: C_2  and  C_3
DOCKED: REMARK    2  A    between atoms: C_4  and  C_5
DOCKED: REMARK    3  A    between atoms: C_8  and  C_9
DOCKED: REMARK    4  A    between atoms: C_9  and  N_10
DOCKED: REMARK    5  A    between atoms: N_10  and  C_11
DOCKED: REMARK    6  A    between atoms: C_11  and  C_12
DOCKED: REMARK    7  A    between atoms: C_12  and  C_13
DOCKED: REMARK    8  A    between atoms: C_14  and  C_22
DOCKED: REMARK    9  A    between atoms: N_25  and  O_26
DOCKED: REMARK                            x       y       z     vdW  Elec       q    Type
DOCKED: REMARK                         _______ _______ _______ _____ _____    ______ ____
DOCKED: USER                              x       y       z     vdW  Elec       q    Type
DOCKED: USER                           _______ _______ _______ _____ _____    ______ ____
DOCKED: ROOT
DOCKED: ATOM      1  N   UNL     1      22.747  -8.209  -5.768 -0.15 -0.00    +0.000 N 
DOCKED: ATOM      2  H   UNL     1      23.173  -8.898  -5.148 +0.03 -0.00    +0.000 HD
DOCKED: ATOM      3  H   UNL     1      23.117  -7.275  -5.594 -0.02 -0.00    +0.000 HD
DOCKED: ENDROOT
DOCKED: BRANCH   1   4
DOCKED: ATOM      4  C   UNL     1      21.301  -8.176  -5.516 -0.23 -0.00    +0.000 C 
DOCKED: BRANCH   4   8
DOCKED: ATOM      5  C   UNL     1      20.348 -10.228  -1.829 -0.48 -0.00    +0.000 A 
DOCKED: ATOM      6  C   UNL     1      20.069 -10.825  -3.074 -0.41 -0.00    +0.000 A 
DOCKED: ATOM      7  C   UNL     1      20.384 -10.161  -4.264 -0.37 -0.00    +0.000 A 
DOCKED: ATOM      8  C   UNL     1      21.000  -8.902  -4.234 -0.32 -0.00    +0.000 A 
DOCKED: ATOM      9  C   UNL     1      21.282  -8.305  -2.997 -0.39 -0.00    +0.000 A 
DOCKED: ATOM     10  C   UNL     1      20.969  -8.968  -1.807 -0.48 -0.00    +0.000 A 
DOCKED: BRANCH   5  12
DOCKED: ATOM     11  C   UNL     1      20.600 -10.536   0.632 -0.69 -0.00    +0.000 C 
DOCKED: ATOM     12  C   UNL     1      20.046 -10.893  -0.537 -0.58 -0.00    +0.000 C 
DOCKED: BRANCH  11  14
DOCKED: ATOM     13  O   UNL     1      19.873 -12.387   1.890 -1.73 -0.00    +0.000 OA
DOCKED: ATOM     14  C   UNL     1      20.299 -11.202   1.915 -0.75 -0.00    +0.000 C 
DOCKED: ATOM     15  N   UNL     1      20.450 -10.540   3.179 -0.67 -0.00    +0.000 N 
DOCKED: ATOM     16  H   UNL     1      20.690  -9.586   3.208 -0.59 -0.00    +0.000 HD
DOCKED: BRANCH  15  17
DOCKED: ATOM     17  O   UNL     1      20.264 -11.225   4.333 -0.77 -0.00    +0.000 OA
DOCKED: ATOM     18  H   UNL     1      20.733 -12.073   4.286 -0.49 -0.00    +0.000 HD
DOCKED: ENDBRANCH  15  17
DOCKED: ENDBRANCH  11  14
DOCKED: ENDBRANCH   5  12
DOCKED: ENDBRANCH   4   8
DOCKED: ENDBRANCH   1   4
DOCKED: BRANCH   1  19
DOCKED: ATOM     19  C   UNL     1      23.061  -8.567  -7.160 -0.21 -0.00    +0.000 C 
DOCKED: BRANCH  19  20
DOCKED: ATOM     20  C   UNL     1      24.252  -9.534  -7.263 -0.27 -0.00    +0.000 C 
DOCKED: BRANCH  20  21
DOCKED: ATOM     21  C   UNL     1      23.835 -10.803  -7.950 -0.33 -0.00    +0.000 A 
DOCKED: ATOM     22  C   UNL     1      23.109 -11.866  -7.408 -0.44 -0.00    +0.000 A 
DOCKED: ATOM     23  N   UNL     1      22.983 -12.867  -8.309 -0.32 -0.00    +0.000 N 
DOCKED: ATOM     24  C   UNL     1      23.640 -12.459  -9.408 -0.35 -0.00    +0.000 A 
DOCKED: ATOM     25  C   UNL     1      24.179 -11.210  -9.226 -0.25 -0.00    +0.000 A 
DOCKED: ATOM     26  C   UNL     1      24.931 -10.582 -10.220 -0.13 -0.00    +0.000 A 
DOCKED: ATOM     27  C   UNL     1      25.119 -11.269 -11.433 -0.10 -0.00    +0.000 A 
DOCKED: ATOM     28  C   UNL     1      24.560 -12.553 -11.623 -0.14 -0.00    +0.000 A 
DOCKED: ATOM     29  C   UNL     1      23.810 -13.162 -10.600 -0.29 -0.00    +0.000 A 
DOCKED: ATOM     30  C   UNL     1      22.516 -11.907  -6.036 -0.52 -0.00    +0.000 C 
DOCKED: ATOM     31  H   UNL     1      22.506 -13.720  -8.185 -0.54 -0.00    +0.000 HD
DOCKED: ENDBRANCH  20  21
DOCKED: ENDBRANCH  19  20
DOCKED: ENDBRANCH   1  19
DOCKED: TORSDOF 8
DOCKED: TER
DOCKED: ENDMDL
________________________________________________________________________________


	BEGINNING GENETIC ALGORITHM DOCKING 93 of 100
Run: 93 Seed: 1197352408 1434171590 [ Run 93 of 100 GA/GALS ]
Beginning LAMARCKIAN GENETIC ALGORITHM (LGA), with a maximum of 2500000 energy evaluations.

Final-Value: -15.450


	FINAL GENETIC ALGORITHM DOCKED STATE
	_______________________________________________


Detailed state:  trans 14.495 -12.867 0.617 quatxyzw -0.254434 0.377206 -0.829673 -0.323452 center 0.698 0.076 -0.072 ntor 8 -26.7962 -139.3324 24.2417 5.9091 16.4312 148.8687 159.1182 -129.0810
State:	 14.495 -12.867   0.617  -0.269  0.399 -0.877 -142.256    -26.80 -139.33   24.24    5.91   16.43  148.87  159.12 -129.08

DOCKED: MODEL       93
DOCKED: USER    Run = 93
DOCKED: USER    DPF = ligand_dock.biased.dpf
DOCKED: USER  
DOCKED: USER    Estimated Free Energy of Binding    =  -11.16 kcal/mol  [=(1)+(2)+(3)-(4)]
DOCKED: USER    Estimated Inhibition Constant, Ki   =    6.58 nM (nanomolar)  [Temperature = 298.15 K]
DOCKED: USER    
DOCKED: USER    (1) Final Intermolecular Energy     =  -13.55 kcal/mol
DOCKED: USER        vdW + Hbond + desolv Energy     =  -13.55 kcal/mol
DOCKED: USER        Electrostatic Energy            =   +0.00 kcal/mol
DOCKED: USER    (2) Final Total Internal Energy     =   -1.90 kcal/mol
DOCKED: USER    (3) Torsional Free Energy           =   +2.39 kcal/mol
DOCKED: USER    (4) Unbound System's Energy  [=(2)] =   -1.90 kcal/mol
DOCKED: USER    
DOCKED: USER    
DOCKED: USER    NEWDPF move ligand.pdbqt
DOCKED: USER    NEWDPF about 0.698000 0.076000 -0.072000
DOCKED: USER    NEWDPF tran0 14.495048 -12.866964 0.617425
DOCKED: USER    NEWDPF quaternion0 -0.254434 0.377206 -0.829673 -0.323452
DOCKED: USER    NEWDPF axisangle0 -0.268888 0.398635 -0.876806 -142.256355
DOCKED: USER    NEWDPF quat0 -0.268888 0.398635 -0.876806 -142.256355
DOCKED: USER    NEWDPF dihe0 -26.80 -139.33 24.24 5.91 16.43 148.87 159.12 -129.08 
DOCKED: USER  keepresnum = 1 
DOCKED: USER  
DOCKED: REMARK  Name = 
DOCKED: REMARK  9 active torsions:
DOCKED: REMARK  status: ('A' for Active; 'I' for Inactive)
DOCKED: REMARK    1  A    between atoms: C_2  and  C_3
DOCKED: REMARK    2  A    between atoms: C_4  and  C_5
DOCKED: REMARK    3  A    between atoms: C_8  and  C_9
DOCKED: REMARK    4  A    between atoms: C_9  and  N_10
DOCKED: REMARK    5  A    between atoms: N_10  and  C_11
DOCKED: REMARK    6  A    between atoms: C_11  and  C_12
DOCKED: REMARK    7  A    between atoms: C_12  and  C_13
DOCKED: REMARK    8  A    between atoms: C_14  and  C_22
DOCKED: REMARK    9  A    between atoms: N_25  and  O_26
DOCKED: REMARK                            x       y       z     vdW  Elec       q    Type
DOCKED: REMARK                         _______ _______ _______ _____ _____    ______ ____
DOCKED: USER                              x       y       z     vdW  Elec       q    Type
DOCKED: USER                           _______ _______ _______ _____ _____    ______ ____
DOCKED: ROOT
DOCKED: ATOM      1  N   UNL     1      15.196 -12.332  -0.148 -0.46 +0.00    +0.000 N 
DOCKED: ATOM      2  H   UNL     1      14.411 -11.817  -0.549 -0.01 +0.00    +0.000 HD
DOCKED: ATOM      3  H   UNL     1      15.289 -13.254  -0.572 -0.04 +0.00    +0.000 HD
DOCKED: ENDROOT
DOCKED: BRANCH   1   4
DOCKED: ATOM      4  C   UNL     1      14.954 -12.517   1.288 -0.33 +0.00    +0.000 C 
DOCKED: BRANCH   4   8
DOCKED: ATOM      5  C   UNL     1      14.542  -8.693   3.267 -0.28 +0.00    +0.000 A 
DOCKED: ATOM      6  C   UNL     1      15.579  -9.577   3.624 -0.39 +0.00    +0.000 A 
DOCKED: ATOM      7  C   UNL     1      15.713 -10.810   2.978 -0.44 +0.00    +0.000 A 
DOCKED: ATOM      8  C   UNL     1      14.830 -11.175   1.952 -0.39 +0.00    +0.000 A 
DOCKED: ATOM      9  C   UNL     1      13.796 -10.297   1.592 -0.25 +0.00    +0.000 A 
DOCKED: ATOM     10  C   UNL     1      13.663  -9.063   2.236 -0.19 +0.00    +0.000 A 
DOCKED: BRANCH   5  12
DOCKED: ATOM     11  C   UNL     1      15.178  -6.884   4.859 -0.46 +0.00    +0.000 C 
DOCKED: ATOM     12  C   UNL     1      14.361  -7.368   3.911 -0.33 +0.00    +0.000 C 
DOCKED: BRANCH  11  14
DOCKED: ATOM     13  O   UNL     1      13.899  -5.325   6.073 -1.05 +0.00    +0.000 OA
DOCKED: ATOM     14  C   UNL     1      14.993  -5.565   5.500 -0.44 +0.00    +0.000 C 
DOCKED: ATOM     15  N   UNL     1      16.004  -4.547   5.467 -0.50 -0.00    +0.000 N 
DOCKED: ATOM     16  H   UNL     1      16.824  -4.686   4.941 -0.55 -0.00    +0.000 HD
DOCKED: BRANCH  15  17
DOCKED: ATOM     17  O   UNL     1      15.831  -3.395   6.158 -0.63 +0.00    +0.000 OA
DOCKED: ATOM     18  H   UNL     1      14.883  -3.217   6.258 -0.28 +0.00    +0.000 HD
DOCKED: ENDBRANCH  15  17
DOCKED: ENDBRANCH  11  14
DOCKED: ENDBRANCH   5  12
DOCKED: ENDBRANCH   4   8
DOCKED: ENDBRANCH   1   4
DOCKED: BRANCH   1  19
DOCKED: ATOM     19  C   UNL     1      16.436 -11.585  -0.412 -0.41 +0.00    +0.000 C 
DOCKED: BRANCH  19  20
DOCKED: ATOM     20  C   UNL     1      17.695 -12.416  -0.116 -0.53 -0.00    +0.000 C 
DOCKED: BRANCH  20  21
DOCKED: ATOM     21  C   UNL     1      18.879 -11.515   0.085 -0.49 -0.00    +0.000 A 
DOCKED: ATOM     22  C   UNL     1      19.417 -11.072   1.295 -0.57 -0.00    +0.000 A 
DOCKED: ATOM     23  N   UNL     1      20.442 -10.216   1.079 -0.58 -0.00    +0.000 N 
DOCKED: ATOM     24  C   UNL     1      20.544 -10.095  -0.256 -0.58 -0.00    +0.000 A 
DOCKED: ATOM     25  C   UNL     1      19.606 -10.865  -0.896 -0.46 -0.00    +0.000 A 
DOCKED: ATOM     26  C   UNL     1      19.497 -10.885  -2.287 -0.39 -0.00    +0.000 A 
DOCKED: ATOM     27  C   UNL     1      20.392 -10.092  -3.027 -0.43 -0.00    +0.000 A 
DOCKED: ATOM     28  C   UNL     1      21.362  -9.303  -2.369 -0.47 -0.00    +0.000 A 
DOCKED: ATOM     29  C   UNL     1      21.444  -9.299  -0.964 -0.51 -0.00    +0.000 A 
DOCKED: ATOM     30  C   UNL     1      18.963 -11.492   2.657 -0.58 -0.00    +0.000 C 
DOCKED: ATOM     31  H   UNL     1      20.999  -9.774   1.760 -0.53 -0.00    +0.000 HD
DOCKED: ENDBRANCH  20  21
DOCKED: ENDBRANCH  19  20
DOCKED: ENDBRANCH   1  19
DOCKED: TORSDOF 8
DOCKED: TER
DOCKED: ENDMDL
________________________________________________________________________________


	BEGINNING GENETIC ALGORITHM DOCKING 94 of 100
Run: 94 Seed: 1614028478 1776124014 [ Run 94 of 100 GA/GALS ]
Beginning LAMARCKIAN GENETIC ALGORITHM (LGA), with a maximum of 2500000 energy evaluations.

Final-Value: -14.832


	FINAL GENETIC ALGORITHM DOCKED STATE
	_______________________________________________


Detailed state:  trans 20.065 -10.874 -6.507 quatxyzw -0.310021 -0.229005 -0.852715 -0.352590 center 0.698 0.076 -0.072 ntor 8 14.9767 42.5543 177.2380 47.5697 -69.6410 -177.2081 6.7322 60.3206
State:	 20.065 -10.874  -6.507  -0.331 -0.245 -0.911 -138.708     14.98   42.55  177.24   47.57  -69.64 -177.21    6.73   60.32

DOCKED: MODEL       94
DOCKED: USER    Run = 94
DOCKED: USER    DPF = ligand_dock.biased.dpf
DOCKED: USER  
DOCKED: USER    Estimated Free Energy of Binding    =  -10.89 kcal/mol  [=(1)+(2)+(3)-(4)]
DOCKED: USER    Estimated Inhibition Constant, Ki   =   10.48 nM (nanomolar)  [Temperature = 298.15 K]
DOCKED: USER    
DOCKED: USER    (1) Final Intermolecular Energy     =  -13.27 kcal/mol
DOCKED: USER        vdW + Hbond + desolv Energy     =  -13.27 kcal/mol
DOCKED: USER        Electrostatic Energy            =   +0.00 kcal/mol
DOCKED: USER    (2) Final Total Internal Energy     =   -1.56 kcal/mol
DOCKED: USER    (3) Torsional Free Energy           =   +2.39 kcal/mol
DOCKED: USER    (4) Unbound System's Energy  [=(2)] =   -1.56 kcal/mol
DOCKED: USER    
DOCKED: USER    
DOCKED: USER    NEWDPF move ligand.pdbqt
DOCKED: USER    NEWDPF about 0.698000 0.076000 -0.072000
DOCKED: USER    NEWDPF tran0 20.064509 -10.873984 -6.506917
DOCKED: USER    NEWDPF quaternion0 -0.310021 -0.229005 -0.852715 -0.352590
DOCKED: USER    NEWDPF axisangle0 -0.331298 -0.244721 -0.911237 -138.708329
DOCKED: USER    NEWDPF quat0 -0.331298 -0.244721 -0.911237 -138.708329
DOCKED: USER    NEWDPF dihe0 14.98 42.55 177.24 47.57 -69.64 -177.21 6.73 60.32 
DOCKED: USER  keepresnum = 1 
DOCKED: USER  
DOCKED: REMARK  Name = 
DOCKED: REMARK  9 active torsions:
DOCKED: REMARK  status: ('A' for Active; 'I' for Inactive)
DOCKED: REMARK    1  A    between atoms: C_2  and  C_3
DOCKED: REMARK    2  A    between atoms: C_4  and  C_5
DOCKED: REMARK    3  A    between atoms: C_8  and  C_9
DOCKED: REMARK    4  A    between atoms: C_9  and  N_10
DOCKED: REMARK    5  A    between atoms: N_10  and  C_11
DOCKED: REMARK    6  A    between atoms: C_11  and  C_12
DOCKED: REMARK    7  A    between atoms: C_12  and  C_13
DOCKED: REMARK    8  A    between atoms: C_14  and  C_22
DOCKED: REMARK    9  A    between atoms: N_25  and  O_26
DOCKED: REMARK                            x       y       z     vdW  Elec       q    Type
DOCKED: REMARK                         _______ _______ _______ _____ _____    ______ ____
DOCKED: USER                              x       y       z     vdW  Elec       q    Type
DOCKED: USER                           _______ _______ _______ _____ _____    ______ ____
DOCKED: ROOT
DOCKED: ATOM      1  N   UNL     1      20.962 -10.931  -7.252 -0.26 -0.00    +0.000 N 
DOCKED: ATOM      2  H   UNL     1      20.397 -11.432  -7.938 -0.21 -0.00    +0.000 HD
DOCKED: ATOM      3  H   UNL     1      21.371 -11.570  -6.571 -0.35 -0.00    +0.000 HD
DOCKED: ENDROOT
DOCKED: BRANCH   1   4
DOCKED: ATOM      4  C   UNL     1      20.099  -9.990  -6.526 -0.26 -0.00    +0.000 C 
DOCKED: BRANCH   4   8
DOCKED: ATOM      5  C   UNL     1      20.730 -10.576  -2.287 -0.46 -0.00    +0.000 A 
DOCKED: ATOM      6  C   UNL     1      21.523  -9.663  -3.011 -0.39 -0.00    +0.000 A 
DOCKED: ATOM      7  C   UNL     1      21.312  -9.472  -4.380 -0.35 -0.00    +0.000 A 
DOCKED: ATOM      8  C   UNL     1      20.296 -10.170  -5.047 -0.32 -0.00    +0.000 A 
DOCKED: ATOM      9  C   UNL     1      19.502 -11.078  -4.330 -0.41 -0.00    +0.000 A 
DOCKED: ATOM     10  C   UNL     1      19.710 -11.268  -2.961 -0.28 -0.00    +0.000 A 
DOCKED: BRANCH   5  12
DOCKED: ATOM     11  C   UNL     1      19.923 -11.250  -0.027 -0.59 -0.00    +0.000 C 
DOCKED: ATOM     12  C   UNL     1      20.902 -10.808  -0.831 -0.56 -0.00    +0.000 C 
DOCKED: BRANCH  11  14
DOCKED: ATOM     13  O   UNL     1      19.883 -12.630   1.879 -1.62 -0.00    +0.000 OA
DOCKED: ATOM     14  C   UNL     1      20.099 -11.477   1.423 -0.74 -0.00    +0.000 C 
DOCKED: ATOM     15  N   UNL     1      20.479 -10.428   2.324 -0.53 -0.00    +0.000 N 
DOCKED: ATOM     16  H   UNL     1      20.556  -9.503   1.996 -0.50 -0.00    +0.000 HD
DOCKED: BRANCH  15  17
DOCKED: ATOM     17  O   UNL     1      20.730 -10.707   3.626 -0.78 -0.00    +0.000 OA
DOCKED: ATOM     18  H   UNL     1      20.843 -11.664   3.736 -0.48 -0.00    +0.000 HD
DOCKED: ENDBRANCH  15  17
DOCKED: ENDBRANCH  11  14
DOCKED: ENDBRANCH   5  12
DOCKED: ENDBRANCH   4   8
DOCKED: ENDBRANCH   1   4
DOCKED: BRANCH   1  19
DOCKED: ATOM     19  C   UNL     1      22.063 -10.251  -7.952 -0.26 -0.00    +0.000 C 
DOCKED: BRANCH  19  20
DOCKED: ATOM     20  C   UNL     1      23.417 -10.454  -7.252 -0.35 -0.00    +0.000 C 
DOCKED: BRANCH  20  21
DOCKED: ATOM     21  C   UNL     1      24.340 -11.256  -8.124 -0.38 -0.00    +0.000 A 
DOCKED: ATOM     22  C   UNL     1      25.706 -11.054  -8.331 -0.36 -0.00    +0.000 A 
DOCKED: ATOM     23  N   UNL     1      26.188 -11.935  -9.238 -0.31 -0.00    +0.000 N 
DOCKED: ATOM     24  C   UNL     1      25.136 -12.677  -9.624 -0.33 -0.00    +0.000 A 
DOCKED: ATOM     25  C   UNL     1      23.992 -12.290  -8.974 -0.38 -0.00    +0.000 A 
DOCKED: ATOM     26  C   UNL     1      22.761 -12.896  -9.228 -0.27 -0.00    +0.000 A 
DOCKED: ATOM     27  C   UNL     1      22.725 -13.937 -10.175 -0.25 +0.00    +0.000 A 
DOCKED: ATOM     28  C   UNL     1      23.904 -14.339 -10.840 -0.37 -0.00    +0.000 A 
DOCKED: ATOM     29  C   UNL     1      25.129 -13.705 -10.567 -0.24 -0.00    +0.000 A 
DOCKED: ATOM     30  C   UNL     1      26.552 -10.034  -7.637 -0.41 -0.00    +0.000 C 
DOCKED: ATOM     31  H   UNL     1      27.119 -12.016  -9.549 -0.25 -0.00    +0.000 HD
DOCKED: ENDBRANCH  20  21
DOCKED: ENDBRANCH  19  20
DOCKED: ENDBRANCH   1  19
DOCKED: TORSDOF 8
DOCKED: TER
DOCKED: ENDMDL
________________________________________________________________________________


	BEGINNING GENETIC ALGORITHM DOCKING 95 of 100
Run: 95 Seed: 2104863181 1925785940 [ Run 95 of 100 GA/GALS ]
Beginning LAMARCKIAN GENETIC ALGORITHM (LGA), with a maximum of 2500000 energy evaluations.

Final-Value: -13.672


	FINAL GENETIC ALGORITHM DOCKED STATE
	_______________________________________________


Detailed state:  trans 21.870 -8.907 -5.372 quatxyzw -0.817116 -0.020845 -0.326696 -0.474506 center 0.698 0.076 -0.072 ntor 8 21.4490 -17.2350 -5.1665 -179.5835 -138.0816 -50.8022 -52.9700 -53.6934
State:	 21.870  -8.907  -5.372  -0.928 -0.024 -0.371 -123.346     21.45  -17.23   -5.17 -179.58 -138.08  -50.80  -52.97  -53.69

DOCKED: MODEL       95
DOCKED: USER    Run = 95
DOCKED: USER    DPF = ligand_dock.biased.dpf
DOCKED: USER  
DOCKED: USER    Estimated Free Energy of Binding    =   -8.85 kcal/mol  [=(1)+(2)+(3)-(4)]
DOCKED: USER    Estimated Inhibition Constant, Ki   =  325.50 nM (nanomolar)  [Temperature = 298.15 K]
DOCKED: USER    
DOCKED: USER    (1) Final Intermolecular Energy     =  -11.24 kcal/mol
DOCKED: USER        vdW + Hbond + desolv Energy     =  -11.24 kcal/mol
DOCKED: USER        Electrostatic Energy            =   +0.00 kcal/mol
DOCKED: USER    (2) Final Total Internal Energy     =   -2.44 kcal/mol
DOCKED: USER    (3) Torsional Free Energy           =   +2.39 kcal/mol
DOCKED: USER    (4) Unbound System's Energy  [=(2)] =   -2.44 kcal/mol
DOCKED: USER    
DOCKED: USER    
DOCKED: USER    NEWDPF move ligand.pdbqt
DOCKED: USER    NEWDPF about 0.698000 0.076000 -0.072000
DOCKED: USER    NEWDPF tran0 21.869655 -8.907072 -5.372208
DOCKED: USER    NEWDPF quaternion0 -0.817116 -0.020845 -0.326696 -0.474506
DOCKED: USER    NEWDPF axisangle0 -0.928275 -0.023680 -0.371139 -123.345587
DOCKED: USER    NEWDPF quat0 -0.928275 -0.023680 -0.371139 -123.345587
DOCKED: USER    NEWDPF dihe0 21.45 -17.23 -5.17 -179.58 -138.08 -50.80 -52.97 -53.69 
DOCKED: USER  keepresnum = 1 
DOCKED: USER  
DOCKED: REMARK  Name = 
DOCKED: REMARK  9 active torsions:
DOCKED: REMARK  status: ('A' for Active; 'I' for Inactive)
DOCKED: REMARK    1  A    between atoms: C_2  and  C_3
DOCKED: REMARK    2  A    between atoms: C_4  and  C_5
DOCKED: REMARK    3  A    between atoms: C_8  and  C_9
DOCKED: REMARK    4  A    between atoms: C_9  and  N_10
DOCKED: REMARK    5  A    between atoms: N_10  and  C_11
DOCKED: REMARK    6  A    between atoms: C_11  and  C_12
DOCKED: REMARK    7  A    between atoms: C_12  and  C_13
DOCKED: REMARK    8  A    between atoms: C_14  and  C_22
DOCKED: REMARK    9  A    between atoms: N_25  and  O_26
DOCKED: REMARK                            x       y       z     vdW  Elec       q    Type
DOCKED: REMARK                         _______ _______ _______ _____ _____    ______ ____
DOCKED: USER                              x       y       z     vdW  Elec       q    Type
DOCKED: USER                           _______ _______ _______ _____ _____    ______ ____
DOCKED: ROOT
DOCKED: ATOM      1  N   UNL     1      21.172  -9.131  -6.282 -0.19 -0.00    +0.000 N 
DOCKED: ATOM      2  H   UNL     1      20.644  -9.819  -5.744 +0.00 -0.00    +0.000 HD
DOCKED: ATOM      3  H   UNL     1      22.003  -9.547  -6.702 -0.00 -0.00    +0.000 HD
DOCKED: ENDROOT
DOCKED: BRANCH   1   4
DOCKED: ATOM      4  C   UNL     1      21.612  -8.060  -5.378 -0.24 -0.00    +0.000 C 
DOCKED: BRANCH   4   8
DOCKED: ATOM      5  C   UNL     1      21.122  -9.398  -1.294 -0.55 -0.00    +0.000 A 
DOCKED: ATOM      6  C   UNL     1      21.392 -10.321  -2.324 -0.50 -0.00    +0.000 A 
DOCKED: ATOM      7  C   UNL     1      21.556  -9.885  -3.642 -0.39 -0.00    +0.000 A 
DOCKED: ATOM      8  C   UNL     1      21.474  -8.520  -3.954 -0.31 -0.00    +0.000 A 
DOCKED: ATOM      9  C   UNL     1      21.208  -7.597  -2.932 -0.38 -0.00    +0.000 A 
DOCKED: ATOM     10  C   UNL     1      21.046  -8.032  -1.613 -0.39 -0.00    +0.000 A 
DOCKED: BRANCH   5  12
DOCKED: ATOM     11  C   UNL     1      20.507 -11.014   0.502 -0.69 -0.00    +0.000 C 
DOCKED: ATOM     12  C   UNL     1      20.952  -9.806   0.123 -0.67 -0.00    +0.000 C 
DOCKED: BRANCH  11  14
DOCKED: ATOM     13  O   UNL     1      19.891 -12.566   2.160 -1.59 -0.00    +0.000 OA
DOCKED: ATOM     14  C   UNL     1      20.336 -11.415   1.914 -0.77 -0.00    +0.000 C 
DOCKED: ATOM     15  N   UNL     1      20.636 -10.532   3.004 -0.63 -0.00    +0.000 N 
DOCKED: ATOM     16  H   UNL     1      20.892  -9.599   2.825 -0.58 -0.00    +0.000 HD
DOCKED: BRANCH  15  17
DOCKED: ATOM     17  O   UNL     1      20.565 -10.980   4.281 -0.72 -0.00    +0.000 OA
DOCKED: ATOM     18  H   UNL     1      20.639 -11.947   4.290 -0.48 -0.00    +0.000 HD
DOCKED: ENDBRANCH  15  17
DOCKED: ENDBRANCH  11  14
DOCKED: ENDBRANCH   5  12
DOCKED: ENDBRANCH   4   8
DOCKED: ENDBRANCH   1   4
DOCKED: BRANCH   1  19
DOCKED: ATOM     19  C   UNL     1      20.321  -8.625  -7.370 -0.12 -0.00    +0.000 C 
DOCKED: BRANCH  19  20
DOCKED: ATOM     20  C   UNL     1      18.994  -9.395  -7.483 -0.16 -0.00    +0.000 C 
DOCKED: BRANCH  20  21
DOCKED: ATOM     21  C   UNL     1      18.378  -9.574  -6.125 -0.17 -0.00    +0.000 A 
DOCKED: ATOM     22  C   UNL     1      18.605 -10.610  -5.217 -0.30 -0.00    +0.000 A 
DOCKED: ATOM     23  N   UNL     1      17.818 -10.470  -4.125 -0.26 -0.00    +0.000 N 
DOCKED: ATOM     24  C   UNL     1      17.080  -9.369  -4.343 -0.19 -0.00    +0.000 A 
DOCKED: ATOM     25  C   UNL     1      17.386  -8.799  -5.554 -0.13 -0.00    +0.000 A 
DOCKED: ATOM     26  C   UNL     1      16.731  -7.657  -6.015 -0.08 -0.00    +0.000 A 
DOCKED: ATOM     27  C   UNL     1      15.739  -7.091  -5.193 -0.10 -0.00    +0.000 A 
DOCKED: ATOM     28  C   UNL     1      15.427  -7.675  -3.945 -0.11 -0.00    +0.000 A 
DOCKED: ATOM     29  C   UNL     1      16.101  -8.830  -3.508 -0.14 -0.00    +0.000 A 
DOCKED: ATOM     30  C   UNL     1      19.596 -11.718  -5.387 -0.40 -0.00    +0.000 C 
DOCKED: ATOM     31  H   UNL     1      17.793 -11.055  -3.333 +0.00 -0.00    +0.000 HD
DOCKED: ENDBRANCH  20  21
DOCKED: ENDBRANCH  19  20
DOCKED: ENDBRANCH   1  19
DOCKED: TORSDOF 8
DOCKED: TER
DOCKED: ENDMDL
________________________________________________________________________________


	BEGINNING GENETIC ALGORITHM DOCKING 96 of 100
Run: 96 Seed: 453074608 221167632 [ Run 96 of 100 GA/GALS ]
Beginning LAMARCKIAN GENETIC ALGORITHM (LGA), with a maximum of 2500000 energy evaluations.

Final-Value: -14.484


	FINAL GENETIC ALGORITHM DOCKED STATE
	_______________________________________________


Detailed state:  trans 21.630 -6.286 -5.373 quatxyzw -0.524626 -0.701492 0.248738 -0.413287 center 0.698 0.076 -0.072 ntor 8 19.8116 23.5361 179.0915 -166.4891 -20.2602 -64.4699 8.8681 -98.4954
State:	 21.630  -6.286  -5.373  -0.576 -0.770  0.273 -131.177     19.81   23.54  179.09 -166.49  -20.26  -64.47    8.87  -98.50

DOCKED: MODEL       96
DOCKED: USER    Run = 96
DOCKED: USER    DPF = ligand_dock.biased.dpf
DOCKED: USER  
DOCKED: USER    Estimated Free Energy of Binding    =  -10.35 kcal/mol  [=(1)+(2)+(3)-(4)]
DOCKED: USER    Estimated Inhibition Constant, Ki   =   25.90 nM (nanomolar)  [Temperature = 298.15 K]
DOCKED: USER    
DOCKED: USER    (1) Final Intermolecular Energy     =  -12.74 kcal/mol
DOCKED: USER        vdW + Hbond + desolv Energy     =  -12.74 kcal/mol
DOCKED: USER        Electrostatic Energy            =   +0.00 kcal/mol
DOCKED: USER    (2) Final Total Internal Energy     =   -1.75 kcal/mol
DOCKED: USER    (3) Torsional Free Energy           =   +2.39 kcal/mol
DOCKED: USER    (4) Unbound System's Energy  [=(2)] =   -1.75 kcal/mol
DOCKED: USER    
DOCKED: USER    
DOCKED: USER    NEWDPF move ligand.pdbqt
DOCKED: USER    NEWDPF about 0.698000 0.076000 -0.072000
DOCKED: USER    NEWDPF tran0 21.630483 -6.285694 -5.373251
DOCKED: USER    NEWDPF quaternion0 -0.524626 -0.701492 0.248738 -0.413287
DOCKED: USER    NEWDPF axisangle0 -0.576131 -0.770362 0.273158 -131.176969
DOCKED: USER    NEWDPF quat0 -0.576131 -0.770362 0.273158 -131.176969
DOCKED: USER    NEWDPF dihe0 19.81 23.54 179.09 -166.49 -20.26 -64.47 8.87 -98.50 
DOCKED: USER  keepresnum = 1 
DOCKED: USER  
DOCKED: REMARK  Name = 
DOCKED: REMARK  9 active torsions:
DOCKED: REMARK  status: ('A' for Active; 'I' for Inactive)
DOCKED: REMARK    1  A    between atoms: C_2  and  C_3
DOCKED: REMARK    2  A    between atoms: C_4  and  C_5
DOCKED: REMARK    3  A    between atoms: C_8  and  C_9
DOCKED: REMARK    4  A    between atoms: C_9  and  N_10
DOCKED: REMARK    5  A    between atoms: N_10  and  C_11
DOCKED: REMARK    6  A    between atoms: C_11  and  C_12
DOCKED: REMARK    7  A    between atoms: C_12  and  C_13
DOCKED: REMARK    8  A    between atoms: C_14  and  C_22
DOCKED: REMARK    9  A    between atoms: N_25  and  O_26
DOCKED: REMARK                            x       y       z     vdW  Elec       q    Type
DOCKED: REMARK                         _______ _______ _______ _____ _____    ______ ____
DOCKED: USER                              x       y       z     vdW  Elec       q    Type
DOCKED: USER                           _______ _______ _______ _____ _____    ______ ____
DOCKED: ROOT
DOCKED: ATOM      1  N   UNL     1      22.235  -7.050  -6.017 -0.15 -0.00    +0.000 N 
DOCKED: ATOM      2  H   UNL     1      22.951  -7.135  -5.295 -0.02 -0.00    +0.000 HD
DOCKED: ATOM      3  H   UNL     1      22.418  -6.254  -6.628 -0.00 -0.00    +0.000 HD
DOCKED: ENDROOT
DOCKED: BRANCH   1   4
DOCKED: ATOM      4  C   UNL     1      20.934  -6.832  -5.371 -0.16 -0.00    +0.000 C 
DOCKED: BRANCH   4   8
DOCKED: ATOM      5  C   UNL     1      21.014  -8.753  -1.496 -0.49 -0.00    +0.000 A 
DOCKED: ATOM      6  C   UNL     1      21.391  -7.403  -1.635 -0.35 -0.00    +0.000 A 
DOCKED: ATOM      7  C   UNL     1      21.359  -6.783  -2.888 -0.37 -0.00    +0.000 A 
DOCKED: ATOM      8  C   UNL     1      20.930  -7.491  -4.021 -0.28 -0.00    +0.000 A 
DOCKED: ATOM      9  C   UNL     1      20.551  -8.836  -3.887 -0.32 -0.00    +0.000 A 
DOCKED: ATOM     10  C   UNL     1      20.581  -9.455  -2.634 -0.44 -0.00    +0.000 A 
DOCKED: BRANCH   5  12
DOCKED: ATOM     11  C   UNL     1      20.269 -10.536   0.078 -0.64 -0.00    +0.000 C 
DOCKED: ATOM     12  C   UNL     1      21.018  -9.455  -0.189 -0.64 -0.00    +0.000 C 
DOCKED: BRANCH  11  14
DOCKED: ATOM     13  O   UNL     1      20.227 -12.489   1.392 -1.54 -0.00    +0.000 OA
DOCKED: ATOM     14  C   UNL     1      20.274 -11.231   1.382 -0.74 -0.00    +0.000 C 
DOCKED: ATOM     15  N   UNL     1      20.305 -10.522   2.630 -0.64 -0.00    +0.000 N 
DOCKED: ATOM     16  H   UNL     1      20.244  -9.540   2.638 -0.53 -0.00    +0.000 HD
DOCKED: BRANCH  15  17
DOCKED: ATOM     17  O   UNL     1      20.416 -11.203   3.796 -0.81 -0.00    +0.000 OA
DOCKED: ATOM     18  H   UNL     1      20.771 -12.089   3.621 -0.52 -0.00    +0.000 HD
DOCKED: ENDBRANCH  15  17
DOCKED: ENDBRANCH  11  14
DOCKED: ENDBRANCH   5  12
DOCKED: ENDBRANCH   4   8
DOCKED: ENDBRANCH   1   4
DOCKED: BRANCH   1  19
DOCKED: ATOM     19  C   UNL     1      22.250  -8.267  -6.844 -0.18 -0.00    +0.000 C 
DOCKED: BRANCH  19  20
DOCKED: ATOM     20  C   UNL     1      23.584  -9.026  -6.747 -0.19 -0.00    +0.000 C 
DOCKED: BRANCH  20  21
DOCKED: ATOM     21  C   UNL     1      23.425 -10.426  -7.265 -0.30 -0.00    +0.000 A 
DOCKED: ATOM     22  C   UNL     1      22.794 -11.501  -6.635 -0.42 -0.00    +0.000 A 
DOCKED: ATOM     23  N   UNL     1      22.909 -12.626  -7.377 -0.30 -0.00    +0.000 N 
DOCKED: ATOM     24  C   UNL     1      23.626 -12.280  -8.460 -0.41 -0.00    +0.000 A 
DOCKED: ATOM     25  C   UNL     1      23.965 -10.950  -8.425 -0.30 -0.00    +0.000 A 
DOCKED: ATOM     26  C   UNL     1      24.734 -10.361  -9.429 -0.17 -0.00    +0.000 A 
DOCKED: ATOM     27  C   UNL     1      25.151 -11.175 -10.499 -0.16 -0.00    +0.000 A 
DOCKED: ATOM     28  C   UNL     1      24.798 -12.542 -10.538 -0.24 -0.00    +0.000 A 
DOCKED: ATOM     29  C   UNL     1      24.026 -13.109  -9.508 -0.36 -0.00    +0.000 A 
DOCKED: ATOM     30  C   UNL     1      22.058 -11.439  -5.334 -0.53 -0.00    +0.000 C 
DOCKED: ATOM     31  H   UNL     1      22.541 -13.515  -7.167 -0.52 -0.00    +0.000 HD
DOCKED: ENDBRANCH  20  21
DOCKED: ENDBRANCH  19  20
DOCKED: ENDBRANCH   1  19
DOCKED: TORSDOF 8
DOCKED: TER
DOCKED: ENDMDL
________________________________________________________________________________


	BEGINNING GENETIC ALGORITHM DOCKING 97 of 100
Run: 97 Seed: 1877852189 1340831207 [ Run 97 of 100 GA/GALS ]
Beginning LAMARCKIAN GENETIC ALGORITHM (LGA), with a maximum of 2500000 energy evaluations.

Final-Value: -13.995


	FINAL GENETIC ALGORITHM DOCKED STATE
	_______________________________________________


Detailed state:  trans 12.860 -11.932 0.264 quatxyzw -0.094122 -0.574850 0.812066 -0.035169 center 0.698 0.076 -0.072 ntor 8 -12.4790 161.5505 93.1120 178.2844 -94.6035 -53.6352 -175.7199 -93.3908
State:	 12.860 -11.932   0.264  -0.094 -0.575  0.813 -175.969    -12.48  161.55   93.11  178.28  -94.60  -53.64 -175.72  -93.39

DOCKED: MODEL       97
DOCKED: USER    Run = 97
DOCKED: USER    DPF = ligand_dock.biased.dpf
DOCKED: USER  
DOCKED: USER    Estimated Free Energy of Binding    =   -8.99 kcal/mol  [=(1)+(2)+(3)-(4)]
DOCKED: USER    Estimated Inhibition Constant, Ki   =  257.21 nM (nanomolar)  [Temperature = 298.15 K]
DOCKED: USER    
DOCKED: USER    (1) Final Intermolecular Energy     =  -11.38 kcal/mol
DOCKED: USER        vdW + Hbond + desolv Energy     =  -11.38 kcal/mol
DOCKED: USER        Electrostatic Energy            =   +0.00 kcal/mol
DOCKED: USER    (2) Final Total Internal Energy     =   -2.62 kcal/mol
DOCKED: USER    (3) Torsional Free Energy           =   +2.39 kcal/mol
DOCKED: USER    (4) Unbound System's Energy  [=(2)] =   -2.62 kcal/mol
DOCKED: USER    
DOCKED: USER    
DOCKED: USER    NEWDPF move ligand.pdbqt
DOCKED: USER    NEWDPF about 0.698000 0.076000 -0.072000
DOCKED: USER    NEWDPF tran0 12.859648 -11.931571 0.264036
DOCKED: USER    NEWDPF quaternion0 -0.094122 -0.574850 0.812066 -0.035169
DOCKED: USER    NEWDPF axisangle0 -0.094180 -0.575206 0.812569 -175.969136
DOCKED: USER    NEWDPF quat0 -0.094180 -0.575206 0.812569 -175.969136
DOCKED: USER    NEWDPF dihe0 -12.48 161.55 93.11 178.28 -94.60 -53.64 -175.72 -93.39 
DOCKED: USER  keepresnum = 1 
DOCKED: USER  
DOCKED: REMARK  Name = 
DOCKED: REMARK  9 active torsions:
DOCKED: REMARK  status: ('A' for Active; 'I' for Inactive)
DOCKED: REMARK    1  A    between atoms: C_2  and  C_3
DOCKED: REMARK    2  A    between atoms: C_4  and  C_5
DOCKED: REMARK    3  A    between atoms: C_8  and  C_9
DOCKED: REMARK    4  A    between atoms: C_9  and  N_10
DOCKED: REMARK    5  A    between atoms: N_10  and  C_11
DOCKED: REMARK    6  A    between atoms: C_11  and  C_12
DOCKED: REMARK    7  A    between atoms: C_12  and  C_13
DOCKED: REMARK    8  A    between atoms: C_14  and  C_22
DOCKED: REMARK    9  A    between atoms: N_25  and  O_26
DOCKED: REMARK                            x       y       z     vdW  Elec       q    Type
DOCKED: REMARK                         _______ _______ _______ _____ _____    ______ ____
DOCKED: USER                              x       y       z     vdW  Elec       q    Type
DOCKED: USER                           _______ _______ _______ _____ _____    ______ ____
DOCKED: ROOT
DOCKED: ATOM      1  N   UNL     1      13.903 -12.077  -0.240 -0.42 +0.00    +0.000 N 
DOCKED: ATOM      2  H   UNL     1      14.013 -11.070  -0.367 -0.00 +0.00    +0.000 HD
DOCKED: ATOM      3  H   UNL     1      13.375 -12.492  -1.007 -0.02 +0.00    +0.000 HD
DOCKED: ENDROOT
DOCKED: BRANCH   1   4
DOCKED: ATOM      4  C   UNL     1      13.158 -12.318   1.002 -0.12 +0.00    +0.000 C 
DOCKED: BRANCH   4   8
DOCKED: ATOM      5  C   UNL     1      13.591  -8.979   3.719 -0.26 +0.00    +0.000 A 
DOCKED: ATOM      6  C   UNL     1      14.459 -10.087   3.799 -0.38 +0.00    +0.000 A 
DOCKED: ATOM      7  C   UNL     1      14.320 -11.161   2.916 -0.38 +0.00    +0.000 A 
DOCKED: ATOM      8  C   UNL     1      13.328 -11.143   1.924 -0.35 +0.00    +0.000 A 
DOCKED: ATOM      9  C   UNL     1      12.463 -10.042   1.838 -0.21 +0.00    +0.000 A 
DOCKED: ATOM     10  C   UNL     1      12.603  -8.966   2.720 -0.16 +0.00    +0.000 A 
DOCKED: BRANCH   5  12
DOCKED: ATOM     11  C   UNL     1      14.704  -6.917   4.566 -0.42 +0.00    +0.000 C 
DOCKED: ATOM     12  C   UNL     1      13.702  -7.807   4.622 -0.35 +0.00    +0.000 C 
DOCKED: BRANCH  11  14
DOCKED: ATOM     13  O   UNL     1      13.895  -5.559   6.310 -1.11 +0.00    +0.000 OA
DOCKED: ATOM     14  C   UNL     1      14.812  -5.752   5.469 -0.46 +0.00    +0.000 C 
DOCKED: ATOM     15  N   UNL     1      15.907  -4.827   5.403 -0.46 -0.00    +0.000 N 
DOCKED: ATOM     16  H   UNL     1      16.578  -4.912   4.688 -0.53 -0.00    +0.000 HD
DOCKED: BRANCH  15  17
DOCKED: ATOM     17  O   UNL     1      16.017  -3.837   6.320 -0.67 +0.00    +0.000 OA
DOCKED: ATOM     18  H   UNL     1      15.191  -3.768   6.824 -0.08 +0.00    +0.000 HD
DOCKED: ENDBRANCH  15  17
DOCKED: ENDBRANCH  11  14
DOCKED: ENDBRANCH   5  12
DOCKED: ENDBRANCH   4   8
DOCKED: ENDBRANCH   1   4
DOCKED: BRANCH   1  19
DOCKED: ATOM     19  C   UNL     1      15.236 -12.700  -0.219 -0.55 +0.00    +0.000 C 
DOCKED: BRANCH  19  20
DOCKED: ATOM     20  C   UNL     1      16.347 -11.723  -0.638 -0.38 +0.00    +0.000 C 
DOCKED: BRANCH  20  21
DOCKED: ATOM     21  C   UNL     1      16.874 -10.988   0.561 -0.35 +0.00    +0.000 A 
DOCKED: ATOM     22  C   UNL     1      16.416  -9.778   1.086 -0.13 +0.00    +0.000 A 
DOCKED: ATOM     23  N   UNL     1      17.182  -9.390   2.132 -0.28 -0.00    +0.000 N 
DOCKED: ATOM     24  C   UNL     1      18.133 -10.331   2.260 -0.46 -0.00    +0.000 A 
DOCKED: ATOM     25  C   UNL     1      17.983 -11.317   1.317 -0.45 -0.00    +0.000 A 
DOCKED: ATOM     26  C   UNL     1      18.869 -12.392   1.232 -0.51 -0.00    +0.000 A 
DOCKED: ATOM     27  C   UNL     1      19.929 -12.445   2.155 -0.55 -0.00    +0.000 A 
DOCKED: ATOM     28  C   UNL     1      20.080 -11.433   3.130 -0.66 -0.00    +0.000 A 
DOCKED: ATOM     29  C   UNL     1      19.174 -10.358   3.188 -0.42 -0.00    +0.000 A 
DOCKED: ATOM     30  C   UNL     1      15.229  -9.009   0.601 -0.25 +0.00    +0.000 C 
DOCKED: ATOM     31  H   UNL     1      17.065  -8.584   2.687 -0.02 +0.00    +0.000 HD
DOCKED: ENDBRANCH  20  21
DOCKED: ENDBRANCH  19  20
DOCKED: ENDBRANCH   1  19
DOCKED: TORSDOF 8
DOCKED: TER
DOCKED: ENDMDL
________________________________________________________________________________


	BEGINNING GENETIC ALGORITHM DOCKING 98 of 100
Run: 98 Seed: 608711835 988779532 [ Run 98 of 100 GA/GALS ]
Beginning LAMARCKIAN GENETIC ALGORITHM (LGA), with a maximum of 2500000 energy evaluations.

Final-Value: -14.779


	FINAL GENETIC ALGORITHM DOCKED STATE
	_______________________________________________


Detailed state:  trans 21.429 -7.693 -5.837 quatxyzw -0.298997 -0.876738 0.198005 -0.320506 center 0.698 0.076 -0.072 ntor 8 23.2782 -19.8515 -15.6417 158.8987 17.3598 8.5929 179.1429 -71.1704
State:	 21.429  -7.693  -5.837  -0.316 -0.926  0.209 -142.613     23.28  -19.85  -15.64  158.90   17.36    8.59  179.14  -71.17

DOCKED: MODEL       98
DOCKED: USER    Run = 98
DOCKED: USER    DPF = ligand_dock.biased.dpf
DOCKED: USER  
DOCKED: USER    Estimated Free Energy of Binding    =  -10.85 kcal/mol  [=(1)+(2)+(3)-(4)]
DOCKED: USER    Estimated Inhibition Constant, Ki   =   11.13 nM (nanomolar)  [Temperature = 298.15 K]
DOCKED: USER    
DOCKED: USER    (1) Final Intermolecular Energy     =  -13.24 kcal/mol
DOCKED: USER        vdW + Hbond + desolv Energy     =  -13.24 kcal/mol
DOCKED: USER        Electrostatic Energy            =   +0.00 kcal/mol
DOCKED: USER    (2) Final Total Internal Energy     =   -1.54 kcal/mol
DOCKED: USER    (3) Torsional Free Energy           =   +2.39 kcal/mol
DOCKED: USER    (4) Unbound System's Energy  [=(2)] =   -1.54 kcal/mol
DOCKED: USER    
DOCKED: USER    
DOCKED: USER    NEWDPF move ligand.pdbqt
DOCKED: USER    NEWDPF about 0.698000 0.076000 -0.072000
DOCKED: USER    NEWDPF tran0 21.428852 -7.692740 -5.836525
DOCKED: USER    NEWDPF quaternion0 -0.298997 -0.876738 0.198005 -0.320506
DOCKED: USER    NEWDPF axisangle0 -0.315649 -0.925565 0.209033 -142.612941
DOCKED: USER    NEWDPF quat0 -0.315649 -0.925565 0.209033 -142.612941
DOCKED: USER    NEWDPF dihe0 23.28 -19.85 -15.64 158.90 17.36 8.59 179.14 -71.17 
DOCKED: USER  keepresnum = 1 
DOCKED: USER  
DOCKED: REMARK  Name = 
DOCKED: REMARK  9 active torsions:
DOCKED: REMARK  status: ('A' for Active; 'I' for Inactive)
DOCKED: REMARK    1  A    between atoms: C_2  and  C_3
DOCKED: REMARK    2  A    between atoms: C_4  and  C_5
DOCKED: REMARK    3  A    between atoms: C_8  and  C_9
DOCKED: REMARK    4  A    between atoms: C_9  and  N_10
DOCKED: REMARK    5  A    between atoms: N_10  and  C_11
DOCKED: REMARK    6  A    between atoms: C_11  and  C_12
DOCKED: REMARK    7  A    between atoms: C_12  and  C_13
DOCKED: REMARK    8  A    between atoms: C_14  and  C_22
DOCKED: REMARK    9  A    between atoms: N_25  and  O_26
DOCKED: REMARK                            x       y       z     vdW  Elec       q    Type
DOCKED: REMARK                         _______ _______ _______ _____ _____    ______ ____
DOCKED: USER                              x       y       z     vdW  Elec       q    Type
DOCKED: USER                           _______ _______ _______ _____ _____    ______ ____
DOCKED: ROOT
DOCKED: ATOM      1  N   UNL     1      22.423  -7.874  -6.422 -0.18 -0.00    +0.000 N 
DOCKED: ATOM      2  H   UNL     1      22.970  -7.831  -5.562 -0.02 -0.00    +0.000 HD
DOCKED: ATOM      3  H   UNL     1      22.262  -6.943  -6.806 -0.00 -0.00    +0.000 HD
DOCKED: ENDROOT
DOCKED: BRANCH   1   4
DOCKED: ATOM      4  C   UNL     1      21.115  -8.470  -6.121 -0.19 -0.00    +0.000 C 
DOCKED: BRANCH   4   8
DOCKED: ATOM      5  C   UNL     1      20.869  -9.587  -1.949 -0.51 -0.00    +0.000 A 
DOCKED: ATOM      6  C   UNL     1      21.180 -10.548  -2.931 -0.47 -0.00    +0.000 A 
DOCKED: ATOM      7  C   UNL     1      21.264 -10.182  -4.278 -0.42 -0.00    +0.000 A 
DOCKED: ATOM      8  C   UNL     1      21.061  -8.850  -4.668 -0.28 -0.00    +0.000 A 
DOCKED: ATOM      9  C   UNL     1      20.754  -7.889  -3.693 -0.31 -0.00    +0.000 A 
DOCKED: ATOM     10  C   UNL     1      20.671  -8.254  -2.346 -0.29 -0.00    +0.000 A 
DOCKED: BRANCH   5  12
DOCKED: ATOM     11  C   UNL     1      20.255 -11.060  -0.035 -0.61 -0.00    +0.000 C 
DOCKED: ATOM     12  C   UNL     1      20.779  -9.918  -0.505 -0.66 -0.00    +0.000 C 
DOCKED: BRANCH  11  14
DOCKED: ATOM     13  O   UNL     1      19.591 -12.453   1.743 -1.63 -0.00    +0.000 OA
DOCKED: ATOM     14  C   UNL     1      20.166 -11.385   1.404 -0.74 -0.00    +0.000 C 
DOCKED: ATOM     15  N   UNL     1      20.684 -10.516   2.422 -0.55 -0.00    +0.000 N 
DOCKED: ATOM     16  H   UNL     1      21.048  -9.635   2.176 -0.57 -0.00    +0.000 HD
DOCKED: BRANCH  15  17
DOCKED: ATOM     17  O   UNL     1      20.673 -10.906   3.719 -0.80 -0.00    +0.000 OA
DOCKED: ATOM     18  H   UNL     1      20.644 -11.874   3.766 -0.45 -0.00    +0.000 HD
DOCKED: ENDBRANCH  15  17
DOCKED: ENDBRANCH  11  14
DOCKED: ENDBRANCH   5  12
DOCKED: ENDBRANCH   4   8
DOCKED: ENDBRANCH   1   4
DOCKED: BRANCH   1  19
DOCKED: ATOM     19  C   UNL     1      23.172  -8.652  -7.421 -0.20 -0.00    +0.000 C 
DOCKED: BRANCH  19  20
DOCKED: ATOM     20  C   UNL     1      23.625 -10.019  -6.881 -0.19 -0.00    +0.000 C 
DOCKED: BRANCH  20  21
DOCKED: ATOM     21  C   UNL     1      24.777 -10.543  -7.688 -0.32 -0.00    +0.000 A 
DOCKED: ATOM     22  C   UNL     1      24.773 -11.617  -8.581 -0.39 -0.00    +0.000 A 
DOCKED: ATOM     23  N   UNL     1      26.015 -11.837  -9.070 -0.38 -0.00    +0.000 N 
DOCKED: ATOM     24  C   UNL     1      26.809 -10.928  -8.479 -0.35 -0.00    +0.000 A 
DOCKED: ATOM     25  C   UNL     1      26.094 -10.126  -7.626 -0.34 -0.00    +0.000 A 
DOCKED: ATOM     26  C   UNL     1      26.706  -9.122  -6.875 -0.35 -0.00    +0.000 A 
DOCKED: ATOM     27  C   UNL     1      28.093  -8.943  -7.024 -0.40 -0.00    +0.000 A 
DOCKED: ATOM     28  C   UNL     1      28.829  -9.765  -7.907 -0.41 -0.00    +0.000 A 
DOCKED: ATOM     29  C   UNL     1      28.185 -10.773  -8.647 -0.34 -0.00    +0.000 A 
DOCKED: ATOM     30  C   UNL     1      23.572 -12.412  -8.983 -0.43 -0.00    +0.000 C 
DOCKED: ATOM     31  H   UNL     1      26.282 -12.522  -9.726 -0.46 -0.00    +0.000 HD
DOCKED: ENDBRANCH  20  21
DOCKED: ENDBRANCH  19  20
DOCKED: ENDBRANCH   1  19
DOCKED: TORSDOF 8
DOCKED: TER
DOCKED: ENDMDL
________________________________________________________________________________


	BEGINNING GENETIC ALGORITHM DOCKING 99 of 100
Run: 99 Seed: 2003435605 1417337934 [ Run 99 of 100 GA/GALS ]
Beginning LAMARCKIAN GENETIC ALGORITHM (LGA), with a maximum of 2500000 energy evaluations.

Final-Value: -14.383


	FINAL GENETIC ALGORITHM DOCKED STATE
	_______________________________________________


Detailed state:  trans 20.962 -10.393 -5.815 quatxyzw -0.596157 -0.398345 -0.536784 -0.444726 center 0.698 0.076 -0.072 ntor 8 4.6841 40.9268 -179.6913 127.9907 -91.7797 -179.9965 30.5757 1.8560
State:	 20.962 -10.393  -5.815  -0.666 -0.445 -0.599 -127.188      4.68   40.93 -179.69  127.99  -91.78 -180.00   30.58    1.86

DOCKED: MODEL       99
DOCKED: USER    Run = 99
DOCKED: USER    DPF = ligand_dock.biased.dpf
DOCKED: USER  
DOCKED: USER    Estimated Free Energy of Binding    =  -10.46 kcal/mol  [=(1)+(2)+(3)-(4)]
DOCKED: USER    Estimated Inhibition Constant, Ki   =   21.40 nM (nanomolar)  [Temperature = 298.15 K]
DOCKED: USER    
DOCKED: USER    (1) Final Intermolecular Energy     =  -12.85 kcal/mol
DOCKED: USER        vdW + Hbond + desolv Energy     =  -12.85 kcal/mol
DOCKED: USER        Electrostatic Energy            =   +0.00 kcal/mol
DOCKED: USER    (2) Final Total Internal Energy     =   -1.53 kcal/mol
DOCKED: USER    (3) Torsional Free Energy           =   +2.39 kcal/mol
DOCKED: USER    (4) Unbound System's Energy  [=(2)] =   -1.53 kcal/mol
DOCKED: USER    
DOCKED: USER    
DOCKED: USER    NEWDPF move ligand.pdbqt
DOCKED: USER    NEWDPF about 0.698000 0.076000 -0.072000
DOCKED: USER    NEWDPF tran0 20.962209 -10.393344 -5.815053
DOCKED: USER    NEWDPF quaternion0 -0.596157 -0.398345 -0.536784 -0.444726
DOCKED: USER    NEWDPF axisangle0 -0.665601 -0.444747 -0.599313 -127.188432
DOCKED: USER    NEWDPF quat0 -0.665601 -0.444747 -0.599313 -127.188432
DOCKED: USER    NEWDPF dihe0 4.68 40.93 -179.69 127.99 -91.78 -180.00 30.58 1.86 
DOCKED: USER  keepresnum = 1 
DOCKED: USER  
DOCKED: REMARK  Name = 
DOCKED: REMARK  9 active torsions:
DOCKED: REMARK  status: ('A' for Active; 'I' for Inactive)
DOCKED: REMARK    1  A    between atoms: C_2  and  C_3
DOCKED: REMARK    2  A    between atoms: C_4  and  C_5
DOCKED: REMARK    3  A    between atoms: C_8  and  C_9
DOCKED: REMARK    4  A    between atoms: C_9  and  N_10
DOCKED: REMARK    5  A    between atoms: N_10  and  C_11
DOCKED: REMARK    6  A    between atoms: C_11  and  C_12
DOCKED: REMARK    7  A    between atoms: C_12  and  C_13
DOCKED: REMARK    8  A    between atoms: C_14  and  C_22
DOCKED: REMARK    9  A    between atoms: N_25  and  O_26
DOCKED: REMARK                            x       y       z     vdW  Elec       q    Type
DOCKED: REMARK                         _______ _______ _______ _____ _____    ______ ____
DOCKED: USER                              x       y       z     vdW  Elec       q    Type
DOCKED: USER                           _______ _______ _______ _____ _____    ______ ____
DOCKED: ROOT
DOCKED: ATOM      1  N   UNL     1      21.340 -10.776  -6.852 -0.32 -0.00    +0.000 N 
DOCKED: ATOM      2  H   UNL     1      20.860 -11.667  -6.730 -0.39 -0.00    +0.000 HD
DOCKED: ATOM      3  H   UNL     1      22.260 -10.786  -6.412 -0.02 -0.00    +0.000 HD
DOCKED: ENDROOT
DOCKED: BRANCH   1   4
DOCKED: ATOM      4  C   UNL     1      20.546  -9.719  -6.210 -0.26 -0.00    +0.000 C 
DOCKED: BRANCH   4   8
DOCKED: ATOM      5  C   UNL     1      20.856 -10.202  -1.923 -0.52 -0.00    +0.000 A 
DOCKED: ATOM      6  C   UNL     1      21.420  -9.080  -2.561 -0.43 -0.00    +0.000 A 
DOCKED: ATOM      7  C   UNL     1      21.313  -8.924  -3.946 -0.35 -0.00    +0.000 A 
DOCKED: ATOM      8  C   UNL     1      20.625  -9.872  -4.717 -0.33 -0.00    +0.000 A 
DOCKED: ATOM      9  C   UNL     1      20.059 -10.990  -4.086 -0.43 -0.00    +0.000 A 
DOCKED: ATOM     10  C   UNL     1      20.164 -11.145  -2.701 -0.13 -0.00    +0.000 A 
DOCKED: BRANCH   5  12
DOCKED: ATOM     11  C   UNL     1      20.077 -11.187   0.230 -0.64 -0.00    +0.000 C 
DOCKED: ATOM     12  C   UNL     1      20.930 -10.410  -0.455 -0.69 -0.00    +0.000 C 
DOCKED: BRANCH  11  14
DOCKED: ATOM     13  O   UNL     1      20.264 -12.565   2.129 -1.48 -0.00    +0.000 OA
DOCKED: ATOM     14  C   UNL     1      20.153 -11.390   1.692 -0.75 -0.00    +0.000 C 
DOCKED: ATOM     15  N   UNL     1      20.078 -10.301   2.623 -0.54 -0.00    +0.000 N 
DOCKED: ATOM     16  H   UNL     1      19.894  -9.390   2.299 -0.46 -0.00    +0.000 HD
DOCKED: BRANCH  15  17
DOCKED: ATOM     17  O   UNL     1      20.258 -10.525   3.947 -0.77 -0.00    +0.000 OA
DOCKED: ATOM     18  H   UNL     1      20.500 -11.453   4.088 -0.27 -0.00    +0.000 HD
DOCKED: ENDBRANCH  15  17
DOCKED: ENDBRANCH  11  14
DOCKED: ENDBRANCH   5  12
DOCKED: ENDBRANCH   4   8
DOCKED: ENDBRANCH   1   4
DOCKED: BRANCH   1  19
DOCKED: ATOM     19  C   UNL     1      21.529 -10.533  -8.291 -0.26 -0.00    +0.000 C 
DOCKED: BRANCH  19  20
DOCKED: ATOM     20  C   UNL     1      22.935  -9.999  -8.616 -0.20 -0.00    +0.000 C 
DOCKED: BRANCH  20  21
DOCKED: ATOM     21  C   UNL     1      23.862 -11.136  -8.939 -0.26 -0.00    +0.000 A 
DOCKED: ATOM     22  C   UNL     1      25.199 -11.276  -8.562 -0.37 -0.00    +0.000 A 
DOCKED: ATOM     23  N   UNL     1      25.731 -12.400  -9.096 -0.36 -0.00    +0.000 N 
DOCKED: ATOM     24  C   UNL     1      24.750 -12.961  -9.824 -0.34 -0.00    +0.000 A 
DOCKED: ATOM     25  C   UNL     1      23.599 -12.217  -9.759 -0.29 -0.00    +0.000 A 
DOCKED: ATOM     26  C   UNL     1      22.447 -12.583 -10.456 -0.21 -0.00    +0.000 A 
DOCKED: ATOM     27  C   UNL     1      22.494 -13.756 -11.232 -0.28 +0.00    +0.000 A 
DOCKED: ATOM     28  C   UNL     1      23.677 -14.525 -11.295 -0.34 +0.00    +0.000 A 
DOCKED: ATOM     29  C   UNL     1      24.825 -14.127 -10.585 -0.34 -0.00    +0.000 A 
DOCKED: ATOM     30  C   UNL     1      25.957 -10.346  -7.669 -0.36 -0.00    +0.000 C 
DOCKED: ATOM     31  H   UNL     1      26.648 -12.738  -8.974 -0.47 -0.00    +0.000 HD
DOCKED: ENDBRANCH  20  21
DOCKED: ENDBRANCH  19  20
DOCKED: ENDBRANCH   1  19
DOCKED: TORSDOF 8
DOCKED: TER
DOCKED: ENDMDL
________________________________________________________________________________


	BEGINNING GENETIC ALGORITHM DOCKING 100 of 100
Run: 100 Seed: 643520445 557152100 [ Run 100 of 100 GA/GALS ]
Beginning LAMARCKIAN GENETIC ALGORITHM (LGA), with a maximum of 2500000 energy evaluations.

Final-Value: -13.430


	FINAL GENETIC ALGORITHM DOCKED STATE
	_______________________________________________


Detailed state:  trans 20.126 -9.597 -5.637 quatxyzw 0.705251 -0.051103 0.660595 0.252236 center 0.698 0.076 -0.072 ntor 8 18.9885 -166.6009 24.8516 -174.4872 -110.4074 144.9821 78.2733 -5.3334
State:	 20.126  -9.597  -5.637   0.729 -0.053  0.683 150.780     18.99 -166.60   24.85 -174.49 -110.41  144.98   78.27   -5.33

DOCKED: MODEL      100
DOCKED: USER    Run = 100
DOCKED: USER    DPF = ligand_dock.biased.dpf
DOCKED: USER  
DOCKED: USER    Estimated Free Energy of Binding    =   -9.35 kcal/mol  [=(1)+(2)+(3)-(4)]
DOCKED: USER    Estimated Inhibition Constant, Ki   =  140.03 nM (nanomolar)  [Temperature = 298.15 K]
DOCKED: USER    
DOCKED: USER    (1) Final Intermolecular Energy     =  -11.74 kcal/mol
DOCKED: USER        vdW + Hbond + desolv Energy     =  -11.74 kcal/mol
DOCKED: USER        Electrostatic Energy            =   +0.00 kcal/mol
DOCKED: USER    (2) Final Total Internal Energy     =   -1.69 kcal/mol
DOCKED: USER    (3) Torsional Free Energy           =   +2.39 kcal/mol
DOCKED: USER    (4) Unbound System's Energy  [=(2)] =   -1.69 kcal/mol
DOCKED: USER    
DOCKED: USER    
DOCKED: USER    NEWDPF move ligand.pdbqt
DOCKED: USER    NEWDPF about 0.698000 0.076000 -0.072000
DOCKED: USER    NEWDPF tran0 20.126489 -9.597011 -5.636711
DOCKED: USER    NEWDPF quaternion0 0.705251 -0.051103 0.660595 0.252236
DOCKED: USER    NEWDPF axisangle0 0.728817 -0.052811 0.682669 150.780209
DOCKED: USER    NEWDPF quat0 0.728817 -0.052811 0.682669 150.780209
DOCKED: USER    NEWDPF dihe0 18.99 -166.60 24.85 -174.49 -110.41 144.98 78.27 -5.33 
DOCKED: USER  keepresnum = 1 
DOCKED: USER  
DOCKED: REMARK  Name = 
DOCKED: REMARK  9 active torsions:
DOCKED: REMARK  status: ('A' for Active; 'I' for Inactive)
DOCKED: REMARK    1  A    between atoms: C_2  and  C_3
DOCKED: REMARK    2  A    between atoms: C_4  and  C_5
DOCKED: REMARK    3  A    between atoms: C_8  and  C_9
DOCKED: REMARK    4  A    between atoms: C_9  and  N_10
DOCKED: REMARK    5  A    between atoms: N_10  and  C_11
DOCKED: REMARK    6  A    between atoms: C_11  and  C_12
DOCKED: REMARK    7  A    between atoms: C_12  and  C_13
DOCKED: REMARK    8  A    between atoms: C_14  and  C_22
DOCKED: REMARK    9  A    between atoms: N_25  and  O_26
DOCKED: REMARK                            x       y       z     vdW  Elec       q    Type
DOCKED: REMARK                         _______ _______ _______ _____ _____    ______ ____
DOCKED: USER                              x       y       z     vdW  Elec       q    Type
DOCKED: USER                           _______ _______ _______ _____ _____    ______ ____
DOCKED: ROOT
DOCKED: ATOM      1  N   UNL     1      19.937  -9.761  -6.777 -0.19 -0.00    +0.000 N 
DOCKED: ATOM      2  H   UNL     1      18.937  -9.892  -6.621 +0.00 -0.00    +0.000 HD
DOCKED: ATOM      3  H   UNL     1      20.450 -10.633  -6.646 -0.02 -0.00    +0.000 HD
DOCKED: ENDROOT
DOCKED: BRANCH   1   4
DOCKED: ATOM      4  C   UNL     1      20.445  -8.788  -5.802 -0.19 -0.00    +0.000 C 
DOCKED: BRANCH   4   8
DOCKED: ATOM      5  C   UNL     1      20.087 -10.453  -1.826 -0.46 -0.00    +0.000 A 
DOCKED: ATOM      6  C   UNL     1      20.969  -9.383  -2.079 -0.50 -0.00    +0.000 A 
DOCKED: ATOM      7  C   UNL     1      21.078  -8.844  -3.364 -0.38 -0.00    +0.000 A 
DOCKED: ATOM      8  C   UNL     1      20.295  -9.345  -4.414 -0.28 -0.00    +0.000 A 
DOCKED: ATOM      9  C   UNL     1      19.413 -10.408  -4.167 -0.34 -0.00    +0.000 A 
DOCKED: ATOM     10  C   UNL     1      19.302 -10.946  -2.881 -0.36 -0.00    +0.000 A 
DOCKED: BRANCH   5  12
DOCKED: ATOM     11  C   UNL     1      20.561 -10.613   0.616 -0.69 -0.00    +0.000 C 
DOCKED: ATOM     12  C   UNL     1      19.923 -11.054  -0.479 -0.54 -0.00    +0.000 C 
DOCKED: BRANCH  11  14
DOCKED: ATOM     13  O   UNL     1      20.122 -12.442   2.030 -1.65 -0.00    +0.000 OA
DOCKED: ATOM     14  C   UNL     1      20.397 -11.216   1.955 -0.75 -0.00    +0.000 C 
DOCKED: ATOM     15  N   UNL     1      20.513 -10.450   3.162 -0.62 -0.00    +0.000 N 
DOCKED: ATOM     16  H   UNL     1      20.631  -9.474   3.115 -0.58 -0.00    +0.000 HD
DOCKED: BRANCH  15  17
DOCKED: ATOM     17  O   UNL     1      20.460 -11.067   4.367 -0.69 -0.00    +0.000 OA
DOCKED: ATOM     18  H   UNL     1      20.642 -12.013   4.255 -0.49 -0.00    +0.000 HD
DOCKED: ENDBRANCH  15  17
DOCKED: ENDBRANCH  11  14
DOCKED: ENDBRANCH   5  12
DOCKED: ENDBRANCH   4   8
DOCKED: ENDBRANCH   1   4
DOCKED: BRANCH   1  19
DOCKED: ATOM     19  C   UNL     1      20.145  -9.319  -8.165 -0.15 -0.00    +0.000 C 
DOCKED: BRANCH  19  20
DOCKED: ATOM     20  C   UNL     1      21.633  -9.294  -8.556 -0.14 -0.00    +0.000 C 
DOCKED: BRANCH  20  21
DOCKED: ATOM     21  C   UNL     1      22.146 -10.692  -8.743 -0.22 -0.00    +0.000 A 
DOCKED: ATOM     22  C   UNL     1      22.590 -11.575  -7.757 -0.32 -0.00    +0.000 A 
DOCKED: ATOM     23  N   UNL     1      23.043 -12.723  -8.311 -0.40 -0.00    +0.000 N 
DOCKED: ATOM     24  C   UNL     1      22.912 -12.567  -9.639 -0.32 -0.00    +0.000 A 
DOCKED: ATOM     25  C   UNL     1      22.376 -11.340  -9.942 -0.20 -0.00    +0.000 A 
DOCKED: ATOM     26  C   UNL     1      22.167 -10.935 -11.261 -0.12 -0.00    +0.000 A 
DOCKED: ATOM     27  C   UNL     1      22.518 -11.832 -12.287 -0.11 -0.00    +0.000 A 
DOCKED: ATOM     28  C   UNL     1      23.065 -13.096 -11.975 -0.17 -0.00    +0.000 A 
DOCKED: ATOM     29  C   UNL     1      23.269 -13.475 -10.636 -0.33 -0.00    +0.000 A 
DOCKED: ATOM     30  C   UNL     1      22.554 -11.327  -6.282 -0.46 -0.00    +0.000 C 
DOCKED: ATOM     31  H   UNL     1      23.396 -13.512  -7.838 -0.07 -0.00    +0.000 HD
DOCKED: ENDBRANCH  20  21
DOCKED: ENDBRANCH  19  20
DOCKED: ENDBRANCH   1  19
DOCKED: TORSDOF 8
DOCKED: TER
DOCKED: ENDMDL
________________________________________________________________________________

DPF>                           # do this many hybrid GA-LS runs

DPF> analysis                             # perform a ranked cluster analysis


		CLUSTER ANALYSIS OF CONFORMATIONS
		_________________________________

Number of conformations = 100

RMSD cluster analysis will be performed using the ligand atoms only (31 / 31 total atoms).

Outputting structurally similar clusters, ranked in order of increasing energy.


________________________________________________________________________________

Number of distinct conformational clusters found = 25,  out of 100 runs,
Using an rmsd-tolerance of 2.0 A


	CLUSTERING HISTOGRAM
	____________________

________________________________________________________________________________
     |           |     |           |     |                                    
Clus | Lowest    | Run | Mean      | Num | Histogram                          
-ter | Binding   |     | Binding   | in  |                                    
Rank | Energy    |     | Energy    | Clus|    5    10   15   20   25   30   35
_____|___________|_____|___________|_____|____:____|____:____|____:____|____:___
   1 |    -11.52 |  65 |    -10.59 |  37 |#####################################
   2 |    -11.39 |  29 |    -10.52 |   4 |####
   3 |    -10.74 |  64 |    -10.37 |   3 |###
   4 |    -10.38 |  41 |     -9.42 |   8 |########
   5 |    -10.35 |  96 |     -9.97 |   7 |#######
   6 |    -10.21 |  56 |    -10.21 |   1 |#
   7 |    -10.07 |  16 |    -10.07 |   1 |#
   8 |    -10.01 |  25 |     -9.74 |   3 |###
   9 |     -9.89 |  35 |     -9.25 |  10 |##########
  10 |     -9.84 |  63 |     -9.84 |   1 |#
  11 |     -9.75 |  27 |     -9.34 |   3 |###
  12 |     -9.69 |  31 |     -9.09 |   2 |##
  13 |     -9.62 |  49 |     -8.49 |   4 |####
  14 |     -9.61 |  83 |     -9.53 |   3 |###
  15 |     -9.60 |  73 |     -9.24 |   2 |##
  16 |     -9.47 |   4 |     -9.47 |   1 |#
  17 |     -9.41 |  11 |     -9.20 |   2 |##
  18 |     -9.28 |  37 |     -9.28 |   1 |#
  19 |     -9.12 |   9 |     -9.12 |   1 |#
  20 |     -8.97 |  13 |     -8.97 |   1 |#
  21 |     -8.86 |  71 |     -8.86 |   1 |#
  22 |     -8.53 |  61 |     -8.53 |   1 |#
  23 |     -8.41 |   5 |     -8.41 |   1 |#
  24 |     -8.27 |   7 |     -8.27 |   1 |#
  25 |     -8.10 |  26 |     -8.10 |   1 |#
_____|___________|_____|___________|_____|______________________________________


Number of multi-member conformational clusters found = 13, out of 100 runs.

	RMSD TABLE
	__________

_____________________________________________________________________
     |      |      |           |         |                 |
Rank | Sub- | Run  | Binding   | Cluster | Reference       | Grep
     | Rank |      | Energy    | RMSD    | RMSD            | Pattern
_____|______|______|___________|_________|_________________|___________
   1      1     65      -11.52      0.00     20.38           RANKING
   1      2      1      -11.39      0.78     19.99           RANKING
   1      3     30      -11.32      0.55     20.22           RANKING
   1      4     88      -11.25      1.84     20.42           RANKING
   1      5     43      -11.16      0.82     19.97           RANKING
   1      6     85      -11.15      1.33     19.90           RANKING
   1      7     75      -11.02      1.15     20.05           RANKING
   1      8     58      -10.93      1.16     19.81           RANKING
   1      9     94      -10.89      1.26     20.09           RANKING
   1     10     51      -10.88      1.84     20.08           RANKING
   1     11     98      -10.85      1.75     20.05           RANKING
   1     12      6      -10.84      0.96     20.26           RANKING
   1     13     18      -10.80      0.59     20.29           RANKING
   1     14     33      -10.79      1.38     20.14           RANKING
   1     15     46      -10.78      1.68     19.86           RANKING
   1     16     90      -10.74      1.73     20.00           RANKING
   1     17     40      -10.73      1.04     20.07           RANKING
   1     18     55      -10.67      1.45     20.09           RANKING
   1     19     69      -10.67      1.56     20.08           RANKING
   1     20     89      -10.63      1.58     20.57           RANKING
   1     21     92      -10.61      1.95     19.56           RANKING
   1     22     50      -10.56      1.63     19.84           RANKING
   1     23     79      -10.49      1.82     20.22           RANKING
   1     24     99      -10.46      1.41     20.01           RANKING
   1     25     54      -10.46      1.47     19.90           RANKING
   1     26     70      -10.42      0.72     20.39           RANKING
   1     27     12      -10.42      0.93     20.04           RANKING
   1     28     76      -10.25      1.40     20.36           RANKING
   1     29     36      -10.16      1.63     20.06           RANKING
   1     30     66      -10.10      1.24     20.03           RANKING
   1     31     60      -10.09      0.91     20.64           RANKING
   1     32     24      -10.06      1.67     19.92           RANKING
   1     33     77      -10.02      1.76     19.90           RANKING
   1     34      3       -9.99      1.74     20.22           RANKING
   1     35     84       -9.93      1.53     20.14           RANKING
   1     36      2       -9.51      1.48     20.31           RANKING
   1     37    100       -9.35      1.86     19.06           RANKING
   2      1     29      -11.39      0.00     14.83           RANKING
   2      2     93      -11.16      0.90     14.64           RANKING
   2      3     45      -10.55      0.82     14.76           RANKING
   2      4     97       -8.99      1.90     13.77           RANKING
   3      1     64      -10.74      0.00     16.06           RANKING
   3      2     48      -10.48      1.06     15.84           RANKING
   3      3     28       -9.90      1.45     16.24           RANKING
   4      1     41      -10.38      0.00     16.21           RANKING
   4      2     59      -10.09      1.76     15.83           RANKING
   4      3     17       -9.73      1.12     15.99           RANKING
   4      4     39       -9.43      1.52     15.74           RANKING
   4      5     32       -9.23      1.61     15.68           RANKING
   4      6     19       -8.97      1.28     15.77           RANKING
   4      7     44       -8.85      1.50     15.99           RANKING
   4      8     57       -8.68      1.87     16.04           RANKING
   5      1     96      -10.35      0.00     19.08           RANKING
   5      2     82      -10.27      1.21     19.09           RANKING
   5      3     42      -10.07      1.51     18.66           RANKING
   5      4     47       -9.87      1.97     17.79           RANKING
   5      5     91       -9.86      1.54     18.69           RANKING
   5      6     72       -9.71      1.05     18.91           RANKING
   5      7     74       -9.66      1.92     19.15           RANKING
   6      1     56      -10.21      0.00     12.62           RANKING
   7      1     16      -10.07      0.00     13.82           RANKING
   8      1     25      -10.01      0.00     18.38           RANKING
   8      2     10       -9.62      0.86     18.27           RANKING
   8      3     81       -9.60      1.50     17.90           RANKING
   9      1     35       -9.89      0.00     16.17           RANKING
   9      2     68       -9.41      1.45     15.56           RANKING
   9      3     67       -9.39      1.32     16.35           RANKING
   9      4     14       -9.38      1.59     16.02           RANKING
   9      5     53       -9.36      1.45     16.18           RANKING
   9      6     21       -9.34      1.73     15.48           RANKING
   9      7     38       -9.14      1.91     17.06           RANKING
   9      8     23       -9.12      1.64     15.24           RANKING
   9      9     95       -8.85      1.84     16.39           RANKING
   9     10     22       -8.59      1.79     15.57           RANKING
  10      1     63       -9.84      0.00     19.24           RANKING
  11      1     27       -9.75      0.00     17.20           RANKING
  11      2     87       -9.15      1.62     16.19           RANKING
  11      3     15       -9.13      1.87     17.70           RANKING
  12      1     31       -9.69      0.00     14.01           RANKING
  12      2     86       -8.50      1.84     13.52           RANKING
  13      1     49       -9.62      0.00     17.28           RANKING
  13      2     52       -8.44      1.45     17.05           RANKING
  13      3     34       -8.39      2.00     16.54           RANKING
  13      4     78       -7.52      1.71     16.97           RANKING
  14      1     83       -9.61      0.00     16.55           RANKING
  14      2     80       -9.59      1.29     16.29           RANKING
  14      3     20       -9.40      1.73     16.09           RANKING
  15      1     73       -9.60      0.00     16.52           RANKING
  15      2      8       -8.88      1.13     16.40           RANKING
  16      1      4       -9.47      0.00     13.11           RANKING
  17      1     11       -9.41      0.00     16.94           RANKING
  17      2     62       -9.00      1.87     16.37           RANKING
  18      1     37       -9.28      0.00     19.40           RANKING
  19      1      9       -9.12      0.00     13.70           RANKING
  20      1     13       -8.97      0.00     13.60           RANKING
  21      1     71       -8.86      0.00     13.41           RANKING
  22      1     61       -8.53      0.00     14.60           RANKING
  23      1      5       -8.41      0.00     11.91           RANKING
  24      1      7       -8.27      0.00     14.88           RANKING
  25      1     26       -8.10      0.00     17.38           RANKING
_______________________________________________________________________



	INFORMATION ENTROPY ANALYSIS FOR THIS CLUSTERING
	________________________________________________


Information entropy for this clustering = 0.53  (rmstol = 2.00 Angstrom)

_______________________________________________________________________


	STATISTICAL MECHANICAL ANALYSIS
	_______________________________


Partition function, Q =   101.68            at Temperature, T = 298.15 K
Free energy,        A ~ -2738.34 kcal/mol   at Temperature, T = 298.15 K
Internal energy,    U =    -9.87 kcal/mol   at Temperature, T = 298.15 K
Entropy,            S =     9.15 kcal/mol/K at Temperature, T = 298.15 K

_______________________________________________________________________


	LOWEST ENERGY DOCKED CONFORMATION from EACH CLUSTER
	___________________________________________________



Keeping original residue number (specified in the input PDBQ file) for outputting.

MODEL       65
USER    Run = 65
USER    Cluster Rank = 1
USER    Number of conformations in this cluster = 37
USER  
USER    RMSD from reference structure       = 20.375 A
USER  
USER    Estimated Free Energy of Binding    =  -11.52 kcal/mol  [=(1)+(2)+(3)-(4)]
USER    Estimated Inhibition Constant, Ki   =    3.57 nM (nanomolar)  [Temperature = 298.15 K]
USER    
USER    (1) Final Intermolecular Energy     =  -13.91 kcal/mol
USER        vdW + Hbond + desolv Energy     =  -13.91 kcal/mol
USER        Electrostatic Energy            =   +0.00 kcal/mol
USER    (2) Final Total Internal Energy     =   -1.29 kcal/mol
USER    (3) Torsional Free Energy           =   +2.39 kcal/mol
USER    (4) Unbound System's Energy  [=(2)] =   -1.29 kcal/mol
USER    
USER    
USER  
USER    DPF = ligand_dock.biased.dpf
USER    NEWDPF move	ligand.pdbqt
USER    NEWDPF about	0.698000 0.076000 -0.072000
USER    NEWDPF tran0	20.574102 -10.624983 -5.914069
USER    NEWDPF axisangle0	0.446070 0.144788 0.883209 161.137970
USER    NEWDPF quaternion0	0.440041 0.142831 0.871271 0.163860
USER    NEWDPF dihe0	34.94 -140.04 -165.06 -174.52 -9.40 -175.99 -160.14 30.64 
USER  
USER                              x       y       z    vdW   Elec        q     RMS 
ATOM      1  N   UNL     1      21.200 -11.078  -6.790 -0.27 -0.00    +0.000    20.375
ATOM      2  H   UNL     1      20.354 -11.287  -7.322 -0.18 -0.00    +0.000    20.375
ATOM      3  H   UNL     1      21.416 -11.825  -6.130 -0.39 -0.00    +0.000    20.375
ATOM      4  C   UNL     1      20.981  -9.846  -6.021 -0.30 -0.00    +0.000    20.375
ATOM      5  C   UNL     1      19.978 -10.768  -1.915 -0.40 -0.00    +0.000    20.375
ATOM      6  C   UNL     1      19.014 -10.897  -2.936 -0.33 -0.00    +0.000    20.375
ATOM      7  C   UNL     1      19.344 -10.604  -4.262 -0.35 -0.00    +0.000    20.375
ATOM      8  C   UNL     1      20.643 -10.197  -4.599 -0.37 -0.00    +0.000    20.375
ATOM      9  C   UNL     1      21.607 -10.070  -3.587 -0.39 -0.00    +0.000    20.375
ATOM     10  C   UNL     1      21.278 -10.365  -2.261 -0.50 -0.00    +0.000    20.375
ATOM     11  C   UNL     1      20.619 -11.108   0.469 -0.69 -0.00    +0.000    20.375
ATOM     12  C   UNL     1      19.685 -11.078  -0.494 -0.53 -0.00    +0.000    20.375
ATOM     13  O   UNL     1      19.749 -12.507   2.149 -1.58 -0.00    +0.000    20.375
ATOM     14  C   UNL     1      20.324 -11.419   1.883 -0.77 -0.00    +0.000    20.375
ATOM     15  N   UNL     1      20.645 -10.517   2.951 -0.62 -0.00    +0.000    20.375
ATOM     16  H   UNL     1      21.005  -9.624   2.749 -0.58 -0.00    +0.000    20.375
ATOM     17  O   UNL     1      20.451 -10.892   4.239 -0.75 -0.00    +0.000    20.375
ATOM     18  H   UNL     1      20.636 -11.839   4.332 -0.45 -0.00    +0.000    20.375
ATOM     19  C   UNL     1      22.330 -10.958  -7.724 -0.35 -0.00    +0.000    20.375
ATOM     20  C   UNL     1      23.562 -11.753  -7.260 -0.52 -0.00    +0.000    20.375
ATOM     21  C   UNL     1      24.637 -11.707  -8.307 -0.41 -0.00    +0.000    20.375
ATOM     22  C   UNL     1      24.753 -12.511  -9.443 -0.36 -0.00    +0.000    20.375
ATOM     23  N   UNL     1      25.891 -12.224 -10.117 -0.19 -0.00    +0.000    20.375
ATOM     24  C   UNL     1      26.507 -11.264  -9.407 -0.29 -0.00    +0.000    20.375
ATOM     25  C   UNL     1      25.778 -10.927  -8.294 -0.36 -0.00    +0.000    20.375
ATOM     26  C   UNL     1      26.227  -9.969  -7.384 -0.26 -0.00    +0.000    20.375
ATOM     27  C   UNL     1      27.459  -9.342  -7.645 -0.36 -0.00    +0.000    20.375
ATOM     28  C   UNL     1      28.207  -9.685  -8.793 -0.29 -0.00    +0.000    20.375
ATOM     29  C   UNL     1      27.731 -10.659  -9.690 -0.26 -0.00    +0.000    20.375
ATOM     30  C   UNL     1      23.759 -13.532  -9.895 -0.43 -0.00    +0.000    20.375
ATOM     31  H   UNL     1      26.203 -12.635 -10.956 -0.36 -0.00    +0.000    20.375
TER
ENDMDL
MODEL       29
USER    Run = 29
USER    Cluster Rank = 2
USER    Number of conformations in this cluster = 4
USER  
USER    RMSD from reference structure       = 14.828 A
USER  
USER    Estimated Free Energy of Binding    =  -11.39 kcal/mol  [=(1)+(2)+(3)-(4)]
USER    Estimated Inhibition Constant, Ki   =    4.47 nM (nanomolar)  [Temperature = 298.15 K]
USER    
USER    (1) Final Intermolecular Energy     =  -13.78 kcal/mol
USER        vdW + Hbond + desolv Energy     =  -13.78 kcal/mol
USER        Electrostatic Energy            =   +0.00 kcal/mol
USER    (2) Final Total Internal Energy     =   -1.61 kcal/mol
USER    (3) Torsional Free Energy           =   +2.39 kcal/mol
USER    (4) Unbound System's Energy  [=(2)] =   -1.61 kcal/mol
USER    
USER    
USER  
USER    DPF = ligand_dock.biased.dpf
USER    NEWDPF move	ligand.pdbqt
USER    NEWDPF about	0.698000 0.076000 -0.072000
USER    NEWDPF tran0	14.805862 -12.815130 0.048569
USER    NEWDPF axisangle0	0.160446 -0.063299 -0.985013 -135.193118
USER    NEWDPF quaternion0	0.148336 -0.058521 -0.910667 -0.381126
USER    NEWDPF dihe0	-10.06 132.02 -170.69 9.33 -45.28 -125.36 177.09 165.46 
USER  
USER                              x       y       z    vdW   Elec        q     RMS 
ATOM      1  N   UNL     1      15.927 -12.514   0.181 -0.49 +0.00    +0.000    14.828
ATOM      2  H   UNL     1      16.046 -12.409  -0.827 -0.01 +0.00    +0.000    14.828
ATOM      3  H   UNL     1      16.059 -13.482   0.471 -0.04 +0.00    +0.000    14.828
ATOM      4  C   UNL     1      14.557 -12.121   0.538 -0.48 +0.00    +0.000    14.828
ATOM      5  C   UNL     1      14.593  -9.059   3.594 -0.32 +0.00    +0.000    14.828
ATOM      6  C   UNL     1      14.346 -10.405   3.929 -0.34 +0.00    +0.000    14.828
ATOM      7  C   UNL     1      14.341 -11.393   2.940 -0.34 +0.00    +0.000    14.828
ATOM      8  C   UNL     1      14.602 -11.061   1.603 -0.35 +0.00    +0.000    14.828
ATOM      9  C   UNL     1      14.852  -9.723   1.264 -0.24 +0.00    +0.000    14.828
ATOM     10  C   UNL     1      14.859  -8.735   2.253 -0.27 +0.00    +0.000    14.828
ATOM     11  C   UNL     1      15.104  -6.745   4.364 -0.43 +0.00    +0.000    14.828
ATOM     12  C   UNL     1      14.623  -7.974   4.605 -0.41 +0.00    +0.000    14.828
ATOM     13  O   UNL     1      14.222  -5.635   6.244 -1.08 +0.00    +0.000    14.828
ATOM     14  C   UNL     1      15.134  -5.668   5.376 -0.43 +0.00    +0.000    14.828
ATOM     15  N   UNL     1      16.145  -4.650   5.385 -0.45 -0.00    +0.000    14.828
ATOM     16  H   UNL     1      16.805  -4.608   4.656 -0.51 -0.00    +0.000    14.828
ATOM     17  O   UNL     1      16.191  -3.746   6.393 -0.69 +0.00    +0.000    14.828
ATOM     18  H   UNL     1      15.391  -3.824   6.935 -0.06 +0.00    +0.000    14.828
ATOM     19  C   UNL     1      16.937 -11.693   0.866 -0.48 +0.00    +0.000    14.828
ATOM     20  C   UNL     1      18.302 -12.397   0.956 -0.57 -0.00    +0.000    14.828
ATOM     21  C   UNL     1      19.410 -11.423   0.679 -0.56 -0.00    +0.000    14.828
ATOM     22  C   UNL     1      20.236 -10.786   1.608 -0.62 -0.00    +0.000    14.828
ATOM     23  N   UNL     1      21.076  -9.924   0.989 -0.48 -0.00    +0.000    14.828
ATOM     24  C   UNL     1      20.775  -9.992  -0.319 -0.60 -0.00    +0.000    14.828
ATOM     25  C   UNL     1      19.761 -10.889  -0.547 -0.49 -0.00    +0.000    14.828
ATOM     26  C   UNL     1      19.254 -11.115  -1.827 -0.34 -0.00    +0.000    14.828
ATOM     27  C   UNL     1      19.823 -10.396  -2.895 -0.40 -0.00    +0.000    14.828
ATOM     28  C   UNL     1      20.870  -9.477  -2.661 -0.46 -0.00    +0.000    14.828
ATOM     29  C   UNL     1      21.356  -9.266  -1.358 -0.53 -0.00    +0.000    14.828
ATOM     30  C   UNL     1      20.236 -11.025   3.084 -0.75 -0.00    +0.000    14.828
ATOM     31  H   UNL     1      21.766  -9.363   1.411 -0.54 -0.00    +0.000    14.828
TER
ENDMDL
MODEL       64
USER    Run = 64
USER    Cluster Rank = 3
USER    Number of conformations in this cluster = 3
USER  
USER    RMSD from reference structure       = 16.059 A
USER  
USER    Estimated Free Energy of Binding    =  -10.74 kcal/mol  [=(1)+(2)+(3)-(4)]
USER    Estimated Inhibition Constant, Ki   =   13.38 nM (nanomolar)  [Temperature = 298.15 K]
USER    
USER    (1) Final Intermolecular Energy     =  -13.13 kcal/mol
USER        vdW + Hbond + desolv Energy     =  -13.13 kcal/mol
USER        Electrostatic Energy            =   +0.00 kcal/mol
USER    (2) Final Total Internal Energy     =   -1.29 kcal/mol
USER    (3) Torsional Free Energy           =   +2.39 kcal/mol
USER    (4) Unbound System's Energy  [=(2)] =   -1.29 kcal/mol
USER    
USER    
USER  
USER    DPF = ligand_dock.biased.dpf
USER    NEWDPF move	ligand.pdbqt
USER    NEWDPF about	0.698000 0.076000 -0.072000
USER    NEWDPF tran0	20.045375 -10.138956 1.504949
USER    NEWDPF axisangle0	-0.061045 0.830496 -0.553670 142.673645
USER    NEWDPF quaternion0	-0.057835 0.786825 -0.524556 0.320004
USER    NEWDPF dihe0	60.75 -2.23 -78.59 43.29 -74.85 176.79 8.80 55.58 
USER  
USER                              x       y       z    vdW   Elec        q     RMS 
ATOM      1  N   UNL     1      20.682  -9.929   0.548 -0.60 -0.00    +0.000    16.059
ATOM      2  H   UNL     1      21.156  -9.147   1.002 -0.43 -0.00    +0.000    16.059
ATOM      3  H   UNL     1      19.798  -9.635   0.134 -0.03 -0.00    +0.000    16.059
ATOM      4  C   UNL     1      20.388 -10.954   1.558 -0.72 -0.00    +0.000    16.059
ATOM      5  C   UNL     1      16.143 -11.780   1.446 -0.40 +0.00    +0.000    16.059
ATOM      6  C   UNL     1      17.041 -12.530   0.660 -0.45 +0.00    +0.000    16.059
ATOM      7  C   UNL     1      18.413 -12.264   0.704 -0.49 -0.00    +0.000    16.059
ATOM      8  C   UNL     1      18.917 -11.261   1.545 -0.53 -0.00    +0.000    16.059
ATOM      9  C   UNL     1      18.027 -10.514   2.332 -0.47 -0.00    +0.000    16.059
ATOM     10  C   UNL     1      16.655 -10.781   2.290 -0.41 +0.00    +0.000    16.059
ATOM     11  C   UNL     1      13.797 -11.279   0.773 -0.39 +0.00    +0.000    16.059
ATOM     12  C   UNL     1      14.680 -12.029   1.448 -0.49 +0.00    +0.000    16.059
ATOM     13  O   UNL     1      11.628 -10.947  -0.081 -0.34 +0.00    +0.000    16.059
ATOM     14  C   UNL     1      12.340 -11.528   0.780 -0.42 +0.00    +0.000    16.059
ATOM     15  N   UNL     1      11.712 -12.386   1.744 -0.39 +0.00    +0.000    16.059
ATOM     16  H   UNL     1      12.242 -12.769   2.479 -0.59 +0.00    +0.000    16.059
ATOM     17  O   UNL     1      10.391 -12.667   1.644 -0.57 +0.00    +0.000    16.059
ATOM     18  H   UNL     1      10.217 -13.115   0.802 -0.59 -0.00    +0.000    16.059
ATOM     19  C   UNL     1      21.539 -10.442  -0.531 -0.69 -0.00    +0.000    16.059
ATOM     20  C   UNL     1      20.738 -10.814  -1.790 -0.44 -0.00    +0.000    16.059
ATOM     21  C   UNL     1      21.011  -9.830  -2.892 -0.48 -0.00    +0.000    16.059
ATOM     22  C   UNL     1      21.273 -10.107  -4.235 -0.41 -0.00    +0.000    16.059
ATOM     23  N   UNL     1      21.538  -8.968  -4.915 -0.30 -0.00    +0.000    16.059
ATOM     24  C   UNL     1      21.468  -7.975  -4.012 -0.29 -0.00    +0.000    16.059
ATOM     25  C   UNL     1      21.156  -8.461  -2.767 -0.41 -0.00    +0.000    16.059
ATOM     26  C   UNL     1      21.053  -7.623  -1.656 -0.35 -0.00    +0.000    16.059
ATOM     27  C   UNL     1      21.271  -6.246  -1.849 -0.38 -0.00    +0.000    16.059
ATOM     28  C   UNL     1      21.587  -5.745  -3.132 -0.31 -0.00    +0.000    16.059
ATOM     29  C   UNL     1      21.690  -6.616  -4.232 -0.23 -0.00    +0.000    16.059
ATOM     30  C   UNL     1      21.242 -11.461  -4.869 -0.51 -0.00    +0.000    16.059
ATOM     31  H   UNL     1      21.739  -8.884  -5.876 -0.00 -0.00    +0.000    16.059
TER
ENDMDL
MODEL       41
USER    Run = 41
USER    Cluster Rank = 4
USER    Number of conformations in this cluster = 8
USER  
USER    RMSD from reference structure       = 16.207 A
USER  
USER    Estimated Free Energy of Binding    =  -10.38 kcal/mol  [=(1)+(2)+(3)-(4)]
USER    Estimated Inhibition Constant, Ki   =   24.77 nM (nanomolar)  [Temperature = 298.15 K]
USER    
USER    (1) Final Intermolecular Energy     =  -12.76 kcal/mol
USER        vdW + Hbond + desolv Energy     =  -12.76 kcal/mol
USER        Electrostatic Energy            =   +0.00 kcal/mol
USER    (2) Final Total Internal Energy     =   -1.76 kcal/mol
USER    (3) Torsional Free Energy           =   +2.39 kcal/mol
USER    (4) Unbound System's Energy  [=(2)] =   -1.76 kcal/mol
USER    
USER    
USER  
USER    DPF = ligand_dock.biased.dpf
USER    NEWDPF move	ligand.pdbqt
USER    NEWDPF about	0.698000 0.076000 -0.072000
USER    NEWDPF tran0	19.875188 -11.342813 2.682105
USER    NEWDPF axisangle0	0.857377 -0.480856 -0.183527 -89.835953
USER    NEWDPF quaternion0	0.605389 -0.339529 -0.129587 -0.708118
USER    NEWDPF dihe0	-3.65 169.12 -46.73 136.14 45.90 166.10 160.61 -106.89 
USER  
USER                              x       y       z    vdW   Elec        q     RMS 
ATOM      1  N   UNL     1      19.162 -10.443   2.898 -0.60 -0.00    +0.000    16.207
ATOM      2  H   UNL     1      19.899  -9.771   2.683 -0.50 -0.00    +0.000    16.207
ATOM      3  H   UNL     1      19.212 -10.752   3.868 -0.02 -0.00    +0.000    16.207
ATOM      4  C   UNL     1      19.334 -11.624   2.040 -0.70 -0.00    +0.000    16.207
ATOM      5  C   UNL     1      20.672 -10.457  -1.904 -0.50 -0.00    +0.000    16.207
ATOM      6  C   UNL     1      19.428 -11.095  -1.728 -0.33 -0.00    +0.000    16.207
ATOM      7  C   UNL     1      18.996 -11.465  -0.451 -0.45 -0.00    +0.000    16.207
ATOM      8  C   UNL     1      19.785 -11.189   0.675 -0.59 -0.00    +0.000    16.207
ATOM      9  C   UNL     1      21.024 -10.551   0.505 -0.60 -0.00    +0.000    16.207
ATOM     10  C   UNL     1      21.455 -10.179  -0.772 -0.61 -0.00    +0.000    16.207
ATOM     11  C   UNL     1      21.557 -10.887  -4.194 -0.52 -0.00    +0.000    16.207
ATOM     12  C   UNL     1      21.173 -10.031  -3.235 -0.52 -0.00    +0.000    16.207
ATOM     13  O   UNL     1      22.223  -9.229  -5.725 -0.32 -0.00    +0.000    16.207
ATOM     14  C   UNL     1      22.057 -10.459  -5.517 -0.40 -0.00    +0.000    16.207
ATOM     15  N   UNL     1      22.333 -11.391  -6.572 -0.44 -0.00    +0.000    16.207
ATOM     16  H   UNL     1      22.116 -12.344  -6.455 -0.54 -0.00    +0.000    16.207
ATOM     17  O   UNL     1      22.890 -10.962  -7.730 -0.36 -0.00    +0.000    16.207
ATOM     18  H   UNL     1      22.986  -9.997  -7.705 +0.00 -0.00    +0.000    16.207
ATOM     19  C   UNL     1      17.856  -9.796   2.696 -0.47 -0.00    +0.000    16.207
ATOM     20  C   UNL     1      16.767 -10.373   3.617 -0.35 +0.00    +0.000    16.207
ATOM     21  C   UNL     1      15.544 -10.726   2.820 -0.42 +0.00    +0.000    16.207
ATOM     22  C   UNL     1      14.217 -10.402   3.109 -0.34 +0.00    +0.000    16.207
ATOM     23  N   UNL     1      13.381 -10.950   2.197 -0.35 +0.00    +0.000    16.207
ATOM     24  C   UNL     1      14.164 -11.635   1.346 -0.41 +0.00    +0.000    16.207
ATOM     25  C   UNL     1      15.487 -11.529   1.696 -0.40 +0.00    +0.000    16.207
ATOM     26  C   UNL     1      16.491 -12.177   0.977 -0.42 +0.00    +0.000    16.207
ATOM     27  C   UNL     1      16.109 -12.947  -0.137 -0.49 +0.00    +0.000    16.207
ATOM     28  C   UNL     1      14.748 -13.053  -0.501 -0.40 +0.00    +0.000    16.207
ATOM     29  C   UNL     1      13.757 -12.392   0.248 -0.31 +0.00    +0.000    16.207
ATOM     30  C   UNL     1      13.755  -9.546   4.245 -0.38 +0.00    +0.000    16.207
ATOM     31  H   UNL     1      12.401 -10.863   2.163 -0.02 +0.00    +0.000    16.207
TER
ENDMDL
MODEL       96
USER    Run = 96
USER    Cluster Rank = 5
USER    Number of conformations in this cluster = 7
USER  
USER    RMSD from reference structure       = 19.077 A
USER  
USER    Estimated Free Energy of Binding    =  -10.35 kcal/mol  [=(1)+(2)+(3)-(4)]
USER    Estimated Inhibition Constant, Ki   =   25.90 nM (nanomolar)  [Temperature = 298.15 K]
USER    
USER    (1) Final Intermolecular Energy     =  -12.74 kcal/mol
USER        vdW + Hbond + desolv Energy     =  -12.74 kcal/mol
USER        Electrostatic Energy            =   +0.00 kcal/mol
USER    (2) Final Total Internal Energy     =   -1.75 kcal/mol
USER    (3) Torsional Free Energy           =   +2.39 kcal/mol
USER    (4) Unbound System's Energy  [=(2)] =   -1.75 kcal/mol
USER    
USER    
USER  
USER    DPF = ligand_dock.biased.dpf
USER    NEWDPF move	ligand.pdbqt
USER    NEWDPF about	0.698000 0.076000 -0.072000
USER    NEWDPF tran0	21.630483 -6.285694 -5.373251
USER    NEWDPF axisangle0	-0.576131 -0.770362 0.273158 -131.176969
USER    NEWDPF quaternion0	-0.524626 -0.701492 0.248738 -0.413287
USER    NEWDPF dihe0	19.81 23.54 179.09 -166.49 -20.26 -64.47 8.87 -98.50 
USER  
USER                              x       y       z    vdW   Elec        q     RMS 
ATOM      1  N   UNL     1      22.235  -7.050  -6.017 -0.15 -0.00    +0.000    19.077
ATOM      2  H   UNL     1      22.951  -7.135  -5.295 -0.02 -0.00    +0.000    19.077
ATOM      3  H   UNL     1      22.418  -6.254  -6.628 -0.00 -0.00    +0.000    19.077
ATOM      4  C   UNL     1      20.934  -6.832  -5.371 -0.16 -0.00    +0.000    19.077
ATOM      5  C   UNL     1      21.014  -8.753  -1.496 -0.49 -0.00    +0.000    19.077
ATOM      6  C   UNL     1      21.391  -7.403  -1.635 -0.35 -0.00    +0.000    19.077
ATOM      7  C   UNL     1      21.359  -6.783  -2.888 -0.37 -0.00    +0.000    19.077
ATOM      8  C   UNL     1      20.930  -7.491  -4.021 -0.28 -0.00    +0.000    19.077
ATOM      9  C   UNL     1      20.551  -8.836  -3.887 -0.32 -0.00    +0.000    19.077
ATOM     10  C   UNL     1      20.581  -9.455  -2.634 -0.44 -0.00    +0.000    19.077
ATOM     11  C   UNL     1      20.269 -10.536   0.078 -0.64 -0.00    +0.000    19.077
ATOM     12  C   UNL     1      21.018  -9.455  -0.189 -0.64 -0.00    +0.000    19.077
ATOM     13  O   UNL     1      20.227 -12.489   1.392 -1.54 -0.00    +0.000    19.077
ATOM     14  C   UNL     1      20.274 -11.231   1.382 -0.74 -0.00    +0.000    19.077
ATOM     15  N   UNL     1      20.305 -10.522   2.630 -0.64 -0.00    +0.000    19.077
ATOM     16  H   UNL     1      20.244  -9.540   2.638 -0.53 -0.00    +0.000    19.077
ATOM     17  O   UNL     1      20.416 -11.203   3.796 -0.81 -0.00    +0.000    19.077
ATOM     18  H   UNL     1      20.771 -12.089   3.621 -0.52 -0.00    +0.000    19.077
ATOM     19  C   UNL     1      22.250  -8.267  -6.844 -0.18 -0.00    +0.000    19.077
ATOM     20  C   UNL     1      23.584  -9.026  -6.747 -0.19 -0.00    +0.000    19.077
ATOM     21  C   UNL     1      23.425 -10.426  -7.265 -0.30 -0.00    +0.000    19.077
ATOM     22  C   UNL     1      22.794 -11.501  -6.635 -0.42 -0.00    +0.000    19.077
ATOM     23  N   UNL     1      22.909 -12.626  -7.377 -0.30 -0.00    +0.000    19.077
ATOM     24  C   UNL     1      23.626 -12.280  -8.460 -0.41 -0.00    +0.000    19.077
ATOM     25  C   UNL     1      23.965 -10.950  -8.425 -0.30 -0.00    +0.000    19.077
ATOM     26  C   UNL     1      24.734 -10.361  -9.429 -0.17 -0.00    +0.000    19.077
ATOM     27  C   UNL     1      25.151 -11.175 -10.499 -0.16 -0.00    +0.000    19.077
ATOM     28  C   UNL     1      24.798 -12.542 -10.538 -0.24 -0.00    +0.000    19.077
ATOM     29  C   UNL     1      24.026 -13.109  -9.508 -0.36 -0.00    +0.000    19.077
ATOM     30  C   UNL     1      22.058 -11.439  -5.334 -0.53 -0.00    +0.000    19.077
ATOM     31  H   UNL     1      22.541 -13.515  -7.167 -0.52 -0.00    +0.000    19.077
TER
ENDMDL
MODEL       56
USER    Run = 56
USER    Cluster Rank = 6
USER    Number of conformations in this cluster = 1
USER  
USER    RMSD from reference structure       = 12.620 A
USER  
USER    Estimated Free Energy of Binding    =  -10.21 kcal/mol  [=(1)+(2)+(3)-(4)]
USER    Estimated Inhibition Constant, Ki   =   32.75 nM (nanomolar)  [Temperature = 298.15 K]
USER    
USER    (1) Final Intermolecular Energy     =  -12.60 kcal/mol
USER        vdW + Hbond + desolv Energy     =  -12.60 kcal/mol
USER        Electrostatic Energy            =   +0.00 kcal/mol
USER    (2) Final Total Internal Energy     =   -1.69 kcal/mol
USER    (3) Torsional Free Energy           =   +2.39 kcal/mol
USER    (4) Unbound System's Energy  [=(2)] =   -1.69 kcal/mol
USER    
USER    
USER  
USER    DPF = ligand_dock.biased.dpf
USER    NEWDPF move	ligand.pdbqt
USER    NEWDPF about	0.698000 0.076000 -0.072000
USER    NEWDPF tran0	12.793553 -8.799493 5.733977
USER    NEWDPF axisangle0	0.533760 -0.837560 -0.116589 -109.093642
USER    NEWDPF quaternion0	0.434796 -0.682268 -0.094972 -0.580037
USER    NEWDPF dihe0	-27.37 29.74 98.97 -13.36 -116.50 142.24 -71.86 -98.63 
USER  
USER                              x       y       z    vdW   Elec        q     RMS 
ATOM      1  N   UNL     1      12.665  -7.669   5.468 -0.33 +0.00    +0.000    12.620
ATOM      2  H   UNL     1      13.642  -7.477   5.692 -0.02 +0.00    +0.000    12.620
ATOM      3  H   UNL     1      12.080  -7.632   6.302 +0.00 +0.00    +0.000    12.620
ATOM      4  C   UNL     1      12.566  -9.024   4.908 -0.32 +0.00    +0.000    12.620
ATOM      5  C   UNL     1      16.228  -9.961   2.805 -0.39 +0.00    +0.000    12.620
ATOM      6  C   UNL     1      16.146  -8.821   3.629 -0.27 +0.00    +0.000    12.620
ATOM      7  C   UNL     1      14.963  -8.525   4.313 -0.33 +0.00    +0.000    12.620
ATOM      8  C   UNL     1      13.848  -9.368   4.203 -0.33 +0.00    +0.000    12.620
ATOM      9  C   UNL     1      13.925 -10.506   3.385 -0.30 +0.00    +0.000    12.620
ATOM     10  C   UNL     1      15.109 -10.804   2.703 -0.41 +0.00    +0.000    12.620
ATOM     11  C   UNL     1      18.535 -10.891   2.646 -0.60 -0.00    +0.000    12.620
ATOM     12  C   UNL     1      17.462 -10.329   2.068 -0.47 -0.00    +0.000    12.620
ATOM     13  O   UNL     1      20.276 -12.384   2.118 -1.64 -0.00    +0.000    12.620
ATOM     14  C   UNL     1      19.763 -11.253   1.908 -0.72 -0.00    +0.000    12.620
ATOM     15  N   UNL     1      20.399 -10.356   0.988 -0.60 -0.00    +0.000    12.620
ATOM     16  H   UNL     1      20.064  -9.436   0.888 -0.18 -0.00    +0.000    12.620
ATOM     17  O   UNL     1      21.462 -10.771   0.257 -0.76 -0.00    +0.000    12.620
ATOM     18  H   UNL     1      21.928 -11.475   0.734 -0.47 -0.00    +0.000    12.620
ATOM     19  C   UNL     1      12.183  -6.644   4.530 -0.21 +0.00    +0.000    12.620
ATOM     20  C   UNL     1      10.677  -6.773   4.243 -0.14 +0.00    +0.000    12.620
ATOM     21  C   UNL     1       9.882  -6.451   5.476 -0.21 +0.00    +0.000    12.620
ATOM     22  C   UNL     1       9.587  -5.188   5.994 -0.32 +0.00    +0.000    12.620
ATOM     23  N   UNL     1       8.905  -5.296   7.158 -0.48 +0.00    +0.000    12.620
ATOM     24  C   UNL     1       8.786  -6.613   7.394 -0.38 +0.00    +0.000    12.620
ATOM     25  C   UNL     1       9.374  -7.350   6.396 -0.27 +0.00    +0.000    12.620
ATOM     26  C   UNL     1       9.402  -8.744   6.432 -0.39 +0.00    +0.000    12.620
ATOM     27  C   UNL     1       8.796  -9.386   7.527 -0.48 +0.00    +0.000    12.620
ATOM     28  C   UNL     1       8.187  -8.628   8.552 -0.59 +0.00    +0.000    12.620
ATOM     29  C   UNL     1       8.179  -7.222   8.491 -0.58 +0.00    +0.000    12.620
ATOM     30  C   UNL     1       9.936  -3.881   5.357 -0.38 +0.00    +0.000    12.620
ATOM     31  H   UNL     1       8.566  -4.559   7.716 -0.06 +0.00    +0.000    12.620
TER
ENDMDL
MODEL       16
USER    Run = 16
USER    Cluster Rank = 7
USER    Number of conformations in this cluster = 1
USER  
USER    RMSD from reference structure       = 13.817 A
USER  
USER    Estimated Free Energy of Binding    =  -10.07 kcal/mol  [=(1)+(2)+(3)-(4)]
USER    Estimated Inhibition Constant, Ki   =   41.68 nM (nanomolar)  [Temperature = 298.15 K]
USER    
USER    (1) Final Intermolecular Energy     =  -12.45 kcal/mol
USER        vdW + Hbond + desolv Energy     =  -12.45 kcal/mol
USER        Electrostatic Energy            =   +0.00 kcal/mol
USER    (2) Final Total Internal Energy     =   -1.41 kcal/mol
USER    (3) Torsional Free Energy           =   +2.39 kcal/mol
USER    (4) Unbound System's Energy  [=(2)] =   -1.41 kcal/mol
USER    
USER    
USER  
USER    DPF = ligand_dock.biased.dpf
USER    NEWDPF move	ligand.pdbqt
USER    NEWDPF about	0.698000 0.076000 -0.072000
USER    NEWDPF tran0	16.124127 -9.083146 3.485111
USER    NEWDPF axisangle0	0.302324 0.851492 -0.428441 109.979264
USER    NEWDPF quaternion0	0.247618 0.697413 -0.350914 0.573725
USER    NEWDPF dihe0	16.32 153.86 85.37 24.97 89.18 4.07 -73.04 42.45 
USER  
USER                              x       y       z    vdW   Elec        q     RMS 
ATOM      1  N   UNL     1      16.531  -9.413   2.441 -0.39 +0.00    +0.000    13.817
ATOM      2  H   UNL     1      17.496  -9.289   2.747 -0.04 -0.00    +0.000    13.817
ATOM      3  H   UNL     1      16.132  -8.536   2.108 -0.03 +0.00    +0.000    13.817
ATOM      4  C   UNL     1      15.728  -9.868   3.583 -0.47 +0.00    +0.000    13.817
ATOM      5  C   UNL     1      13.039  -6.700   4.783 -0.25 +0.00    +0.000    13.817
ATOM      6  C   UNL     1      13.773  -6.602   3.584 -0.20 +0.00    +0.000    13.817
ATOM      7  C   UNL     1      14.636  -7.631   3.196 -0.28 +0.00    +0.000    13.817
ATOM      8  C   UNL     1      14.769  -8.783   3.985 -0.34 +0.00    +0.000    13.817
ATOM      9  C   UNL     1      14.038  -8.886   5.178 -0.42 +0.00    +0.000    13.817
ATOM     10  C   UNL     1      13.172  -7.859   5.565 -0.35 +0.00    +0.000    13.817
ATOM     11  C   UNL     1      10.999  -5.285   4.555 -0.21 +0.00    +0.000    13.817
ATOM     12  C   UNL     1      12.099  -5.643   5.234 -0.27 +0.00    +0.000    13.817
ATOM     13  O   UNL     1      10.204  -3.770   6.170 -1.00 +0.00    +0.000    13.817
ATOM     14  C   UNL     1      10.067  -4.231   5.007 -0.35 +0.00    +0.000    13.817
ATOM     15  N   UNL     1       9.004  -3.739   4.179 -0.29 +0.00    +0.000    13.817
ATOM     16  H   UNL     1       8.827  -4.158   3.307 -0.00 +0.00    +0.000    13.817
ATOM     17  O   UNL     1       8.243  -2.699   4.597 -0.52 +0.00    +0.000    13.817
ATOM     18  H   UNL     1       8.690  -2.243   5.327 -0.47 +0.00    +0.000    13.817
ATOM     19  C   UNL     1      16.507 -10.373   1.326 -0.37 +0.00    +0.000    13.817
ATOM     20  C   UNL     1      17.337 -11.634   1.620 -0.46 +0.00    +0.000    13.817
ATOM     21  C   UNL     1      18.771 -11.415   1.231 -0.52 -0.00    +0.000    13.817
ATOM     22  C   UNL     1      19.889 -11.414   2.068 -0.66 -0.00    +0.000    13.817
ATOM     23  N   UNL     1      21.009 -11.114   1.369 -0.63 -0.00    +0.000    13.817
ATOM     24  C   UNL     1      20.608 -10.904   0.104 -0.60 -0.00    +0.000    13.817
ATOM     25  C   UNL     1      19.251 -11.071  -0.019 -0.49 -0.00    +0.000    13.817
ATOM     26  C   UNL     1      18.595 -10.880  -1.235 -0.37 -0.00    +0.000    13.817
ATOM     27  C   UNL     1      19.371 -10.516  -2.351 -0.38 -0.00    +0.000    13.817
ATOM     28  C   UNL     1      20.768 -10.349  -2.225 -0.50 -0.00    +0.000    13.817
ATOM     29  C   UNL     1      21.402 -10.543  -0.984 -0.59 -0.00    +0.000    13.817
ATOM     30  C   UNL     1      19.885 -11.726   3.530 -0.72 -0.00    +0.000    13.817
ATOM     31  H   UNL     1      21.929 -11.062   1.717 -0.28 -0.00    +0.000    13.817
TER
ENDMDL
MODEL       25
USER    Run = 25
USER    Cluster Rank = 8
USER    Number of conformations in this cluster = 3
USER  
USER    RMSD from reference structure       = 18.384 A
USER  
USER    Estimated Free Energy of Binding    =  -10.01 kcal/mol  [=(1)+(2)+(3)-(4)]
USER    Estimated Inhibition Constant, Ki   =   46.08 nM (nanomolar)  [Temperature = 298.15 K]
USER    
USER    (1) Final Intermolecular Energy     =  -12.40 kcal/mol
USER        vdW + Hbond + desolv Energy     =  -12.40 kcal/mol
USER        Electrostatic Energy            =   +0.00 kcal/mol
USER    (2) Final Total Internal Energy     =   -0.93 kcal/mol
USER    (3) Torsional Free Energy           =   +2.39 kcal/mol
USER    (4) Unbound System's Energy  [=(2)] =   -0.93 kcal/mol
USER    
USER    
USER  
USER    DPF = ligand_dock.biased.dpf
USER    NEWDPF move	ligand.pdbqt
USER    NEWDPF about	0.698000 0.076000 -0.072000
USER    NEWDPF tran0	21.634016 -9.687395 -2.354483
USER    NEWDPF axisangle0	0.809618 -0.090637 -0.579917 -170.785275
USER    NEWDPF quaternion0	0.807001 -0.090344 -0.578043 -0.080327
USER    NEWDPF dihe0	-165.44 -179.81 -47.12 -175.73 19.68 -151.02 -47.59 15.50 
USER  
USER                              x       y       z    vdW   Elec        q     RMS 
ATOM      1  N   UNL     1      21.508 -10.004  -1.237 -0.61 -0.00    +0.000    18.384
ATOM      2  H   UNL     1      22.485  -9.789  -1.037 -0.01 -0.00    +0.000    18.384
ATOM      3  H   UNL     1      21.405 -10.948  -1.610 -0.05 -0.00    +0.000    18.384
ATOM      4  C   UNL     1      21.015  -9.063  -2.251 -0.53 -0.00    +0.000    18.384
ATOM      5  C   UNL     1      22.126 -10.534  -6.164 -0.36 -0.00    +0.000    18.384
ATOM      6  C   UNL     1      21.776 -11.430  -5.134 -0.49 -0.00    +0.000    18.384
ATOM      7  C   UNL     1      21.412 -10.951  -3.872 -0.40 -0.00    +0.000    18.384
ATOM      8  C   UNL     1      21.370  -9.572  -3.620 -0.41 -0.00    +0.000    18.384
ATOM      9  C   UNL     1      21.715  -8.676  -4.644 -0.27 -0.00    +0.000    18.384
ATOM     10  C   UNL     1      22.077  -9.154  -5.906 -0.25 -0.00    +0.000    18.384
ATOM     11  C   UNL     1      23.653 -11.632  -7.800 -0.48 -0.00    +0.000    18.384
ATOM     12  C   UNL     1      22.509 -10.989  -7.525 -0.38 -0.00    +0.000    18.384
ATOM     13  O   UNL     1      23.417 -11.592 -10.142 -0.21 -0.00    +0.000    18.384
ATOM     14  C   UNL     1      24.031 -12.080  -9.157 -0.39 -0.00    +0.000    18.384
ATOM     15  N   UNL     1      25.049 -13.065  -9.385 -0.40 -0.00    +0.000    18.384
ATOM     16  H   UNL     1      25.468 -13.523  -8.622 -0.16 -0.00    +0.000    18.384
ATOM     17  O   UNL     1      25.433 -13.365 -10.649 -0.29 -0.00    +0.000    18.384
ATOM     18  H   UNL     1      25.944 -14.190 -10.645 -0.58 -0.00    +0.000    18.384
ATOM     19  C   UNL     1      20.740  -9.926   0.015 -0.66 -0.00    +0.000    18.384
ATOM     20  C   UNL     1      20.317 -11.312   0.531 -0.67 -0.00    +0.000    18.384
ATOM     21  C   UNL     1      19.112 -11.192   1.419 -0.55 -0.00    +0.000    18.384
ATOM     22  C   UNL     1      19.086 -10.885   2.781 -0.58 -0.00    +0.000    18.384
ATOM     23  N   UNL     1      17.821 -10.934   3.259 -0.48 +0.00    +0.000    18.384
ATOM     24  C   UNL     1      17.049 -11.291   2.218 -0.38 +0.00    +0.000    18.384
ATOM     25  C   UNL     1      17.800 -11.465   1.082 -0.44 -0.00    +0.000    18.384
ATOM     26  C   UNL     1      17.224 -11.864  -0.125 -0.42 +0.00    +0.000    18.384
ATOM     27  C   UNL     1      15.833 -12.078  -0.150 -0.42 +0.00    +0.000    18.384
ATOM     28  C   UNL     1      15.060 -11.894   1.018 -0.42 +0.00    +0.000    18.384
ATOM     29  C   UNL     1      15.670 -11.497   2.222 -0.43 +0.00    +0.000    18.384
ATOM     30  C   UNL     1      20.272 -10.518   3.616 -0.67 -0.00    +0.000    18.384
ATOM     31  H   UNL     1      17.527 -10.745   4.179 -0.01 +0.00    +0.000    18.384
TER
ENDMDL
MODEL       35
USER    Run = 35
USER    Cluster Rank = 9
USER    Number of conformations in this cluster = 10
USER  
USER    RMSD from reference structure       = 16.174 A
USER  
USER    Estimated Free Energy of Binding    =   -9.89 kcal/mol  [=(1)+(2)+(3)-(4)]
USER    Estimated Inhibition Constant, Ki   =   56.28 nM (nanomolar)  [Temperature = 298.15 K]
USER    
USER    (1) Final Intermolecular Energy     =  -12.28 kcal/mol
USER        vdW + Hbond + desolv Energy     =  -12.28 kcal/mol
USER        Electrostatic Energy            =   +0.00 kcal/mol
USER    (2) Final Total Internal Energy     =   -2.28 kcal/mol
USER    (3) Torsional Free Energy           =   +2.39 kcal/mol
USER    (4) Unbound System's Energy  [=(2)] =   -2.28 kcal/mol
USER    
USER    
USER  
USER    DPF = ligand_dock.biased.dpf
USER    NEWDPF move	ligand.pdbqt
USER    NEWDPF about	0.698000 0.076000 -0.072000
USER    NEWDPF tran0	19.796804 -9.683972 -6.103211
USER    NEWDPF axisangle0	-0.563607 0.234618 -0.792023 83.500487
USER    NEWDPF quaternion0	-0.375298 0.156228 -0.527396 0.746055
USER    NEWDPF dihe0	8.74 -8.64 -134.26 149.64 80.92 -108.62 153.09 61.32 
USER  
USER                              x       y       z    vdW   Elec        q     RMS 
ATOM      1  N   UNL     1      18.848 -10.088  -6.652 -0.22 -0.00    +0.000    16.174
ATOM      2  H   UNL     1      18.908  -9.352  -7.356 +0.00 -0.00    +0.000    16.174
ATOM      3  H   UNL     1      18.344  -9.768  -5.825 +0.00 -0.00    +0.000    16.174
ATOM      4  C   UNL     1      20.207 -10.457  -6.236 -0.33 -0.00    +0.000    16.174
ATOM      5  C   UNL     1      20.507 -10.528  -1.921 -0.48 -0.00    +0.000    16.174
ATOM      6  C   UNL     1      21.382  -9.734  -2.688 -0.47 -0.00    +0.000    16.174
ATOM      7  C   UNL     1      21.279  -9.708  -4.082 -0.39 -0.00    +0.000    16.174
ATOM      8  C   UNL     1      20.289 -10.457  -4.735 -0.38 -0.00    +0.000    16.174
ATOM      9  C   UNL     1      19.413 -11.248  -3.976 -0.38 -0.00    +0.000    16.174
ATOM     10  C   UNL     1      19.515 -11.272  -2.582 -0.27 -0.00    +0.000    16.174
ATOM     11  C   UNL     1      20.092 -11.606   0.287 -0.51 -0.00    +0.000    16.174
ATOM     12  C   UNL     1      20.564 -10.582  -0.439 -0.65 -0.00    +0.000    16.174
ATOM     13  O   UNL     1      19.808 -12.719   2.342 -1.40 -0.00    +0.000    16.174
ATOM     14  C   UNL     1      20.149 -11.654   1.763 -0.77 -0.00    +0.000    16.174
ATOM     15  N   UNL     1      20.552 -10.527   2.553 -0.61 -0.00    +0.000    16.174
ATOM     16  H   UNL     1      20.727  -9.661   2.120 -0.54 -0.00    +0.000    16.174
ATOM     17  O   UNL     1      20.691 -10.652   3.895 -0.80 -0.00    +0.000    16.174
ATOM     18  H   UNL     1      20.618 -11.586   4.143 -0.40 -0.00    +0.000    16.174
ATOM     19  C   UNL     1      18.111 -11.228  -7.218 -0.36 -0.00    +0.000    16.174
ATOM     20  C   UNL     1      16.644 -10.883  -7.527 -0.29 -0.00    +0.000    16.174
ATOM     21  C   UNL     1      15.761 -11.289  -6.382 -0.26 -0.00    +0.000    16.174
ATOM     22  C   UNL     1      14.715 -12.214  -6.400 -0.29 -0.00    +0.000    16.174
ATOM     23  N   UNL     1      14.102 -12.267  -5.195 -0.22 -0.00    +0.000    16.174
ATOM     24  C   UNL     1      14.735 -11.368  -4.422 -0.23 -0.00    +0.000    16.174
ATOM     25  C   UNL     1      15.746 -10.747  -5.111 -0.22 -0.00    +0.000    16.174
ATOM     26  C   UNL     1      16.530  -9.753  -4.525 -0.19 -0.00    +0.000    16.174
ATOM     27  C   UNL     1      16.261  -9.405  -3.189 -0.18 -0.00    +0.000    16.174
ATOM     28  C   UNL     1      15.223 -10.048  -2.478 -0.24 -0.00    +0.000    16.174
ATOM     29  C   UNL     1      14.445 -11.043  -3.097 -0.28 -0.00    +0.000    16.174
ATOM     30  C   UNL     1      14.324 -13.066  -7.566 -0.42 -0.00    +0.000    16.174
ATOM     31  H   UNL     1      13.349 -12.847  -4.938 -0.51 -0.00    +0.000    16.174
TER
ENDMDL
MODEL       63
USER    Run = 63
USER    Cluster Rank = 10
USER    Number of conformations in this cluster = 1
USER  
USER    RMSD from reference structure       = 19.245 A
USER  
USER    Estimated Free Energy of Binding    =   -9.84 kcal/mol  [=(1)+(2)+(3)-(4)]
USER    Estimated Inhibition Constant, Ki   =   61.78 nM (nanomolar)  [Temperature = 298.15 K]
USER    
USER    (1) Final Intermolecular Energy     =  -12.22 kcal/mol
USER        vdW + Hbond + desolv Energy     =  -12.22 kcal/mol
USER        Electrostatic Energy            =   +0.00 kcal/mol
USER    (2) Final Total Internal Energy     =   -1.19 kcal/mol
USER    (3) Torsional Free Energy           =   +2.39 kcal/mol
USER    (4) Unbound System's Energy  [=(2)] =   -1.19 kcal/mol
USER    
USER    
USER  
USER    DPF = ligand_dock.biased.dpf
USER    NEWDPF move	ligand.pdbqt
USER    NEWDPF about	0.698000 0.076000 -0.072000
USER    NEWDPF tran0	21.775048 -8.678151 -4.596463
USER    NEWDPF axisangle0	0.825075 0.211339 -0.524011 -118.343854
USER    NEWDPF quaternion0	0.708499 0.181478 -0.449973 -0.512464
USER    NEWDPF dihe0	176.16 -35.01 -79.93 -35.17 39.41 178.57 178.34 35.53 
USER  
USER                              x       y       z    vdW   Elec        q     RMS 
ATOM      1  N   UNL     1      21.768  -8.508  -3.441 -0.37 -0.00    +0.000    19.245
ATOM      2  H   UNL     1      22.103  -7.550  -3.552 -0.03 -0.00    +0.000    19.245
ATOM      3  H   UNL     1      22.542  -9.172  -3.429 -0.02 -0.00    +0.000    19.245
ATOM      4  C   UNL     1      20.905  -8.843  -4.581 -0.32 -0.00    +0.000    19.245
ATOM      5  C   UNL     1      22.969 -11.454  -7.345 -0.42 -0.00    +0.000    19.245
ATOM      6  C   UNL     1      22.884 -10.069  -7.593 -0.25 -0.00    +0.000    19.245
ATOM      7  C   UNL     1      22.222  -9.227  -6.695 -0.22 -0.00    +0.000    19.245
ATOM      8  C   UNL     1      21.650  -9.746  -5.524 -0.31 -0.00    +0.000    19.245
ATOM      9  C   UNL     1      21.734 -11.123  -5.271 -0.48 -0.00    +0.000    19.245
ATOM     10  C   UNL     1      22.398 -11.965  -6.168 -0.36 -0.00    +0.000    19.245
ATOM     11  C   UNL     1      23.040 -13.201  -9.121 -0.34 -0.00    +0.000    19.245
ATOM     12  C   UNL     1      23.671 -12.390  -8.258 -0.48 -0.00    +0.000    19.245
ATOM     13  O   UNL     1      23.093 -15.089 -10.525 -0.64 +0.00    +0.000    19.245
ATOM     14  C   UNL     1      23.743 -14.133 -10.027 -0.38 -0.00    +0.000    19.245
ATOM     15  N   UNL     1      25.138 -14.001 -10.333 -0.37 -0.00    +0.000    19.245
ATOM     16  H   UNL     1      25.679 -13.318  -9.875 -0.48 -0.00    +0.000    19.245
ATOM     17  O   UNL     1      25.713 -14.815 -11.251 -0.35 -0.00    +0.000    19.245
ATOM     18  H   UNL     1      26.638 -14.555 -11.381 -0.56 -0.00    +0.000    19.245
ATOM     19  C   UNL     1      21.059  -8.616  -2.156 -0.51 -0.00    +0.000    19.245
ATOM     20  C   UNL     1      21.399  -9.916  -1.407 -0.63 -0.00    +0.000    19.245
ATOM     21  C   UNL     1      20.154 -10.528  -0.833 -0.52 -0.00    +0.000    19.245
ATOM     22  C   UNL     1      18.995 -10.899  -1.518 -0.40 -0.00    +0.000    19.245
ATOM     23  N   UNL     1      18.055 -11.354  -0.657 -0.40 -0.00    +0.000    19.245
ATOM     24  C   UNL     1      18.600 -11.254   0.567 -0.47 -0.00    +0.000    19.245
ATOM     25  C   UNL     1      19.874 -10.748   0.502 -0.56 -0.00    +0.000    19.245
ATOM     26  C   UNL     1      20.636 -10.527   1.650 -0.50 -0.00    +0.000    19.245
ATOM     27  C   UNL     1      20.060 -10.848   2.893 -0.65 -0.00    +0.000    19.245
ATOM     28  C   UNL     1      18.750 -11.373   2.960 -0.42 -0.00    +0.000    19.245
ATOM     29  C   UNL     1      18.004 -11.580   1.785 -0.43 -0.00    +0.000    19.245
ATOM     30  C   UNL     1      18.800 -10.841  -3.000 -0.33 -0.00    +0.000    19.245
ATOM     31  H   UNL     1      17.157 -11.691  -0.883 -0.01 -0.00    +0.000    19.245
TER
ENDMDL
MODEL       27
USER    Run = 27
USER    Cluster Rank = 11
USER    Number of conformations in this cluster = 3
USER  
USER    RMSD from reference structure       = 17.199 A
USER  
USER    Estimated Free Energy of Binding    =   -9.75 kcal/mol  [=(1)+(2)+(3)-(4)]
USER    Estimated Inhibition Constant, Ki   =   71.67 nM (nanomolar)  [Temperature = 298.15 K]
USER    
USER    (1) Final Intermolecular Energy     =  -12.13 kcal/mol
USER        vdW + Hbond + desolv Energy     =  -12.13 kcal/mol
USER        Electrostatic Energy            =   +0.00 kcal/mol
USER    (2) Final Total Internal Energy     =   -1.69 kcal/mol
USER    (3) Torsional Free Energy           =   +2.39 kcal/mol
USER    (4) Unbound System's Energy  [=(2)] =   -1.69 kcal/mol
USER    
USER    
USER  
USER    DPF = ligand_dock.biased.dpf
USER    NEWDPF move	ligand.pdbqt
USER    NEWDPF about	0.698000 0.076000 -0.072000
USER    NEWDPF tran0	18.384972 -9.904357 -0.920655
USER    NEWDPF axisangle0	-0.324490 -0.236325 -0.915891 94.682943
USER    NEWDPF quaternion0	-0.238632 -0.173795 -0.673551 0.677628
USER    NEWDPF dihe0	-0.41 -67.07 -92.49 156.45 -166.50 142.88 -75.85 -103.36 
USER  
USER                              x       y       z    vdW   Elec        q     RMS 
ATOM      1  N   UNL     1      17.747 -10.882  -0.874 -0.35 -0.00    +0.000    17.199
ATOM      2  H   UNL     1      17.373 -10.716  -1.808 -0.01 -0.00    +0.000    17.199
ATOM      3  H   UNL     1      17.206 -10.388  -0.165 -0.01 -0.00    +0.000    17.199
ATOM      4  C   UNL     1      19.126 -10.378  -0.820 -0.32 -0.00    +0.000    17.199
ATOM      5  C   UNL     1      21.039 -11.050  -4.641 -0.47 -0.00    +0.000    17.199
ATOM      6  C   UNL     1      19.663 -11.307  -4.473 -0.43 -0.00    +0.000    17.199
ATOM      7  C   UNL     1      19.047 -11.082  -3.238 -0.24 -0.00    +0.000    17.199
ATOM      8  C   UNL     1      19.785 -10.580  -2.156 -0.42 -0.00    +0.000    17.199
ATOM      9  C   UNL     1      21.154 -10.321  -2.320 -0.51 -0.00    +0.000    17.199
ATOM     10  C   UNL     1      21.770 -10.543  -3.555 -0.39 -0.00    +0.000    17.199
ATOM     11  C   UNL     1      22.708 -12.169  -6.116 -0.48 -0.00    +0.000    17.199
ATOM     12  C   UNL     1      21.740 -11.259  -5.933 -0.50 -0.00    +0.000    17.199
ATOM     13  O   UNL     1      24.664 -12.375  -7.409 -0.95 +0.00    +0.000    17.199
ATOM     14  C   UNL     1      23.405 -12.371  -7.403 -0.48 -0.00    +0.000    17.199
ATOM     15  N   UNL     1      22.699 -12.536  -8.641 -0.32 -0.00    +0.000    17.199
ATOM     16  H   UNL     1      21.720 -12.438  -8.665 -0.58 -0.00    +0.000    17.199
ATOM     17  O   UNL     1      23.378 -12.824  -9.778 -0.39 -0.00    +0.000    17.199
ATOM     18  H   UNL     1      24.326 -12.879  -9.584 -0.02 -0.00    +0.000    17.199
ATOM     19  C   UNL     1      17.670 -12.322  -0.581 -0.34 -0.00    +0.000    17.199
ATOM     20  C   UNL     1      18.070 -12.648   0.868 -0.40 -0.00    +0.000    17.199
ATOM     21  C   UNL     1      18.025 -11.408   1.713 -0.45 -0.00    +0.000    17.199
ATOM     22  C   UNL     1      19.103 -10.733   2.291 -0.56 -0.00    +0.000    17.199
ATOM     23  N   UNL     1      18.669  -9.693   3.041 -0.44 -0.00    +0.000    17.199
ATOM     24  C   UNL     1      17.327  -9.718   2.962 -0.33 +0.00    +0.000    17.199
ATOM     25  C   UNL     1      16.897 -10.752   2.168 -0.41 +0.00    +0.000    17.199
ATOM     26  C   UNL     1      15.541 -10.999   1.955 -0.37 +0.00    +0.000    17.199
ATOM     27  C   UNL     1      14.612 -10.144   2.576 -0.32 +0.00    +0.000    17.199
ATOM     28  C   UNL     1      15.054  -9.077   3.389 -0.34 +0.00    +0.000    17.199
ATOM     29  C   UNL     1      16.429  -8.856   3.591 -0.12 +0.00    +0.000    17.199
ATOM     30  C   UNL     1      20.547 -11.069   2.100 -0.71 -0.00    +0.000    17.199
ATOM     31  H   UNL     1      19.223  -9.051   3.542 -0.49 -0.00    +0.000    17.199
TER
ENDMDL
MODEL       31
USER    Run = 31
USER    Cluster Rank = 12
USER    Number of conformations in this cluster = 2
USER  
USER    RMSD from reference structure       = 14.007 A
USER  
USER    Estimated Free Energy of Binding    =   -9.69 kcal/mol  [=(1)+(2)+(3)-(4)]
USER    Estimated Inhibition Constant, Ki   =   79.12 nM (nanomolar)  [Temperature = 298.15 K]
USER    
USER    (1) Final Intermolecular Energy     =  -12.07 kcal/mol
USER        vdW + Hbond + desolv Energy     =  -12.07 kcal/mol
USER        Electrostatic Energy            =   +0.00 kcal/mol
USER    (2) Final Total Internal Energy     =   -2.98 kcal/mol
USER    (3) Torsional Free Energy           =   +2.39 kcal/mol
USER    (4) Unbound System's Energy  [=(2)] =   -2.98 kcal/mol
USER    
USER    
USER  
USER    DPF = ligand_dock.biased.dpf
USER    NEWDPF move	ligand.pdbqt
USER    NEWDPF about	0.698000 0.076000 -0.072000
USER    NEWDPF tran0	13.292218 -9.736728 -3.905069
USER    NEWDPF axisangle0	0.272284 0.866554 0.418265 -70.741019
USER    NEWDPF quaternion0	0.157615 0.501615 0.242117 -0.815426
USER    NEWDPF dihe0	-8.13 -162.34 -146.33 -136.13 28.29 179.18 1.38 136.04 
USER  
USER                              x       y       z    vdW   Elec        q     RMS 
ATOM      1  N   UNL     1      12.575  -9.801  -2.985 -0.20 -0.00    +0.000    14.007
ATOM      2  H   UNL     1      11.764  -9.925  -3.591 -0.02 -0.00    +0.000    14.007
ATOM      3  H   UNL     1      12.796  -8.814  -2.858 +0.00 -0.00    +0.000    14.007
ATOM      4  C   UNL     1      13.737 -10.444  -3.613 -0.26 -0.00    +0.000    14.007
ATOM      5  C   UNL     1      16.547 -11.496  -0.497 -0.35 +0.00    +0.000    14.007
ATOM      6  C   UNL     1      15.469 -12.349  -0.809 -0.38 +0.00    +0.000    14.007
ATOM      7  C   UNL     1      14.566 -12.009  -1.821 -0.31 +0.00    +0.000    14.007
ATOM      8  C   UNL     1      14.732 -10.824  -2.553 -0.28 -0.00    +0.000    14.007
ATOM      9  C   UNL     1      15.805  -9.973  -2.248 -0.23 -0.00    +0.000    14.007
ATOM     10  C   UNL     1      16.709 -10.314  -1.238 -0.16 -0.00    +0.000    14.007
ATOM     11  C   UNL     1      18.443 -10.937   1.019 -0.52 -0.00    +0.000    14.007
ATOM     12  C   UNL     1      17.540 -11.815   0.558 -0.51 +0.00    +0.000    14.007
ATOM     13  O   UNL     1      19.898 -12.428   2.115 -1.68 -0.00    +0.000    14.007
ATOM     14  C   UNL     1      19.433 -11.259   2.068 -0.69 -0.00    +0.000    14.007
ATOM     15  N   UNL     1      19.859 -10.298   3.045 -0.62 -0.00    +0.000    14.007
ATOM     16  H   UNL     1      19.432  -9.412   3.079 -0.51 -0.00    +0.000    14.007
ATOM     17  O   UNL     1      20.845 -10.608   3.920 -0.74 -0.00    +0.000    14.007
ATOM     18  H   UNL     1      21.066 -11.549   3.839 -0.54 -0.00    +0.000    14.007
ATOM     19  C   UNL     1      12.271 -10.371  -1.663 -0.23 -0.00    +0.000    14.007
ATOM     20  C   UNL     1      12.759  -9.475  -0.512 -0.18 +0.00    +0.000    14.007
ATOM     21  C   UNL     1      13.162 -10.314   0.666 -0.22 +0.00    +0.000    14.007
ATOM     22  C   UNL     1      12.479 -11.405   1.208 -0.38 +0.00    +0.000    14.007
ATOM     23  N   UNL     1      13.113 -11.867   2.310 -0.28 +0.00    +0.000    14.007
ATOM     24  C   UNL     1      14.178 -11.066   2.484 -0.38 +0.00    +0.000    14.007
ATOM     25  C   UNL     1      14.238 -10.104   1.508 -0.24 +0.00    +0.000    14.007
ATOM     26  C   UNL     1      15.243  -9.136   1.491 -0.26 +0.00    +0.000    14.007
ATOM     27  C   UNL     1      16.212  -9.177   2.510 -0.31 +0.00    +0.000    14.007
ATOM     28  C   UNL     1      16.153 -10.171   3.513 -0.42 +0.00    +0.000    14.007
ATOM     29  C   UNL     1      15.124 -11.131   3.506 -0.45 +0.00    +0.000    14.007
ATOM     30  C   UNL     1      11.234 -12.019   0.652 -0.28 +0.00    +0.000    14.007
ATOM     31  H   UNL     1      12.849 -12.634   2.869 -0.45 +0.00    +0.000    14.007
TER
ENDMDL
MODEL       49
USER    Run = 49
USER    Cluster Rank = 13
USER    Number of conformations in this cluster = 4
USER  
USER    RMSD from reference structure       = 17.282 A
USER  
USER    Estimated Free Energy of Binding    =   -9.62 kcal/mol  [=(1)+(2)+(3)-(4)]
USER    Estimated Inhibition Constant, Ki   =   88.37 nM (nanomolar)  [Temperature = 298.15 K]
USER    
USER    (1) Final Intermolecular Energy     =  -12.01 kcal/mol
USER        vdW + Hbond + desolv Energy     =  -12.01 kcal/mol
USER        Electrostatic Energy            =   +0.00 kcal/mol
USER    (2) Final Total Internal Energy     =   -2.19 kcal/mol
USER    (3) Torsional Free Energy           =   +2.39 kcal/mol
USER    (4) Unbound System's Energy  [=(2)] =   -2.19 kcal/mol
USER    
USER    
USER  
USER    DPF = ligand_dock.biased.dpf
USER    NEWDPF move	ligand.pdbqt
USER    NEWDPF about	0.698000 0.076000 -0.072000
USER    NEWDPF tran0	20.966241 -7.492893 -4.796408
USER    NEWDPF axisangle0	-0.632273 0.474353 -0.612552 173.612230
USER    NEWDPF quaternion0	-0.631291 0.473617 -0.611600 0.055715
USER    NEWDPF dihe0	20.59 -177.33 175.45 156.04 -179.95 168.53 -12.05 12.26 
USER  
USER                              x       y       z    vdW   Elec        q     RMS 
ATOM      1  N   UNL     1      20.613  -7.134  -5.850 -0.11 -0.00    +0.000    17.282
ATOM      2  H   UNL     1      20.025  -6.409  -5.436 +0.00 -0.00    +0.000    17.282
ATOM      3  H   UNL     1      20.124  -8.028  -5.892 +0.01 -0.00    +0.000    17.282
ATOM      4  C   UNL     1      21.805  -7.311  -5.011 -0.23 -0.00    +0.000    17.282
ATOM      5  C   UNL     1      20.745  -9.840  -1.666 -0.53 -0.00    +0.000    17.282
ATOM      6  C   UNL     1      20.834 -10.372  -2.968 -0.47 -0.00    +0.000    17.282
ATOM      7  C   UNL     1      21.183  -9.553  -4.046 -0.38 -0.00    +0.000    17.282
ATOM      8  C   UNL     1      21.469  -8.195  -3.844 -0.31 -0.00    +0.000    17.282
ATOM      9  C   UNL     1      21.384  -7.661  -2.549 -0.41 -0.00    +0.000    17.282
ATOM     10  C   UNL     1      21.037  -8.480  -1.470 -0.45 -0.00    +0.000    17.282
ATOM     11  C   UNL     1      20.786 -10.384   0.766 -0.65 -0.00    +0.000    17.282
ATOM     12  C   UNL     1      20.391 -10.666  -0.485 -0.62 -0.00    +0.000    17.282
ATOM     13  O   UNL     1      20.050 -12.395   1.743 -1.74 -0.00    +0.000    17.282
ATOM     14  C   UNL     1      20.433 -11.212   1.938 -0.74 -0.00    +0.000    17.282
ATOM     15  N   UNL     1      20.489 -10.706   3.280 -0.68 -0.00    +0.000    17.282
ATOM     16  H   UNL     1      20.693  -9.757   3.438 -0.57 -0.00    +0.000    17.282
ATOM     17  O   UNL     1      20.259 -11.533   4.328 -0.77 -0.00    +0.000    17.282
ATOM     18  H   UNL     1      20.396 -12.452   4.052 -0.35 -0.00    +0.000    17.282
ATOM     19  C   UNL     1      20.954  -6.739  -7.226 -0.06 -0.00    +0.000    17.282
ATOM     20  C   UNL     1      21.115  -7.950  -8.160 -0.07 -0.00    +0.000    17.282
ATOM     21  C   UNL     1      20.783  -9.220  -7.430 -0.14 -0.00    +0.000    17.282
ATOM     22  C   UNL     1      21.656 -10.251  -7.076 -0.27 -0.00    +0.000    17.282
ATOM     23  N   UNL     1      20.983 -11.266  -6.487 -0.28 -0.00    +0.000    17.282
ATOM     24  C   UNL     1      19.691 -10.898  -6.485 -0.31 -0.00    +0.000    17.282
ATOM     25  C   UNL     1      19.528  -9.661  -7.057 -0.18 -0.00    +0.000    17.282
ATOM     26  C   UNL     1      18.269  -9.075  -7.194 -0.11 -0.00    +0.000    17.282
ATOM     27  C   UNL     1      17.156  -9.791  -6.716 -0.15 -0.00    +0.000    17.282
ATOM     28  C   UNL     1      17.324 -11.062  -6.122 -0.31 -0.00    +0.000    17.282
ATOM     29  C   UNL     1      18.606 -11.629  -6.003 -0.26 -0.00    +0.000    17.282
ATOM     30  C   UNL     1      23.138 -10.248  -7.280 -0.34 -0.00    +0.000    17.282
ATOM     31  H   UNL     1      21.363 -12.102  -6.132 -0.55 -0.00    +0.000    17.282
TER
ENDMDL
MODEL       83
USER    Run = 83
USER    Cluster Rank = 14
USER    Number of conformations in this cluster = 3
USER  
USER    RMSD from reference structure       = 16.552 A
USER  
USER    Estimated Free Energy of Binding    =   -9.61 kcal/mol  [=(1)+(2)+(3)-(4)]
USER    Estimated Inhibition Constant, Ki   =   90.46 nM (nanomolar)  [Temperature = 298.15 K]
USER    
USER    (1) Final Intermolecular Energy     =  -12.00 kcal/mol
USER        vdW + Hbond + desolv Energy     =  -12.00 kcal/mol
USER        Electrostatic Energy            =   +0.00 kcal/mol
USER    (2) Final Total Internal Energy     =   -2.00 kcal/mol
USER    (3) Torsional Free Energy           =   +2.39 kcal/mol
USER    (4) Unbound System's Energy  [=(2)] =   -2.00 kcal/mol
USER    
USER    
USER  
USER    DPF = ligand_dock.biased.dpf
USER    NEWDPF move	ligand.pdbqt
USER    NEWDPF about	0.698000 0.076000 -0.072000
USER    NEWDPF tran0	15.821271 -9.164061 -2.253161
USER    NEWDPF axisangle0	0.859112 0.511786 -0.000872 -123.561457
USER    NEWDPF quaternion0	0.757002 0.450958 -0.000768 -0.472847
USER    NEWDPF dihe0	4.97 14.32 87.18 -43.58 -100.81 174.16 85.58 71.07 
USER  
USER                              x       y       z    vdW   Elec        q     RMS 
ATOM      1  N   UNL     1      15.530  -9.759  -1.291 -0.25 -0.00    +0.000    16.552
ATOM      2  H   UNL     1      15.004  -8.965  -0.925 -0.02 -0.00    +0.000    16.552
ATOM      3  H   UNL     1      16.520  -9.688  -1.056 -0.02 -0.00    +0.000    16.552
ATOM      4  C   UNL     1      15.414  -9.769  -2.755 -0.25 -0.00    +0.000    16.552
ATOM      5  C   UNL     1      19.205 -10.945  -4.476 -0.37 -0.00    +0.000    16.552
ATOM      6  C   UNL     1      18.042 -10.893  -5.270 -0.29 -0.00    +0.000    16.552
ATOM      7  C   UNL     1      16.819 -10.507  -4.712 -0.20 -0.00    +0.000    16.552
ATOM      8  C   UNL     1      16.738 -10.146  -3.360 -0.22 -0.00    +0.000    16.552
ATOM      9  C   UNL     1      17.894 -10.193  -2.566 -0.17 -0.00    +0.000    16.552
ATOM     10  C   UNL     1      19.117 -10.577  -3.124 -0.35 -0.00    +0.000    16.552
ATOM     11  C   UNL     1      21.190 -10.628  -5.949 -0.41 -0.00    +0.000    16.552
ATOM     12  C   UNL     1      20.529 -11.336  -5.021 -0.52 -0.00    +0.000    16.552
ATOM     13  O   UNL     1      23.297 -10.116  -6.866 -0.35 -0.00    +0.000    16.552
ATOM     14  C   UNL     1      22.508 -11.023  -6.490 -0.46 -0.00    +0.000    16.552
ATOM     15  N   UNL     1      22.904 -12.395  -6.624 -0.56 -0.00    +0.000    16.552
ATOM     16  H   UNL     1      22.261 -13.113  -6.425 -0.57 -0.00    +0.000    16.552
ATOM     17  O   UNL     1      24.160 -12.704  -7.025 -1.07 +0.00    +0.000    16.552
ATOM     18  H   UNL     1      24.685 -11.892  -7.103 -0.05 +0.00    +0.000    16.552
ATOM     19  C   UNL     1      15.009 -10.994  -0.684 -0.34 +0.00    +0.000    16.552
ATOM     20  C   UNL     1      16.120 -12.012  -0.378 -0.45 +0.00    +0.000    16.552
ATOM     21  C   UNL     1      16.773 -11.692   0.935 -0.41 +0.00    +0.000    16.552
ATOM     22  C   UNL     1      16.146 -11.412   2.151 -0.40 +0.00    +0.000    16.552
ATOM     23  N   UNL     1      17.060 -11.104   3.101 -0.44 +0.00    +0.000    16.552
ATOM     24  C   UNL     1      18.257 -11.165   2.492 -0.46 -0.00    +0.000    16.552
ATOM     25  C   UNL     1      18.123 -11.513   1.171 -0.47 -0.00    +0.000    16.552
ATOM     26  C   UNL     1      19.226 -11.616   0.323 -0.53 -0.00    +0.000    16.552
ATOM     27  C   UNL     1      20.498 -11.357   0.866 -0.63 -0.00    +0.000    16.552
ATOM     28  C   UNL     1      20.637 -11.004   2.227 -0.59 -0.00    +0.000    16.552
ATOM     29  C   UNL     1      19.505 -10.903   3.056 -0.62 -0.00    +0.000    16.552
ATOM     30  C   UNL     1      14.674 -11.466   2.407 -0.49 +0.00    +0.000    16.552
ATOM     31  H   UNL     1      16.884 -10.881   4.044 -0.04 +0.00    +0.000    16.552
TER
ENDMDL
MODEL       73
USER    Run = 73
USER    Cluster Rank = 15
USER    Number of conformations in this cluster = 2
USER  
USER    RMSD from reference structure       = 16.523 A
USER  
USER    Estimated Free Energy of Binding    =   -9.60 kcal/mol  [=(1)+(2)+(3)-(4)]
USER    Estimated Inhibition Constant, Ki   =   91.31 nM (nanomolar)  [Temperature = 298.15 K]
USER    
USER    (1) Final Intermolecular Energy     =  -11.99 kcal/mol
USER        vdW + Hbond + desolv Energy     =  -11.99 kcal/mol
USER        Electrostatic Energy            =   +0.00 kcal/mol
USER    (2) Final Total Internal Energy     =   -1.79 kcal/mol
USER    (3) Torsional Free Energy           =   +2.39 kcal/mol
USER    (4) Unbound System's Energy  [=(2)] =   -1.79 kcal/mol
USER    
USER    
USER  
USER    DPF = ligand_dock.biased.dpf
USER    NEWDPF move	ligand.pdbqt
USER    NEWDPF about	0.698000 0.076000 -0.072000
USER    NEWDPF tran0	21.919475 -10.285898 -1.654524
USER    NEWDPF axisangle0	-0.814915 0.102240 0.570492 -176.603211
USER    NEWDPF quaternion0	-0.814557 0.102195 0.570241 -0.029638
USER    NEWDPF dihe0	-7.42 106.02 -148.70 -145.30 22.85 -172.35 -177.49 60.05 
USER  
USER                              x       y       z    vdW   Elec        q     RMS 
ATOM      1  N   UNL     1      21.690 -10.755  -0.610 -0.64 -0.00    +0.000    16.523
ATOM      2  H   UNL     1      22.675 -10.720  -0.347 -0.17 -0.00    +0.000    16.523
ATOM      3  H   UNL     1      21.477 -11.602  -1.137 -0.02 -0.00    +0.000    16.523
ATOM      4  C   UNL     1      21.389  -9.602  -1.469 -0.61 -0.00    +0.000    16.523
ATOM      5  C   UNL     1      19.379 -10.872  -5.083 -0.37 -0.00    +0.000    16.523
ATOM      6  C   UNL     1      20.776 -10.692  -5.065 -0.41 -0.00    +0.000    16.523
ATOM      7  C   UNL     1      21.423 -10.287  -3.893 -0.44 -0.00    +0.000    16.523
ATOM      8  C   UNL     1      20.693 -10.075  -2.714 -0.47 -0.00    +0.000    16.523
ATOM      9  C   UNL     1      19.302 -10.256  -2.727 -0.35 -0.00    +0.000    16.523
ATOM     10  C   UNL     1      18.655 -10.663  -3.897 -0.27 -0.00    +0.000    16.523
ATOM     11  C   UNL     1      17.306 -11.332  -6.387 -0.36 -0.00    +0.000    16.523
ATOM     12  C   UNL     1      18.644 -11.312  -6.294 -0.38 -0.00    +0.000    16.523
ATOM     13  O   UNL     1      16.805 -11.180  -8.682 -0.25 -0.00    +0.000    16.523
ATOM     14  C   UNL     1      16.578 -11.774  -7.595 -0.37 -0.00    +0.000    16.523
ATOM     15  N   UNL     1      15.609 -12.832  -7.564 -0.40 +0.00    +0.000    16.523
ATOM     16  H   UNL     1      15.353 -13.238  -6.705 -0.03 +0.00    +0.000    16.523
ATOM     17  O   UNL     1      15.046 -13.272  -8.715 -0.44 +0.00    +0.000    16.523
ATOM     18  H   UNL     1      15.315 -12.696  -9.448 -0.02 +0.00    +0.000    16.523
ATOM     19  C   UNL     1      20.873 -10.766   0.613 -0.69 -0.00    +0.000    16.523
ATOM     20  C   UNL     1      19.840 -11.906   0.619 -0.59 -0.00    +0.000    16.523
ATOM     21  C   UNL     1      18.660 -11.537   1.471 -0.52 -0.00    +0.000    16.523
ATOM     22  C   UNL     1      18.671 -11.107   2.799 -0.51 -0.00    +0.000    16.523
ATOM     23  N   UNL     1      17.409 -10.933   3.256 -0.48 +0.00    +0.000    16.523
ATOM     24  C   UNL     1      16.600 -11.270   2.237 -0.40 +0.00    +0.000    16.523
ATOM     25  C   UNL     1      17.324 -11.650   1.135 -0.43 +0.00    +0.000    16.523
ATOM     26  C   UNL     1      16.704 -12.070  -0.042 -0.43 +0.00    +0.000    16.523
ATOM     27  C   UNL     1      15.297 -12.086  -0.074 -0.42 +0.00    +0.000    16.523
ATOM     28  C   UNL     1      14.552 -11.690   1.058 -0.40 +0.00    +0.000    16.523
ATOM     29  C   UNL     1      15.205 -11.276   2.234 -0.42 +0.00    +0.000    16.523
ATOM     30  C   UNL     1      19.892 -10.838   3.620 -0.66 -0.00    +0.000    16.523
ATOM     31  H   UNL     1      17.140 -10.622   4.151 -0.02 +0.00    +0.000    16.523
TER
ENDMDL
MODEL        4
USER    Run = 4
USER    Cluster Rank = 16
USER    Number of conformations in this cluster = 1
USER  
USER    RMSD from reference structure       = 13.112 A
USER  
USER    Estimated Free Energy of Binding    =   -9.47 kcal/mol  [=(1)+(2)+(3)-(4)]
USER    Estimated Inhibition Constant, Ki   =  114.19 nM (nanomolar)  [Temperature = 298.15 K]
USER    
USER    (1) Final Intermolecular Energy     =  -11.86 kcal/mol
USER        vdW + Hbond + desolv Energy     =  -11.86 kcal/mol
USER        Electrostatic Energy            =   +0.00 kcal/mol
USER    (2) Final Total Internal Energy     =   -1.63 kcal/mol
USER    (3) Torsional Free Energy           =   +2.39 kcal/mol
USER    (4) Unbound System's Energy  [=(2)] =   -1.63 kcal/mol
USER    
USER    
USER  
USER    DPF = ligand_dock.biased.dpf
USER    NEWDPF move	ligand.pdbqt
USER    NEWDPF about	0.698000 0.076000 -0.072000
USER    NEWDPF tran0	11.929266 -9.256613 3.677963
USER    NEWDPF axisangle0	-0.609529 0.632962 0.477319 174.995254
USER    NEWDPF quaternion0	-0.608948 0.632359 0.476864 0.043661
USER    NEWDPF dihe0	-13.67 148.94 95.94 -74.84 74.47 70.03 -179.38 -72.45 
USER  
USER                              x       y       z    vdW   Elec        q     RMS 
ATOM      1  N   UNL     1      11.907  -8.692   4.700 -0.27 +0.00    +0.000    13.112
ATOM      2  H   UNL     1      12.677  -9.256   5.060 -0.02 +0.00    +0.000    13.112
ATOM      3  H   UNL     1      11.011  -9.158   4.836 -0.01 +0.00    +0.000    13.112
ATOM      4  C   UNL     1      12.099  -8.497   3.257 -0.17 +0.00    +0.000    13.112
ATOM      5  C   UNL     1      15.815 -10.284   1.952 -0.34 +0.00    +0.000    13.112
ATOM      6  C   UNL     1      15.747  -8.908   2.249 -0.28 +0.00    +0.000    13.112
ATOM      7  C   UNL     1      14.545  -8.335   2.677 -0.25 +0.00    +0.000    13.112
ATOM      8  C   UNL     1      13.397  -9.125   2.835 -0.21 +0.00    +0.000    13.112
ATOM      9  C   UNL     1      13.461 -10.496   2.543 -0.29 +0.00    +0.000    13.112
ATOM     10  C   UNL     1      14.663 -11.070   2.118 -0.39 +0.00    +0.000    13.112
ATOM     11  C   UNL     1      18.102 -11.204   2.321 -0.52 -0.00    +0.000    13.112
ATOM     12  C   UNL     1      17.067 -10.946   1.508 -0.44 +0.00    +0.000    13.112
ATOM     13  O   UNL     1      19.348 -12.450   0.761 -1.03 -0.00    +0.000    13.112
ATOM     14  C   UNL     1      19.348 -11.860   1.873 -0.70 -0.00    +0.000    13.112
ATOM     15  N   UNL     1      20.541 -11.870   2.671 -0.71 -0.00    +0.000    13.112
ATOM     16  H   UNL     1      20.526 -11.497   3.581 -0.23 -0.00    +0.000    13.112
ATOM     17  O   UNL     1      21.687 -12.392   2.173 -0.81 -0.00    +0.000    13.112
ATOM     18  H   UNL     1      21.490 -12.902   1.372 -0.55 -0.00    +0.000    13.112
ATOM     19  C   UNL     1      11.871  -7.417   5.434 -0.25 +0.00    +0.000    13.112
ATOM     20  C   UNL     1      12.211  -6.215   4.538 -0.21 +0.00    +0.000    13.112
ATOM     21  C   UNL     1      13.628  -5.776   4.771 -0.28 +0.00    +0.000    13.112
ATOM     22  C   UNL     1      14.651  -6.496   5.391 -0.41 +0.00    +0.000    13.112
ATOM     23  N   UNL     1      15.776  -5.749   5.481 -0.39 +0.00    +0.000    13.112
ATOM     24  C   UNL     1      15.468  -4.556   4.945 -0.45 +0.00    +0.000    13.112
ATOM     25  C   UNL     1      14.167  -4.531   4.508 -0.31 +0.00    +0.000    13.112
ATOM     26  C   UNL     1      13.607  -3.388   3.936 -0.29 -0.00    +0.000    13.112
ATOM     27  C   UNL     1      14.423  -2.249   3.810 -0.36 -0.00    +0.000    13.112
ATOM     28  C   UNL     1      15.763  -2.276   4.255 -0.41 -0.00    +0.000    13.112
ATOM     29  C   UNL     1      16.299  -3.442   4.832 -0.47 -0.00    +0.000    13.112
ATOM     30  C   UNL     1      14.556  -7.909   5.872 -0.21 +0.00    +0.000    13.112
ATOM     31  H   UNL     1      16.642  -6.024   5.861 -0.61 -0.00    +0.000    13.112
TER
ENDMDL
MODEL       11
USER    Run = 11
USER    Cluster Rank = 17
USER    Number of conformations in this cluster = 2
USER  
USER    RMSD from reference structure       = 16.936 A
USER  
USER    Estimated Free Energy of Binding    =   -9.41 kcal/mol  [=(1)+(2)+(3)-(4)]
USER    Estimated Inhibition Constant, Ki   =  127.34 nM (nanomolar)  [Temperature = 298.15 K]
USER    
USER    (1) Final Intermolecular Energy     =  -11.79 kcal/mol
USER        vdW + Hbond + desolv Energy     =  -11.79 kcal/mol
USER        Electrostatic Energy            =   +0.00 kcal/mol
USER    (2) Final Total Internal Energy     =   -1.70 kcal/mol
USER    (3) Torsional Free Energy           =   +2.39 kcal/mol
USER    (4) Unbound System's Energy  [=(2)] =   -1.70 kcal/mol
USER    
USER    
USER  
USER    DPF = ligand_dock.biased.dpf
USER    NEWDPF move	ligand.pdbqt
USER    NEWDPF about	0.698000 0.076000 -0.072000
USER    NEWDPF tran0	20.337781 -7.218687 -4.989237
USER    NEWDPF axisangle0	-0.417659 0.892092 -0.172434 -147.041447
USER    NEWDPF quaternion0	-0.400503 0.855447 -0.165350 -0.283669
USER    NEWDPF dihe0	28.09 151.90 -128.36 -39.40 52.41 45.29 39.56 -74.25 
USER  
USER                              x       y       z    vdW   Elec        q     RMS 
ATOM      1  N   UNL     1      20.369  -6.075  -4.754 -0.14 -0.00    +0.000    16.936
ATOM      2  H   UNL     1      19.843  -6.210  -3.890 -0.01 -0.00    +0.000    16.936
ATOM      3  H   UNL     1      19.746  -5.984  -5.557 +0.00 -0.00    +0.000    16.936
ATOM      4  C   UNL     1      21.222  -7.250  -4.976 -0.22 -0.00    +0.000    16.936
ATOM      5  C   UNL     1      20.824  -9.890  -1.573 -0.54 -0.00    +0.000    16.936
ATOM      6  C   UNL     1      20.519 -10.343  -2.872 -0.46 -0.00    +0.000    16.936
ATOM      7  C   UNL     1      20.654  -9.488  -3.970 -0.36 -0.00    +0.000    16.936
ATOM      8  C   UNL     1      21.116  -8.176  -3.797 -0.33 -0.00    +0.000    16.936
ATOM      9  C   UNL     1      21.424  -7.721  -2.506 -0.40 -0.00    +0.000    16.936
ATOM     10  C   UNL     1      21.290  -8.575  -1.408 -0.46 -0.00    +0.000    16.936
ATOM     11  C   UNL     1      20.440 -10.296   0.856 -0.63 -0.00    +0.000    16.936
ATOM     12  C   UNL     1      20.710 -10.758  -0.375 -0.64 -0.00    +0.000    16.936
ATOM     13  O   UNL     1      20.268 -12.410   1.877 -1.67 -0.00    +0.000    16.936
ATOM     14  C   UNL     1      20.330 -11.164   2.047 -0.75 -0.00    +0.000    16.936
ATOM     15  N   UNL     1      20.266 -10.636   3.379 -0.70 -0.00    +0.000    16.936
ATOM     16  H   UNL     1      20.215  -9.663   3.519 -0.52 -0.00    +0.000    16.936
ATOM     17  O   UNL     1      20.272 -11.474   4.444 -0.72 -0.00    +0.000    16.936
ATOM     18  H   UNL     1      20.748 -12.286   4.214 -0.50 -0.00    +0.000    16.936
ATOM     19  C   UNL     1      21.149  -4.833  -4.644 -0.14 -0.00    +0.000    16.936
ATOM     20  C   UNL     1      22.537  -5.065  -4.023 -0.20 -0.00    +0.000    16.936
ATOM     21  C   UNL     1      22.718  -4.195  -2.812 -0.24 -0.00    +0.000    16.936
ATOM     22  C   UNL     1      21.868  -4.083  -1.710 -0.34 +0.00    +0.000    16.936
ATOM     23  N   UNL     1      22.326  -3.148  -0.846 -0.32 +0.00    +0.000    16.936
ATOM     24  C   UNL     1      23.445  -2.652  -1.401 -0.26 -0.00    +0.000    16.936
ATOM     25  C   UNL     1      23.713  -3.259  -2.602 -0.20 -0.00    +0.000    16.936
ATOM     26  C   UNL     1      24.812  -2.894  -3.381 -0.12 -0.00    +0.000    16.936
ATOM     27  C   UNL     1      25.655  -1.879  -2.893 -0.09 -0.00    +0.000    16.936
ATOM     28  C   UNL     1      25.382  -1.257  -1.654 -0.15 -0.00    +0.000    16.936
ATOM     29  C   UNL     1      24.263  -1.643  -0.893 -0.23 -0.00    +0.000    16.936
ATOM     30  C   UNL     1      20.632  -4.891  -1.475 -0.44 -0.00    +0.000    16.936
ATOM     31  H   UNL     1      21.922  -2.886   0.013 -0.03 +0.00    +0.000    16.936
TER
ENDMDL
MODEL       37
USER    Run = 37
USER    Cluster Rank = 18
USER    Number of conformations in this cluster = 1
USER  
USER    RMSD from reference structure       = 19.403 A
USER  
USER    Estimated Free Energy of Binding    =   -9.28 kcal/mol  [=(1)+(2)+(3)-(4)]
USER    Estimated Inhibition Constant, Ki   =  157.36 nM (nanomolar)  [Temperature = 298.15 K]
USER    
USER    (1) Final Intermolecular Energy     =  -11.67 kcal/mol
USER        vdW + Hbond + desolv Energy     =  -11.67 kcal/mol
USER        Electrostatic Energy            =   +0.00 kcal/mol
USER    (2) Final Total Internal Energy     =   -1.44 kcal/mol
USER    (3) Torsional Free Energy           =   +2.39 kcal/mol
USER    (4) Unbound System's Energy  [=(2)] =   -1.44 kcal/mol
USER    
USER    
USER  
USER    DPF = ligand_dock.biased.dpf
USER    NEWDPF move	ligand.pdbqt
USER    NEWDPF about	0.698000 0.076000 -0.072000
USER    NEWDPF tran0	21.513345 -9.059142 -6.433316
USER    NEWDPF axisangle0	0.257621 -0.850567 0.458439 124.821890
USER    NEWDPF quaternion0	0.228328 -0.753851 0.406311 0.463127
USER    NEWDPF dihe0	48.46 -58.46 -156.81 167.11 83.87 177.69 -96.32 -108.53 
USER  
USER                              x       y       z    vdW   Elec        q     RMS 
ATOM      1  N   UNL     1      21.792  -7.928  -6.345 -0.15 -0.00    +0.000    19.403
ATOM      2  H   UNL     1      20.871  -7.703  -5.967 +0.00 -0.00    +0.000    19.403
ATOM      3  H   UNL     1      21.781  -7.938  -7.365 +0.00 -0.00    +0.000    19.403
ATOM      4  C   UNL     1      22.176  -9.269  -5.885 -0.30 -0.00    +0.000    19.403
ATOM      5  C   UNL     1      21.034  -9.773  -1.744 -0.55 -0.00    +0.000    19.403
ATOM      6  C   UNL     1      21.032  -8.495  -2.338 -0.43 -0.00    +0.000    19.403
ATOM      7  C   UNL     1      21.396  -8.337  -3.679 -0.34 -0.00    +0.000    19.403
ATOM      8  C   UNL     1      21.748  -9.450  -4.456 -0.32 -0.00    +0.000    19.403
ATOM      9  C   UNL     1      21.748 -10.724  -3.870 -0.41 -0.00    +0.000    19.403
ATOM     10  C   UNL     1      21.382 -10.883  -2.530 -0.30 -0.00    +0.000    19.403
ATOM     11  C   UNL     1      20.647 -11.204   0.260 -0.63 -0.00    +0.000    19.403
ATOM     12  C   UNL     1      20.644  -9.999  -0.330 -0.66 -0.00    +0.000    19.403
ATOM     13  O   UNL     1      19.535 -12.420   1.940 -1.59 -0.00    +0.000    19.403
ATOM     14  C   UNL     1      20.256 -11.425   1.667 -0.76 -0.00    +0.000    19.403
ATOM     15  N   UNL     1      20.645 -10.533   2.722 -0.61 -0.00    +0.000    19.403
ATOM     16  H   UNL     1      21.125  -9.701   2.509 -0.57 -0.00    +0.000    19.403
ATOM     17  O   UNL     1      20.352 -10.834   4.010 -0.80 -0.00    +0.000    19.403
ATOM     18  H   UNL     1      20.613 -11.749   4.196 -0.44 -0.00    +0.000    19.403
ATOM     19  C   UNL     1      22.747  -6.897  -5.913 -0.15 -0.00    +0.000    19.403
ATOM     20  C   UNL     1      23.720  -6.492  -7.034 -0.12 -0.00    +0.000    19.403
ATOM     21  C   UNL     1      24.969  -7.322  -6.966 -0.13 -0.00    +0.000    19.403
ATOM     22  C   UNL     1      26.208  -6.954  -6.438 -0.13 -0.00    +0.000    19.403
ATOM     23  N   UNL     1      27.116  -7.942  -6.615 -0.32 -0.00    +0.000    19.403
ATOM     24  C   UNL     1      26.470  -8.922  -7.268 -0.32 -0.00    +0.000    19.403
ATOM     25  C   UNL     1      25.162  -8.580  -7.506 -0.22 -0.00    +0.000    19.403
ATOM     26  C   UNL     1      24.294  -9.428  -8.196 -0.20 -0.00    +0.000    19.403
ATOM     27  C   UNL     1      24.799 -10.664  -8.639 -0.28 -0.00    +0.000    19.403
ATOM     28  C   UNL     1      26.143 -11.019  -8.390 -0.36 -0.00    +0.000    19.403
ATOM     29  C   UNL     1      26.996 -10.141  -7.697 -0.39 -0.00    +0.000    19.403
ATOM     30  C   UNL     1      26.512  -5.666  -5.742 -0.18 -0.00    +0.000    19.403
ATOM     31  H   UNL     1      28.057  -7.942  -6.323 -0.01 -0.00    +0.000    19.403
TER
ENDMDL
MODEL        9
USER    Run = 9
USER    Cluster Rank = 19
USER    Number of conformations in this cluster = 1
USER  
USER    RMSD from reference structure       = 13.696 A
USER  
USER    Estimated Free Energy of Binding    =   -9.12 kcal/mol  [=(1)+(2)+(3)-(4)]
USER    Estimated Inhibition Constant, Ki   =  206.67 nM (nanomolar)  [Temperature = 298.15 K]
USER    
USER    (1) Final Intermolecular Energy     =  -11.51 kcal/mol
USER        vdW + Hbond + desolv Energy     =  -11.51 kcal/mol
USER        Electrostatic Energy            =   +0.00 kcal/mol
USER    (2) Final Total Internal Energy     =   -1.83 kcal/mol
USER    (3) Torsional Free Energy           =   +2.39 kcal/mol
USER    (4) Unbound System's Energy  [=(2)] =   -1.83 kcal/mol
USER    
USER    
USER  
USER    DPF = ligand_dock.biased.dpf
USER    NEWDPF move	ligand.pdbqt
USER    NEWDPF about	0.698000 0.076000 -0.072000
USER    NEWDPF tran0	15.912868 -8.507447 1.831847
USER    NEWDPF axisangle0	0.444195 0.271183 -0.853903 82.590214
USER    NEWDPF quaternion0	0.293141 0.178964 -0.563523 0.751320
USER    NEWDPF dihe0	-19.28 -147.55 94.90 -173.66 124.29 18.74 -116.66 91.24 
USER  
USER                              x       y       z    vdW   Elec        q     RMS 
ATOM      1  N   UNL     1      15.325  -9.393   1.348 -0.28 +0.00    +0.000    13.696
ATOM      2  H   UNL     1      16.102  -9.603   0.721 -0.02 +0.00    +0.000    13.696
ATOM      3  H   UNL     1      14.723  -8.666   0.963 -0.01 +0.00    +0.000    13.696
ATOM      4  C   UNL     1      15.866  -8.903   2.622 -0.34 +0.00    +0.000    13.696
ATOM      5  C   UNL     1      12.841  -6.666   4.758 -0.23 +0.00    +0.000    13.696
ATOM      6  C   UNL     1      12.893  -6.639   3.350 -0.12 +0.00    +0.000    13.696
ATOM      7  C   UNL     1      13.868  -7.368   2.663 -0.19 +0.00    +0.000    13.696
ATOM      8  C   UNL     1      14.795  -8.152   3.364 -0.30 +0.00    +0.000    13.696
ATOM      9  C   UNL     1      14.746  -8.184   4.766 -0.31 +0.00    +0.000    13.696
ATOM     10  C   UNL     1      13.770  -7.457   5.454 -0.39 +0.00    +0.000    13.696
ATOM     11  C   UNL     1      10.527  -6.275   5.597 -0.24 +0.00    +0.000    13.696
ATOM     12  C   UNL     1      11.820  -5.922   5.536 -0.22 +0.00    +0.000    13.696
ATOM     13  O   UNL     1       9.456  -4.279   6.236 -0.96 +0.00    +0.000    13.696
ATOM     14  C   UNL     1       9.513  -5.529   6.371 -0.36 +0.00    +0.000    13.696
ATOM     15  N   UNL     1       8.615  -6.176   7.284 -0.46 +0.00    +0.000    13.696
ATOM     16  H   UNL     1       8.713  -7.138   7.471 -0.02 +0.00    +0.000    13.696
ATOM     17  O   UNL     1       7.634  -5.466   7.891 -0.75 +0.00    +0.000    13.696
ATOM     18  H   UNL     1       7.847  -4.521   7.853 -0.01 +0.00    +0.000    13.696
ATOM     19  C   UNL     1      14.513 -10.608   1.519 -0.33 +0.00    +0.000    13.696
ATOM     20  C   UNL     1      15.305 -11.756   2.167 -0.50 +0.00    +0.000    13.696
ATOM     21  C   UNL     1      16.591 -11.986   1.427 -0.40 +0.00    +0.000    13.696
ATOM     22  C   UNL     1      16.778 -12.719   0.253 -0.48 +0.00    +0.000    13.696
ATOM     23  N   UNL     1      18.089 -12.761  -0.081 -0.45 -0.00    +0.000    13.696
ATOM     24  C   UNL     1      18.735 -12.081   0.882 -0.54 -0.00    +0.000    13.696
ATOM     25  C   UNL     1      17.858 -11.599   1.821 -0.41 +0.00    +0.000    13.696
ATOM     26  C   UNL     1      18.296 -10.881   2.935 -0.48 -0.00    +0.000    13.696
ATOM     27  C   UNL     1      19.678 -10.652   3.067 -0.61 -0.00    +0.000    13.696
ATOM     28  C   UNL     1      20.580 -11.143   2.098 -0.63 -0.00    +0.000    13.696
ATOM     29  C   UNL     1      20.110 -11.869   0.988 -0.59 -0.00    +0.000    13.696
ATOM     30  C   UNL     1      15.697 -13.356  -0.560 -0.51 +0.00    +0.000    13.696
ATOM     31  H   UNL     1      18.487 -13.199  -0.868 -0.37 -0.00    +0.000    13.696
TER
ENDMDL
MODEL       13
USER    Run = 13
USER    Cluster Rank = 20
USER    Number of conformations in this cluster = 1
USER  
USER    RMSD from reference structure       = 13.599 A
USER  
USER    Estimated Free Energy of Binding    =   -8.97 kcal/mol  [=(1)+(2)+(3)-(4)]
USER    Estimated Inhibition Constant, Ki   =  264.61 nM (nanomolar)  [Temperature = 298.15 K]
USER    
USER    (1) Final Intermolecular Energy     =  -11.36 kcal/mol
USER        vdW + Hbond + desolv Energy     =  -11.36 kcal/mol
USER        Electrostatic Energy            =   +0.00 kcal/mol
USER    (2) Final Total Internal Energy     =   -2.45 kcal/mol
USER    (3) Torsional Free Energy           =   +2.39 kcal/mol
USER    (4) Unbound System's Energy  [=(2)] =   -2.45 kcal/mol
USER    
USER    
USER  
USER    DPF = ligand_dock.biased.dpf
USER    NEWDPF move	ligand.pdbqt
USER    NEWDPF about	0.698000 0.076000 -0.072000
USER    NEWDPF tran0	13.132631 -10.592470 -1.338472
USER    NEWDPF axisangle0	-0.033582 -0.379988 -0.924381 175.179970
USER    NEWDPF quaternion0	-0.033552 -0.379652 -0.923564 0.042050
USER    NEWDPF dihe0	-2.55 161.01 -177.86 5.45 45.98 -142.88 -143.81 104.50 
USER  
USER                              x       y       z    vdW   Elec        q     RMS 
ATOM      1  N   UNL     1      14.065 -11.262  -1.125 -0.33 +0.00    +0.000    13.599
ATOM      2  H   UNL     1      13.910 -11.798  -1.980 -0.03 -0.00    +0.000    13.599
ATOM      3  H   UNL     1      13.512 -11.630  -0.352 -0.02 +0.00    +0.000    13.599
ATOM      4  C   UNL     1      13.648  -9.873  -1.357 -0.24 -0.00    +0.000    13.599
ATOM      5  C   UNL     1      13.792  -7.613   2.329 -0.19 +0.00    +0.000    13.599
ATOM      6  C   UNL     1      12.947  -8.735   2.208 -0.15 +0.00    +0.000    13.599
ATOM      7  C   UNL     1      12.908  -9.466   1.017 -0.15 +0.00    +0.000    13.599
ATOM      8  C   UNL     1      13.723  -9.107  -0.066 -0.17 +0.00    +0.000    13.599
ATOM      9  C   UNL     1      14.568  -7.993   0.051 -0.21 -0.00    +0.000    13.599
ATOM     10  C   UNL     1      14.610  -7.262   1.242 -0.19 -0.00    +0.000    13.599
ATOM     11  C   UNL     1      14.920  -6.013   3.871 -0.36 +0.00    +0.000    13.599
ATOM     12  C   UNL     1      13.882  -6.809   3.573 -0.25 +0.00    +0.000    13.599
ATOM     13  O   UNL     1      14.034  -5.243   5.911 -0.98 +0.00    +0.000    13.599
ATOM     14  C   UNL     1      15.007  -5.216   5.113 -0.49 +0.00    +0.000    13.599
ATOM     15  N   UNL     1      16.144  -4.398   5.423 -0.51 -0.00    +0.000    13.599
ATOM     16  H   UNL     1      16.867  -4.293   4.764 -0.45 -0.00    +0.000    13.599
ATOM     17  O   UNL     1      16.224  -3.770   6.621 -0.69 +0.00    +0.000    13.599
ATOM     18  H   UNL     1      15.418  -3.945   7.132 -0.05 +0.00    +0.000    13.599
ATOM     19  C   UNL     1      15.485 -11.362  -0.754 -0.37 +0.00    +0.000    13.599
ATOM     20  C   UNL     1      15.732 -12.407   0.347 -0.52 +0.00    +0.000    13.599
ATOM     21  C   UNL     1      16.559 -11.816   1.452 -0.40 +0.00    +0.000    13.599
ATOM     22  C   UNL     1      16.108 -11.276   2.658 -0.43 +0.00    +0.000    13.599
ATOM     23  N   UNL     1      17.142 -10.776   3.375 -0.47 +0.00    +0.000    13.599
ATOM     24  C   UNL     1      18.239 -10.973   2.624 -0.48 -0.00    +0.000    13.599
ATOM     25  C   UNL     1      17.924 -11.597   1.442 -0.46 -0.00    +0.000    13.599
ATOM     26  C   UNL     1      18.895 -11.885   0.483 -0.53 -0.00    +0.000    13.599
ATOM     27  C   UNL     1      20.225 -11.522   0.765 -0.60 -0.00    +0.000    13.599
ATOM     28  C   UNL     1      20.550 -10.885   1.983 -0.59 -0.00    +0.000    13.599
ATOM     29  C   UNL     1      19.548 -10.602   2.929 -0.61 -0.00    +0.000    13.599
ATOM     30  C   UNL     1      14.690 -11.267   3.134 -0.47 +0.00    +0.000    13.599
ATOM     31  H   UNL     1      17.098 -10.355   4.264 +0.01 +0.00    +0.000    13.599
TER
ENDMDL
MODEL       71
USER    Run = 71
USER    Cluster Rank = 21
USER    Number of conformations in this cluster = 1
USER  
USER    RMSD from reference structure       = 13.415 A
USER  
USER    Estimated Free Energy of Binding    =   -8.86 kcal/mol  [=(1)+(2)+(3)-(4)]
USER    Estimated Inhibition Constant, Ki   =  319.03 nM (nanomolar)  [Temperature = 298.15 K]
USER    
USER    (1) Final Intermolecular Energy     =  -11.25 kcal/mol
USER        vdW + Hbond + desolv Energy     =  -11.25 kcal/mol
USER        Electrostatic Energy            =   +0.00 kcal/mol
USER    (2) Final Total Internal Energy     =   -3.09 kcal/mol
USER    (3) Torsional Free Energy           =   +2.39 kcal/mol
USER    (4) Unbound System's Energy  [=(2)] =   -3.09 kcal/mol
USER    
USER    
USER  
USER    DPF = ligand_dock.biased.dpf
USER    NEWDPF move	ligand.pdbqt
USER    NEWDPF about	0.698000 0.076000 -0.072000
USER    NEWDPF tran0	12.310852 -8.313246 5.425046
USER    NEWDPF axisangle0	-0.495772 0.426505 -0.756507 129.282247
USER    NEWDPF quaternion0	-0.448001 0.385408 -0.683612 0.428287
USER    NEWDPF dihe0	-27.39 63.82 111.70 127.68 -52.38 -45.69 1.26 -169.60 
USER  
USER                              x       y       z    vdW   Elec        q     RMS 
ATOM      1  N   UNL     1      11.939  -8.536   4.340 -0.23 +0.00    +0.000    13.415
ATOM      2  H   UNL     1      11.841  -7.541   4.140 +0.00 +0.00    +0.000    13.415
ATOM      3  H   UNL     1      11.107  -8.906   4.798 -0.01 +0.00    +0.000    13.415
ATOM      4  C   UNL     1      13.076  -8.724   5.252 -0.43 +0.00    +0.000    13.415
ATOM      5  C   UNL     1      16.476 -10.031   2.920 -0.41 +0.00    +0.000    13.415
ATOM      6  C   UNL     1      16.165  -8.661   3.030 -0.18 +0.00    +0.000    13.415
ATOM      7  C   UNL     1      15.069  -8.242   3.789 -0.34 +0.00    +0.000    13.415
ATOM      8  C   UNL     1      14.276  -9.177   4.469 -0.37 +0.00    +0.000    13.415
ATOM      9  C   UNL     1      14.582 -10.542   4.365 -0.23 +0.00    +0.000    13.415
ATOM     10  C   UNL     1      15.680 -10.962   3.607 -0.48 +0.00    +0.000    13.415
ATOM     11  C   UNL     1      18.865 -10.687   2.648 -0.62 -0.00    +0.000    13.415
ATOM     12  C   UNL     1      17.635 -10.529   2.137 -0.50 -0.00    +0.000    13.415
ATOM     13  O   UNL     1      20.348 -12.390   1.985 -1.62 -0.00    +0.000    13.415
ATOM     14  C   UNL     1      20.017 -11.182   1.865 -0.73 -0.00    +0.000    13.415
ATOM     15  N   UNL     1      20.779 -10.329   0.999 -0.61 -0.00    +0.000    13.415
ATOM     16  H   UNL     1      20.591  -9.363   0.971 -0.35 -0.00    +0.000    13.415
ATOM     17  O   UNL     1      21.758 -10.850   0.222 -0.70 -0.00    +0.000    13.415
ATOM     18  H   UNL     1      22.112 -11.651   0.640 -0.57 -0.00    +0.000    13.415
ATOM     19  C   UNL     1      12.119  -9.260   3.072 -0.17 +0.00    +0.000    13.415
ATOM     20  C   UNL     1      12.047  -8.328   1.850 -0.12 +0.00    +0.000    13.415
ATOM     21  C   UNL     1      13.205  -8.586   0.929 -0.13 +0.00    +0.000    13.415
ATOM     22  C   UNL     1      13.956  -7.645   0.221 -0.20 -0.00    +0.000    13.415
ATOM     23  N   UNL     1      14.876  -8.257  -0.560 -0.23 -0.00    +0.000    13.415
ATOM     24  C   UNL     1      14.700  -9.576  -0.370 -0.23 -0.00    +0.000    13.415
ATOM     25  C   UNL     1      13.687  -9.817   0.524 -0.18 +0.00    +0.000    13.415
ATOM     26  C   UNL     1      13.299 -11.114   0.863 -0.33 +0.00    +0.000    13.415
ATOM     27  C   UNL     1      13.988 -12.183   0.263 -0.40 +0.00    +0.000    13.415
ATOM     28  C   UNL     1      15.034 -11.936  -0.653 -0.39 +0.00    +0.000    13.415
ATOM     29  C   UNL     1      15.399 -10.617  -0.980 -0.27 -0.00    +0.000    13.415
ATOM     30  C   UNL     1      13.807  -6.160   0.316 -0.19 -0.00    +0.000    13.415
ATOM     31  H   UNL     1      15.538  -7.825  -1.146 -0.02 -0.00    +0.000    13.415
TER
ENDMDL
MODEL       61
USER    Run = 61
USER    Cluster Rank = 22
USER    Number of conformations in this cluster = 1
USER  
USER    RMSD from reference structure       = 14.599 A
USER  
USER    Estimated Free Energy of Binding    =   -8.53 kcal/mol  [=(1)+(2)+(3)-(4)]
USER    Estimated Inhibition Constant, Ki   =  557.57 nM (nanomolar)  [Temperature = 298.15 K]
USER    
USER    (1) Final Intermolecular Energy     =  -10.92 kcal/mol
USER        vdW + Hbond + desolv Energy     =  -10.92 kcal/mol
USER        Electrostatic Energy            =   +0.00 kcal/mol
USER    (2) Final Total Internal Energy     =   -2.15 kcal/mol
USER    (3) Torsional Free Energy           =   +2.39 kcal/mol
USER    (4) Unbound System's Energy  [=(2)] =   -2.15 kcal/mol
USER    
USER    
USER  
USER    DPF = ligand_dock.biased.dpf
USER    NEWDPF move	ligand.pdbqt
USER    NEWDPF about	0.698000 0.076000 -0.072000
USER    NEWDPF tran0	16.598335 -10.187571 -3.572781
USER    NEWDPF axisangle0	0.063183 -0.188999 -0.979942 -161.452858
USER    NEWDPF quaternion0	0.062357 -0.186529 -0.967135 -0.161149
USER    NEWDPF dihe0	162.10 -42.73 -97.36 171.02 79.17 -153.99 -134.90 49.75 
USER  
USER                              x       y       z    vdW   Elec        q     RMS 
ATOM      1  N   UNL     1      17.737 -10.440  -3.505 -0.25 -0.00    +0.000    14.599
ATOM      2  H   UNL     1      17.786 -10.615  -4.509 -0.01 -0.00    +0.000    14.599
ATOM      3  H   UNL     1      17.431 -11.270  -2.998 +0.03 -0.00    +0.000    14.599
ATOM      4  C   UNL     1      16.756  -9.375  -3.259 -0.14 -0.00    +0.000    14.599
ATOM      5  C   UNL     1      13.496 -10.858  -0.833 -0.28 +0.00    +0.000    14.599
ATOM      6  C   UNL     1      13.885 -11.538  -2.004 -0.29 -0.00    +0.000    14.599
ATOM      7  C   UNL     1      14.943 -11.059  -2.783 -0.25 -0.00    +0.000    14.599
ATOM      8  C   UNL     1      15.645  -9.907  -2.398 -0.23 -0.00    +0.000    14.599
ATOM      9  C   UNL     1      15.263  -9.228  -1.231 -0.18 -0.00    +0.000    14.599
ATOM     10  C   UNL     1      14.206  -9.708  -0.451 -0.21 +0.00    +0.000    14.599
ATOM     11  C   UNL     1      11.291 -10.606   0.301 -0.29 +0.00    +0.000    14.599
ATOM     12  C   UNL     1      12.389 -11.330   0.036 -0.37 +0.00    +0.000    14.599
ATOM     13  O   UNL     1       9.488 -10.222   1.764 -0.22 +0.00    +0.000    14.599
ATOM     14  C   UNL     1      10.192 -11.079   1.169 -0.34 +0.00    +0.000    14.599
ATOM     15  N   UNL     1       9.920 -12.472   1.374 -0.40 +0.00    +0.000    14.599
ATOM     16  H   UNL     1      10.522 -13.151   0.993 -0.60 +0.00    +0.000    14.599
ATOM     17  O   UNL     1       8.838 -12.856   2.093 -0.51 +0.00    +0.000    14.599
ATOM     18  H   UNL     1       8.638 -13.786   1.907 -0.57 -0.00    +0.000    14.599
ATOM     19  C   UNL     1      19.079 -10.083  -3.019 -0.35 -0.00    +0.000    14.599
ATOM     20  C   UNL     1      19.689 -11.175  -2.125 -0.25 -0.00    +0.000    14.599
ATOM     21  C   UNL     1      19.468 -10.847  -0.677 -0.46 -0.00    +0.000    14.599
ATOM     22  C   UNL     1      20.361 -10.229   0.202 -0.57 -0.00    +0.000    14.599
ATOM     23  N   UNL     1      19.836 -10.161   1.447 -0.55 -0.00    +0.000    14.599
ATOM     24  C   UNL     1      18.630 -10.750   1.371 -0.46 -0.00    +0.000    14.599
ATOM     25  C   UNL     1      18.373 -11.187   0.095 -0.43 -0.00    +0.000    14.599
ATOM     26  C   UNL     1      17.192 -11.855  -0.228 -0.41 +0.00    +0.000    14.599
ATOM     27  C   UNL     1      16.253 -12.065   0.799 -0.43 +0.00    +0.000    14.599
ATOM     28  C   UNL     1      16.516 -11.611   2.111 -0.35 +0.00    +0.000    14.599
ATOM     29  C   UNL     1      17.719 -10.945   2.408 -0.45 +0.00    +0.000    14.599
ATOM     30  C   UNL     1      21.704  -9.681  -0.161 -0.59 -0.00    +0.000    14.599
ATOM     31  H   UNL     1      20.252  -9.762   2.245 -0.50 -0.00    +0.000    14.599
TER
ENDMDL
MODEL        5
USER    Run = 5
USER    Cluster Rank = 23
USER    Number of conformations in this cluster = 1
USER  
USER    RMSD from reference structure       = 11.906 A
USER  
USER    Estimated Free Energy of Binding    =   -8.41 kcal/mol  [=(1)+(2)+(3)-(4)]
USER    Estimated Inhibition Constant, Ki   =  680.08 nM (nanomolar)  [Temperature = 298.15 K]
USER    
USER    (1) Final Intermolecular Energy     =  -10.80 kcal/mol
USER        vdW + Hbond + desolv Energy     =  -10.80 kcal/mol
USER        Electrostatic Energy            =   +0.00 kcal/mol
USER    (2) Final Total Internal Energy     =   -2.27 kcal/mol
USER    (3) Torsional Free Energy           =   +2.39 kcal/mol
USER    (4) Unbound System's Energy  [=(2)] =   -2.27 kcal/mol
USER    
USER    
USER  
USER    DPF = ligand_dock.biased.dpf
USER    NEWDPF move	ligand.pdbqt
USER    NEWDPF about	0.698000 0.076000 -0.072000
USER    NEWDPF tran0	12.538609 -6.647831 4.613265
USER    NEWDPF axisangle0	0.664753 -0.630952 0.400004 57.183101
USER    NEWDPF quaternion0	0.318126 -0.301950 0.191427 0.878054
USER    NEWDPF dihe0	-19.83 172.27 83.66 -28.15 -159.70 169.51 -25.74 -3.36 
USER  
USER                              x       y       z    vdW   Elec        q     RMS 
ATOM      1  N   UNL     1      11.735  -5.809   4.488 -0.18 +0.00    +0.000    11.906
ATOM      2  H   UNL     1      11.110  -6.444   3.991 +0.01 +0.00    +0.000    11.906
ATOM      3  H   UNL     1      12.410  -5.381   3.855 +0.01 +0.00    +0.000    11.906
ATOM      4  C   UNL     1      12.484  -6.575   5.494 -0.28 +0.00    +0.000    11.906
ATOM      5  C   UNL     1      15.033  -9.399   3.435 -0.35 +0.00    +0.000    11.906
ATOM      6  C   UNL     1      15.130  -8.018   3.169 -0.29 +0.00    +0.000    11.906
ATOM      7  C   UNL     1      14.309  -7.108   3.841 -0.28 +0.00    +0.000    11.906
ATOM      8  C   UNL     1      13.391  -7.554   4.803 -0.29 +0.00    +0.000    11.906
ATOM      9  C   UNL     1      13.293  -8.927   5.073 -0.38 +0.00    +0.000    11.906
ATOM     10  C   UNL     1      14.115  -9.838   4.404 -0.36 +0.00    +0.000    11.906
ATOM     11  C   UNL     1      17.227 -10.427   2.852 -0.51 +0.00    +0.000    11.906
ATOM     12  C   UNL     1      15.889 -10.406   2.761 -0.46 +0.00    +0.000    11.906
ATOM     13  O   UNL     1      17.537 -12.214   1.353 -0.67 +0.00    +0.000    11.906
ATOM     14  C   UNL     1      18.076 -11.431   2.177 -0.46 -0.00    +0.000    11.906
ATOM     15  N   UNL     1      19.479 -11.558   2.447 -0.63 -0.00    +0.000    11.906
ATOM     16  H   UNL     1      19.893 -11.017   3.159 -0.03 -0.00    +0.000    11.906
ATOM     17  O   UNL     1      20.236 -12.420   1.727 -1.69 -0.00    +0.000    11.906
ATOM     18  H   UNL     1      19.663 -13.080   1.307 -0.47 -0.00    +0.000    11.906
ATOM     19  C   UNL     1      10.935  -4.732   5.092 -0.32 +0.00    +0.000    11.906
ATOM     20  C   UNL     1      11.693  -3.394   5.139 -0.41 +0.00    +0.000    11.906
ATOM     21  C   UNL     1      12.758  -3.361   4.080 -0.29 +0.00    +0.000    11.906
ATOM     22  C   UNL     1      12.583  -3.404   2.696 -0.17 -0.00    +0.000    11.906
ATOM     23  N   UNL     1      13.778  -3.423   2.062 -0.19 -0.00    +0.000    11.906
ATOM     24  C   UNL     1      14.708  -3.414   3.033 -0.28 -0.00    +0.000    11.906
ATOM     25  C   UNL     1      14.126  -3.384   4.275 -0.32 -0.00    +0.000    11.906
ATOM     26  C   UNL     1      14.888  -3.396   5.444 -0.22 -0.00    +0.000    11.906
ATOM     27  C   UNL     1      16.289  -3.432   5.315 -0.47 -0.00    +0.000    11.906
ATOM     28  C   UNL     1      16.888  -3.459   4.036 -0.37 -0.00    +0.000    11.906
ATOM     29  C   UNL     1      16.093  -3.451   2.875 -0.29 -0.00    +0.000    11.906
ATOM     30  C   UNL     1      11.268  -3.400   1.981 -0.15 -0.00    +0.000    11.906
ATOM     31  H   UNL     1      13.935  -3.438   1.090 -0.00 -0.00    +0.000    11.906
TER
ENDMDL
MODEL        7
USER    Run = 7
USER    Cluster Rank = 24
USER    Number of conformations in this cluster = 1
USER  
USER    RMSD from reference structure       = 14.884 A
USER  
USER    Estimated Free Energy of Binding    =   -8.27 kcal/mol  [=(1)+(2)+(3)-(4)]
USER    Estimated Inhibition Constant, Ki   =  865.76 nM (nanomolar)  [Temperature = 298.15 K]
USER    
USER    (1) Final Intermolecular Energy     =  -10.66 kcal/mol
USER        vdW + Hbond + desolv Energy     =  -10.66 kcal/mol
USER        Electrostatic Energy            =   +0.00 kcal/mol
USER    (2) Final Total Internal Energy     =   -2.21 kcal/mol
USER    (3) Torsional Free Energy           =   +2.39 kcal/mol
USER    (4) Unbound System's Energy  [=(2)] =   -2.21 kcal/mol
USER    
USER    
USER  
USER    DPF = ligand_dock.biased.dpf
USER    NEWDPF move	ligand.pdbqt
USER    NEWDPF about	0.698000 0.076000 -0.072000
USER    NEWDPF tran0	15.182703 -11.074032 -3.975710
USER    NEWDPF axisangle0	-0.205310 -0.269873 0.940753 130.324197
USER    NEWDPF quaternion0	-0.186319 -0.244910 0.853733 0.420052
USER    NEWDPF dihe0	1.85 97.16 -75.22 141.29 18.05 -132.42 179.63 162.68 
USER  
USER                              x       y       z    vdW   Elec        q     RMS 
ATOM      1  N   UNL     1      16.246 -10.626  -3.793 -0.18 -0.00    +0.000    14.884
ATOM      2  H   UNL     1      16.143  -9.987  -4.582 -0.00 -0.00    +0.000    14.884
ATOM      3  H   UNL     1      16.584 -11.539  -4.097 +0.09 -0.00    +0.000    14.884
ATOM      4  C   UNL     1      14.932 -10.819  -3.166 -0.29 -0.00    +0.000    14.884
ATOM      5  C   UNL     1      15.148 -10.083   1.091 -0.26 +0.00    +0.000    14.884
ATOM      6  C   UNL     1      15.210 -11.397   0.586 -0.35 +0.00    +0.000    14.884
ATOM      7  C   UNL     1      15.145 -11.631  -0.791 -0.35 +0.00    +0.000    14.884
ATOM      8  C   UNL     1      15.040 -10.560  -1.690 -0.27 -0.00    +0.000    14.884
ATOM      9  C   UNL     1      14.981  -9.249  -1.192 -0.22 -0.00    +0.000    14.884
ATOM     10  C   UNL     1      15.047  -9.015   0.185 -0.23 -0.00    +0.000    14.884
ATOM     11  C   UNL     1      14.150  -9.555   3.313 -0.35 +0.00    +0.000    14.884
ATOM     12  C   UNL     1      15.225  -9.778   2.542 -0.37 +0.00    +0.000    14.884
ATOM     13  O   UNL     1      14.647 -10.145   5.536 -0.51 +0.00    +0.000    14.884
ATOM     14  C   UNL     1      14.231  -9.249   4.756 -0.46 +0.00    +0.000    14.884
ATOM     15  N   UNL     1      13.829  -7.982   5.297 -0.39 +0.00    +0.000    14.884
ATOM     16  H   UNL     1      13.412  -7.309   4.712 +0.00 +0.00    +0.000    14.884
ATOM     17  O   UNL     1      14.021  -7.712   6.610 -0.53 +0.00    +0.000    14.884
ATOM     18  H   UNL     1      14.465  -8.462   7.034 -0.06 +0.00    +0.000    14.884
ATOM     19  C   UNL     1      17.233 -10.067  -2.857 -0.22 -0.00    +0.000    14.884
ATOM     20  C   UNL     1      18.669 -10.507  -3.186 -0.36 -0.00    +0.000    14.884
ATOM     21  C   UNL     1      19.544 -10.385  -1.971 -0.39 -0.00    +0.000    14.884
ATOM     22  C   UNL     1      20.761  -9.709  -1.863 -0.51 -0.00    +0.000    14.884
ATOM     23  N   UNL     1      21.293  -9.877  -0.630 -0.65 -0.00    +0.000    14.884
ATOM     24  C   UNL     1      20.436 -10.671   0.035 -0.59 -0.00    +0.000    14.884
ATOM     25  C   UNL     1      19.362 -11.008  -0.751 -0.44 -0.00    +0.000    14.884
ATOM     26  C   UNL     1      18.349 -11.848  -0.288 -0.46 -0.00    +0.000    14.884
ATOM     27  C   UNL     1      18.452 -12.342   1.025 -0.50 -0.00    +0.000    14.884
ATOM     28  C   UNL     1      19.555 -11.991   1.836 -0.65 -0.00    +0.000    14.884
ATOM     29  C   UNL     1      20.565 -11.146   1.340 -0.65 -0.00    +0.000    14.884
ATOM     30  C   UNL     1      21.397  -8.881  -2.933 -0.47 -0.00    +0.000    14.884
ATOM     31  H   UNL     1      22.134  -9.495  -0.290 -0.06 -0.00    +0.000    14.884
TER
ENDMDL
MODEL       26
USER    Run = 26
USER    Cluster Rank = 25
USER    Number of conformations in this cluster = 1
USER  
USER    RMSD from reference structure       = 17.376 A
USER  
USER    Estimated Free Energy of Binding    =   -8.10 kcal/mol  [=(1)+(2)+(3)-(4)]
USER    Estimated Inhibition Constant, Ki   =    1.16 uM (micromolar)  [Temperature = 298.15 K]
USER    
USER    (1) Final Intermolecular Energy     =  -10.48 kcal/mol
USER        vdW + Hbond + desolv Energy     =  -10.48 kcal/mol
USER        Electrostatic Energy            =   +0.00 kcal/mol
USER    (2) Final Total Internal Energy     =   -2.53 kcal/mol
USER    (3) Torsional Free Energy           =   +2.39 kcal/mol
USER    (4) Unbound System's Energy  [=(2)] =   -2.53 kcal/mol
USER    
USER    
USER  
USER    DPF = ligand_dock.biased.dpf
USER    NEWDPF move	ligand.pdbqt
USER    NEWDPF about	0.698000 0.076000 -0.072000
USER    NEWDPF tran0	17.100743 -10.540622 -7.096259
USER    NEWDPF axisangle0	-0.033388 0.671017 -0.740690 -101.839395
USER    NEWDPF quaternion0	-0.025918 0.520885 -0.574971 -0.630409
USER    NEWDPF dihe0	11.84 -1.49 -65.75 -170.56 90.16 -157.23 -172.29 162.93 
USER  
USER                              x       y       z    vdW   Elec        q     RMS 
ATOM      1  N   UNL     1      17.547  -9.472  -6.944 -0.12 -0.00    +0.000    17.376
ATOM      2  H   UNL     1      16.700  -9.036  -7.308 +0.00 -0.00    +0.000    17.376
ATOM      3  H   UNL     1      18.185  -9.729  -7.697 +0.00 -0.00    +0.000    17.376
ATOM      4  C   UNL     1      17.176 -10.700  -6.229 -0.30 -0.00    +0.000    17.376
ATOM      5  C   UNL     1      18.883 -10.730  -2.254 -0.35 -0.00    +0.000    17.376
ATOM      6  C   UNL     1      19.594 -11.270  -3.344 -0.36 -0.00    +0.000    17.376
ATOM      7  C   UNL     1      19.042 -11.253  -4.629 -0.35 -0.00    +0.000    17.376
ATOM      8  C   UNL     1      17.782 -10.681  -4.853 -0.22 -0.00    +0.000    17.376
ATOM      9  C   UNL     1      17.070 -10.140  -3.772 -0.23 -0.00    +0.000    17.376
ATOM     10  C   UNL     1      17.623 -10.154  -2.487 -0.14 -0.00    +0.000    17.376
ATOM     11  C   UNL     1      19.266 -11.713   0.004 -0.55 -0.00    +0.000    17.376
ATOM     12  C   UNL     1      19.427 -10.711  -0.873 -0.50 -0.00    +0.000    17.376
ATOM     13  O   UNL     1      19.850 -12.767   2.026 -1.51 -0.00    +0.000    17.376
ATOM     14  C   UNL     1      19.807 -11.688   1.379 -0.73 -0.00    +0.000    17.376
ATOM     15  N   UNL     1      20.259 -10.479   2.005 -0.60 -0.00    +0.000    17.376
ATOM     16  H   UNL     1      20.142  -9.616   1.547 -0.35 -0.00    +0.000    17.376
ATOM     17  O   UNL     1      20.845 -10.523   3.226 -0.69 -0.00    +0.000    17.376
ATOM     18  H   UNL     1      21.052 -11.443   3.452 -0.46 -0.00    +0.000    17.376
ATOM     19  C   UNL     1      18.239  -8.509  -6.073 -0.13 -0.00    +0.000    17.376
ATOM     20  C   UNL     1      19.596  -8.068  -6.648 -0.10 -0.00    +0.000    17.376
ATOM     21  C   UNL     1      20.671  -9.038  -6.250 -0.17 -0.00    +0.000    17.376
ATOM     22  C   UNL     1      21.327  -9.125  -5.020 -0.28 -0.00    +0.000    17.376
ATOM     23  N   UNL     1      22.285 -10.080  -5.055 -0.25 -0.00    +0.000    17.376
ATOM     24  C   UNL     1      22.257 -10.583  -6.301 -0.35 -0.00    +0.000    17.376
ATOM     25  C   UNL     1      21.293  -9.970  -7.061 -0.23 -0.00    +0.000    17.376
ATOM     26  C   UNL     1      21.090 -10.304  -8.400 -0.20 -0.00    +0.000    17.376
ATOM     27  C   UNL     1      21.905 -11.307  -8.958 -0.22 -0.00    +0.000    17.376
ATOM     28  C   UNL     1      22.894 -11.941  -8.174 -0.36 -0.00    +0.000    17.376
ATOM     29  C   UNL     1      23.079 -11.578  -6.828 -0.42 -0.00    +0.000    17.376
ATOM     30  C   UNL     1      21.015  -8.309  -3.806 -0.37 -0.00    +0.000    17.376
ATOM     31  H   UNL     1      22.880 -10.350  -4.318 +0.04 -0.00    +0.000    17.376
TER
ENDMDL


AVSFLD: # AVS field file
AVSFLD: #
AVSFLD: # Created by AutoDock
AVSFLD: #
AVSFLD: ndim=2           # number of dimensions in the field
AVSFLD: nspace=1         # number of physical coordinates
AVSFLD: veclen=7         # vector size
AVSFLD: dim1=31          # atoms
AVSFLD: dim2=25          # conformations
AVSFLD: data=Real       # data type (byte,integer,Real,double)
AVSFLD: field=uniform    # field coordinate layout
AVSFLD: label= x y z vdW Elec q RMS
AVSFLD: variable 1 file = ligand_dock.biased.dlg.pdb filetype = ascii offset = 5 stride = 12
AVSFLD: variable 2 file = ligand_dock.biased.dlg.pdb filetype = ascii offset = 6 stride = 12
AVSFLD: variable 3 file = ligand_dock.biased.dlg.pdb filetype = ascii offset = 7 stride = 12
AVSFLD: variable 4 file = ligand_dock.biased.dlg.pdb filetype = ascii offset = 8 stride = 12
AVSFLD: variable 5 file = ligand_dock.biased.dlg.pdb filetype = ascii offset = 9 stride = 12
AVSFLD: variable 6 file = ligand_dock.biased.dlg.pdb filetype = ascii offset = 10 stride = 12
AVSFLD: variable 7 file = ligand_dock.biased.dlg.pdb filetype = ascii offset = 11 stride = 12
AVSFLD: # end of file

>>> Closing the docking parameter file (DPF)...
This docking finished at:			5:46 17" p.m., 11/03/2024


________________________________________________________________________________

autodock4: Successful Completion on "ThinkStation-P620"

Real= 15m 02.25s,  CPU= 15m 01.86s,  System= 0.24s
________________________________________________________________________________

