REMARK  Name = 
REMARK  6 active torsions:
REMARK  status: ('A' for Active; 'I' for Inactive)
REMARK    1  A    between atoms: S_2  and  N_3
REMARK    2  A    between atoms: S_2  and  C_10
REMARK    3  A    between atoms: N_3  and  C_4
REMARK    4  A    between atoms: C_12  and  C_13
REMARK    5  A    between atoms: C_14  and  C_15
REMARK    6  A    between atoms: N_16  and  O_17
REMARK                            x       y       z     vdW  Elec       q    Type
REMARK                         _______ _______ _______ _____ _____    ______ ____
ROOT
ATOM      1  C   UNL     1      -0.138   0.328  -2.102  0.00  0.00    +0.000 A 
ATOM      2  C   UNL     1       0.632   0.478  -0.941  0.00  0.00    +0.000 A 
ATOM      3  C   UNL     1       1.647  -0.443  -0.628  0.00  0.00    +0.000 A 
ATOM      4  C   UNL     1       1.902  -1.503  -1.522  0.00  0.00    +0.000 A 
ATOM      5  C   UNL     1       1.140  -1.645  -2.685  0.00  0.00    +0.000 A 
ATOM      6  C   UNL     1       0.121  -0.736  -2.974  0.00  0.00    +0.000 A 
ENDROOT
BRANCH   1   8
ATOM      7  O   UNL     1      -2.470   0.843  -3.338  0.00  0.00    +0.000 OA
ATOM      8  S   UNL     1      -1.428   1.473  -2.457  0.00  0.00    +0.000 S 
ATOM      9  O   UNL     1      -0.839   2.659  -3.166  0.00  0.00    +0.000 OA
BRANCH   8  10
ATOM     10  N   UNL     1      -2.178   2.003  -0.983  0.00  0.00    +0.000 N 
ATOM     11  H   UNL     1      -2.253   2.972  -0.825  0.00  0.00    +0.000 HD
BRANCH  10  12
ATOM     12  C   UNL     1      -2.695   1.111   0.021  0.00  0.00    +0.000 A 
ATOM     13  C   UNL     1      -2.852  -0.269  -0.217  0.00  0.00    +0.000 A 
ATOM     14  C   UNL     1      -3.350  -1.106   0.786  0.00  0.00    +0.000 A 
ATOM     15  C   UNL     1      -3.700  -0.579   2.031  0.00  0.00    +0.000 A 
ATOM     16  C   UNL     1      -3.556   0.789   2.275  0.00  0.00    +0.000 A 
ATOM     17  C   UNL     1      -3.058   1.630   1.275  0.00  0.00    +0.000 A 
ENDBRANCH  10  12
ENDBRANCH   8  10
ENDBRANCH   1   8
BRANCH   3  18
ATOM     18  C   UNL     1       2.430  -0.239   0.616  0.00  0.00    +0.000 C 
ATOM     19  C   UNL     1       3.109  -1.216   1.236  0.00  0.00    +0.000 C 
BRANCH  19  20
ATOM     20  C   UNL     1       3.882  -1.007   2.477  0.00  0.00    +0.000 C 
ATOM     21  N   UNL     1       3.673   0.128   3.328  0.00  0.00    +0.000 N 
ATOM     22  O   UNL     1       4.735  -1.873   2.806  0.00  0.00    +0.000 OA
ATOM     23  H   UNL     1       2.940   0.757   3.137  0.00  0.00    +0.000 HD
BRANCH  21  24
ATOM     24  O   UNL     1       4.483   0.337   4.394  0.00  0.00    +0.000 OA
ATOM     25  H   UNL     1       5.147  -0.368   4.438  0.00  0.00    +0.000 HD
ENDBRANCH  21  24
ENDBRANCH  19  20
ENDBRANCH   3  18
TORSDOF 6
