          AutoDock 4.2 Release 4.2.6   
         (C) 1989-2012 The Scripps Research Institute
        AutoDock comes with ABSOLUTELY NO WARRANTY.
        AutoDock is free software, and you are welcome
        to redistribute it under certain conditions;
        for details type 'autodock4 -C'

                     main.cc  $Revision: 1.213 $

                   Compiled on Feb 20 2022 at 09:48:33


This file was created at:			10:03 16" a.m., 11/08/2024
                   on host:		"ThinkStation-P620"
Current Working Directory = "/home/antonio/Documenti/buccheri/IDROSSAMICO HDAC/HDAC 2/P/Ligand_3"

      ________________________________________________________________

                   SETTING UP DEFAULT PARAMETER LIBRARY
      ________________________________________________________________


Random number generator was seeded with values 328169, 1731056596.
Docking parameter file (DPF) used for this docking:		ligand_dock.biased.dpf
DPF> autodock_parameter_version 4.2       # used by autodock to validate parameter set

	Autodock parameter version 4.2.
DPF> outlev 1                             # diagnostic output level

Output Level = 1  ADT-COMPATIBLE OUTPUT DURING DOCKING.
DPF> intelec                              # calculate internal electrostatics

Electrostatic energies will be calculated for all non-bonds between moving atoms.
DPF> seed pid time                        # seeds for random generator

Random number generator was seeded with values 328169, 1731056596.
DPF> ligand_types A C OA N S HD           # atoms types in ligand

DPF> fld receptor.maps.fld                # grid_data_file

Opening Grid Map Dimensions file:		receptor.maps.fld
Grid Point Spacing =				0.375 Angstroms

Even Number of User-specified Grid Points =	70 x-points
						70 y-points
						70 z-points

Coordinates of Central Grid Point of Maps =	(24.757, -16.735, 0.794)
Macromolecule file used to create Grid Maps =	receptor.pdbqt
Grid Parameter file used to create Grid Maps =	receptor.gpf
Minimum coordinates in grid = (11.632, -29.860, -12.331)
Maximum coordinates in grid = (37.882, -3.610, 13.919)

DPF> map receptor.A.map                   # atom-specific affinity map

DPF> map receptor.C.map                   # atom-specific affinity map

DPF> map receptor.OA.biased.map

DPF> map receptor.N.map                   # atom-specific affinity map

DPF> map receptor.S.map                   # atom-specific affinity map

DPF> map receptor.HD.biased.map

DPF> elecmap receptor.e.map               # electrostatics map

DPF> desolvmap receptor.d.map             # desolvation map

DPF> move ligand.pdbqt                    # small molecule

1,4-interactions will be _ignored_ in the non-bonded internal energy calculation.

Ligand PDBQT file = "ligand.pdbqt"

INPUT LIGAND PDBQT FILE:
________________________

INPUT-LIGAND-PDBQT: REMARK  Name = 
INPUT-LIGAND-PDBQT: REMARK  6 active torsions:
INPUT-LIGAND-PDBQT: REMARK  status: ('A' for Active; 'I' for Inactive)
INPUT-LIGAND-PDBQT: REMARK    1  A    between atoms: S_2  and  N_3
INPUT-LIGAND-PDBQT: REMARK    2  A    between atoms: S_2  and  C_10
INPUT-LIGAND-PDBQT: REMARK    3  A    between atoms: N_3  and  C_4
INPUT-LIGAND-PDBQT: REMARK    4  A    between atoms: C_12  and  C_13
INPUT-LIGAND-PDBQT: REMARK    5  A    between atoms: C_14  and  C_15
INPUT-LIGAND-PDBQT: REMARK    6  A    between atoms: N_16  and  O_17
INPUT-LIGAND-PDBQT: REMARK                            x       y       z     vdW  Elec       q    Type
INPUT-LIGAND-PDBQT: REMARK                         _______ _______ _______ _____ _____    ______ ____
INPUT-LIGAND-PDBQT: ROOT
INPUT-LIGAND-PDBQT: ATOM      1  C   UNL     1      -0.138   0.328  -2.102  0.00  0.00    +0.000 A 
INPUT-LIGAND-PDBQT: ATOM      2  C   UNL     1       0.632   0.478  -0.941  0.00  0.00    +0.000 A 
INPUT-LIGAND-PDBQT: ATOM      3  C   UNL     1       1.647  -0.443  -0.628  0.00  0.00    +0.000 A 
INPUT-LIGAND-PDBQT: ATOM      4  C   UNL     1       1.902  -1.503  -1.522  0.00  0.00    +0.000 A 
INPUT-LIGAND-PDBQT: ATOM      5  C   UNL     1       1.140  -1.645  -2.685  0.00  0.00    +0.000 A 
INPUT-LIGAND-PDBQT: ATOM      6  C   UNL     1       0.121  -0.736  -2.974  0.00  0.00    +0.000 A 
INPUT-LIGAND-PDBQT: ENDROOT
INPUT-LIGAND-PDBQT: BRANCH   1   8
INPUT-LIGAND-PDBQT: ATOM      7  O   UNL     1      -2.470   0.843  -3.338  0.00  0.00    +0.000 OA
INPUT-LIGAND-PDBQT: ATOM      8  S   UNL     1      -1.428   1.473  -2.457  0.00  0.00    +0.000 S 
INPUT-LIGAND-PDBQT: ATOM      9  O   UNL     1      -0.839   2.659  -3.166  0.00  0.00    +0.000 OA
INPUT-LIGAND-PDBQT: BRANCH   8  10
INPUT-LIGAND-PDBQT: ATOM     10  N   UNL     1      -2.178   2.003  -0.983  0.00  0.00    +0.000 N 
INPUT-LIGAND-PDBQT: ATOM     11  H   UNL     1      -2.253   2.972  -0.825  0.00  0.00    +0.000 HD
INPUT-LIGAND-PDBQT: BRANCH  10  12
INPUT-LIGAND-PDBQT: ATOM     12  C   UNL     1      -2.695   1.111   0.021  0.00  0.00    +0.000 A 
INPUT-LIGAND-PDBQT: ATOM     13  C   UNL     1      -2.852  -0.269  -0.217  0.00  0.00    +0.000 A 
INPUT-LIGAND-PDBQT: ATOM     14  C   UNL     1      -3.350  -1.106   0.786  0.00  0.00    +0.000 A 
INPUT-LIGAND-PDBQT: ATOM     15  C   UNL     1      -3.700  -0.579   2.031  0.00  0.00    +0.000 A 
INPUT-LIGAND-PDBQT: ATOM     16  C   UNL     1      -3.556   0.789   2.275  0.00  0.00    +0.000 A 
INPUT-LIGAND-PDBQT: ATOM     17  C   UNL     1      -3.058   1.630   1.275  0.00  0.00    +0.000 A 
INPUT-LIGAND-PDBQT: ENDBRANCH  10  12
INPUT-LIGAND-PDBQT: ENDBRANCH   8  10
INPUT-LIGAND-PDBQT: ENDBRANCH   1   8
INPUT-LIGAND-PDBQT: BRANCH   3  18
INPUT-LIGAND-PDBQT: ATOM     18  C   UNL     1       2.430  -0.239   0.616  0.00  0.00    +0.000 C 
INPUT-LIGAND-PDBQT: ATOM     19  C   UNL     1       3.109  -1.216   1.236  0.00  0.00    +0.000 C 
INPUT-LIGAND-PDBQT: BRANCH  19  20
INPUT-LIGAND-PDBQT: ATOM     20  C   UNL     1       3.882  -1.007   2.477  0.00  0.00    +0.000 C 
INPUT-LIGAND-PDBQT: ATOM     21  N   UNL     1       3.673   0.128   3.328  0.00  0.00    +0.000 N 
INPUT-LIGAND-PDBQT: ATOM     22  O   UNL     1       4.735  -1.873   2.806  0.00  0.00    +0.000 OA
INPUT-LIGAND-PDBQT: ATOM     23  H   UNL     1       2.940   0.757   3.137  0.00  0.00    +0.000 HD
INPUT-LIGAND-PDBQT: BRANCH  21  24
INPUT-LIGAND-PDBQT: ATOM     24  O   UNL     1       4.483   0.337   4.394  0.00  0.00    +0.000 OA
INPUT-LIGAND-PDBQT: ATOM     25  H   UNL     1       5.147  -0.368   4.438  0.00  0.00    +0.000 HD
INPUT-LIGAND-PDBQT: ENDBRANCH  21  24
INPUT-LIGAND-PDBQT: ENDBRANCH  19  20
INPUT-LIGAND-PDBQT: ENDBRANCH   3  18
INPUT-LIGAND-PDBQT: TORSDOF 6
________________________________________________________________________________

Total charge on ligand                               =	+0.000 e
REMARK  Name = 
REMARK  6 active torsions:
REMARK  status: ('A' for Active; 'I' for Inactive)
REMARK    1  A    between atoms: S_2  and  N_3
REMARK    2  A    between atoms: S_2  and  C_10
REMARK    3  A    between atoms: N_3  and  C_4
REMARK    4  A    between atoms: C_12  and  C_13
REMARK    5  A    between atoms: C_14  and  C_15
REMARK    6  A    between atoms: N_16  and  O_17
REMARK                            x       y       z     vdW  Elec       q    Type
REMARK                         _______ _______ _______ _____ _____    ______ ____


Number of Rotatable Bonds in Small Molecule =	6 torsions
Number of atoms in ligand:  25

Number of non-hydrogen atoms in ligand:  22

Number of vibrational degrees of freedom of ligand:  69


Number of torsional degrees of freedom = 6
Estimated loss of torsional free energy upon binding = +1.7898 kcal/mol


DPF> about 0.293 0.181 0.279            # small molecule center

Small molecule center of rotation =	(+0.293, +0.181, +0.279)

DPF> tran0 random                         # initial coordinates/A or random

Initial translation =			(34.147, -7.999, 13.302) Angstroms
DPF> quaternion0 random                   # initial orientation

Each run will begin with a new, random initial orientation.
Initial quaternion,  (x,y,z,w) =	( 0.344, -0.296, 0.104, 0.885 ),
DPF> dihe0 random                         # initial dihedrals (relative) or random

DPF> torsdof 6                            # torsional degrees of freedom

Number of torsional degrees of freedom = 6
Free energy coefficient for torsional degrees of freedom = 0.2983, the factory default value.

Estimated loss of torsional free energy upon binding = +1.7898 kcal/mol

DPF> rmstol 2.0                           # cluster_tolerance/A

Maximum RMS tolerance for conformational cluster analysis = 2.00 Angstroms
DPF> extnrg 1000.0                        # external grid energy

External grid energy (beyond grid map walls) = 1000.00

DPF> e0max 0.0 10000                      # max initial energy; max number of retries

Using user-specified maximum number of retries for simanneal initialization, 10000 retries.
If the simanneal initial energy is greater than e0max, 0.000,
then a new, random initial state will be created.

DPF> ga_pop_size 150                      # number of individuals in population

A population of 150 individuals will be used
DPF> ga_num_evals 2500000                 # maximum number of energy evaluations

There will be at most 2500000 function evaluations used.
DPF> ga_num_generations 27000             # maximum number of generations

The GA will run for at most 27000 generations.
DPF> ga_elitism 1                         # number of top individuals to survive to next generation

The 1 best will be preserved each GA generation.
DPF> ga_mutation_rate 0.02                # rate of gene mutation

The mutation rate is 0.020000.
DPF> ga_crossover_rate 0.8                # rate of crossover

The crossover rate is 0.800000.
DPF> ga_window_size 10                    # 

The GA's selection window is 10 generations.
DPF> ga_cauchy_alpha 0.0                  # Alpha parameter of Cauchy distribution

The alpha parameter (for the Cauchy distribution) is being set to 0.000000.
DPF> ga_cauchy_beta 1.0                   # Beta parameter Cauchy distribution

The beta parameter (for the Cauchy distribution) is being set to 1.000000.
DPF> set_ga                               # set the above parameters for GA or LGA

DPF> sw_max_its 300                       # iterations of Solis & Wets local search

Solis & Wets algorithms will perform at most 300 iterations.
DPF> sw_max_succ 4                        # consecutive successes before changing rho

Solis & Wets algorithms expand rho every 4 in a row successes.
DPF> sw_max_fail 4                        # consecutive failures before changing rho

Solis & Wets algorithms contract rho every 4 in a row failures.
DPF> sw_rho 1.0                           # size of local search space to sample

rho is set to 1.000000.
DPF> sw_lb_rho 0.01                       # lower bound on rho

rho will never get smaller than 0.010000.
DPF> ls_search_freq 0.06                  # probability of performing local search on individual

Local search will be performed with frequency 0.060000.
DPF> set_psw1                             # set the above pseudo-Solis & Wets parameters

Creating a new Local Search object using the pseudo-Solis-Wets algorithm (pSW1) with the current settings.

DPF> unbound_model bound                  # state of unbound ligand

DPF> ga_run 100

centering ligand on specified point: 0.293 0.181 0.279
Furthest true ligand atom from "about" center is 6.416 Angstroms (maxrad).
Number of requested GA dockings = 100 runs
Unbound model to be used is 'same as bound' [AutoDock 4.2 default].

	BEGINNING GENETIC ALGORITHM DOCKING 1 of 100
Run: 1 Seed: 597319214 1743561698 [ Run 1 of 100 GA/GALS ]
Beginning LAMARCKIAN GENETIC ALGORITHM (LGA), with a maximum of 2500000 energy evaluations.

Final-Value: -15.133


	FINAL GENETIC ALGORITHM DOCKED STATE
	_______________________________________________


Detailed state:  trans 23.841 -17.151 -2.715 quatxyzw 0.119437 -0.764371 0.198441 -0.601742 center 0.293 0.181 0.279 ntor 6 -4.6394 159.7425 -141.6087 -76.4616 -60.2727 159.1477
State:	 23.841 -17.151  -2.715   0.150 -0.957  0.248 -106.011     -4.64  159.74 -141.61  -76.46  -60.27  159.15

DOCKED: MODEL        1
DOCKED: USER    Run = 1
DOCKED: USER    DPF = ligand_dock.biased.dpf
DOCKED: USER  
DOCKED: USER    Estimated Free Energy of Binding    =  -11.92 kcal/mol  [=(1)+(2)+(3)-(4)]
DOCKED: USER    Estimated Inhibition Constant, Ki   =    1.82 nM (nanomolar)  [Temperature = 298.15 K]
DOCKED: USER    
DOCKED: USER    (1) Final Intermolecular Energy     =  -13.71 kcal/mol
DOCKED: USER        vdW + Hbond + desolv Energy     =  -13.71 kcal/mol
DOCKED: USER        Electrostatic Energy            =   +0.00 kcal/mol
DOCKED: USER    (2) Final Total Internal Energy     =   -1.42 kcal/mol
DOCKED: USER    (3) Torsional Free Energy           =   +1.79 kcal/mol
DOCKED: USER    (4) Unbound System's Energy  [=(2)] =   -1.42 kcal/mol
DOCKED: USER    
DOCKED: USER    
DOCKED: USER    NEWDPF move ligand.pdbqt
DOCKED: USER    NEWDPF about 0.293000 0.181000 0.279000
DOCKED: USER    NEWDPF tran0 23.841261 -17.150859 -2.715361
DOCKED: USER    NEWDPF quaternion0 0.119437 -0.764371 0.198441 -0.601742
DOCKED: USER    NEWDPF axisangle0 0.149540 -0.957030 0.248457 -106.010538
DOCKED: USER    NEWDPF quat0 0.149540 -0.957030 0.248457 -106.010538
DOCKED: USER    NEWDPF dihe0 -4.64 159.74 -141.61 -76.46 -60.27 159.15 
DOCKED: USER  keepresnum = 1 
DOCKED: USER  
DOCKED: REMARK  Name = 
DOCKED: REMARK  6 active torsions:
DOCKED: REMARK  status: ('A' for Active; 'I' for Inactive)
DOCKED: REMARK    1  A    between atoms: S_2  and  N_3
DOCKED: REMARK    2  A    between atoms: S_2  and  C_10
DOCKED: REMARK    3  A    between atoms: N_3  and  C_4
DOCKED: REMARK    4  A    between atoms: C_12  and  C_13
DOCKED: REMARK    5  A    between atoms: C_14  and  C_15
DOCKED: REMARK    6  A    between atoms: N_16  and  O_17
DOCKED: REMARK                            x       y       z     vdW  Elec       q    Type
DOCKED: REMARK                         _______ _______ _______ _____ _____    ______ ____
DOCKED: USER                              x       y       z     vdW  Elec       q    Type
DOCKED: USER                           _______ _______ _______ _____ _____    ______ ____
DOCKED: ROOT
DOCKED: ATOM      1  C   UNL     1      25.963 -15.979  -2.687 -0.46 -0.00    +0.000 A 
DOCKED: ATOM      2  C   UNL     1      24.697 -16.321  -2.194 -0.38 -0.00    +0.000 A 
DOCKED: ATOM      3  C   UNL     1      24.561 -17.226  -1.127 -0.62 -0.00    +0.000 A 
DOCKED: ATOM      4  C   UNL     1      25.724 -17.758  -0.535 -0.59 -0.00    +0.000 A 
DOCKED: ATOM      5  C   UNL     1      26.987 -17.408  -1.020 -0.44 -0.00    +0.000 A 
DOCKED: ATOM      6  C   UNL     1      27.108 -16.525  -2.094 -0.32 -0.00    +0.000 A 
DOCKED: ENDROOT
DOCKED: BRANCH   1   8
DOCKED: ATOM      7  O   UNL     1      24.761 -14.346  -4.452 -1.05 -0.00    +0.000 OA
DOCKED: ATOM      8  S   UNL     1      26.110 -14.871  -4.047 -0.68 -0.00    +0.000 S 
DOCKED: ATOM      9  O   UNL     1      26.716 -15.608  -5.207 -1.15 +0.00    +0.000 OA
DOCKED: BRANCH   8  10
DOCKED: ATOM     10  N   UNL     1      27.133 -13.534  -3.621 -0.23 -0.00    +0.000 N 
DOCKED: ATOM     11  H   UNL     1      28.013 -13.734  -3.226 +0.01 -0.00    +0.000 HD
DOCKED: BRANCH  10  12
DOCKED: ATOM     12  C   UNL     1      26.772 -12.154  -3.809 -0.19 -0.00    +0.000 A 
DOCKED: ATOM     13  C   UNL     1      27.221 -11.141  -2.939 -0.11 -0.00    +0.000 A 
DOCKED: ATOM     14  C   UNL     1      26.856  -9.809  -3.159 -0.11 -0.00    +0.000 A 
DOCKED: ATOM     15  C   UNL     1      26.039  -9.474  -4.241 -0.17 -0.00    +0.000 A 
DOCKED: ATOM     16  C   UNL     1      25.582 -10.472  -5.105 -0.28 -0.00    +0.000 A 
DOCKED: ATOM     17  C   UNL     1      25.945 -11.805  -4.889 -0.29 -0.00    +0.000 A 
DOCKED: ENDBRANCH  10  12
DOCKED: ENDBRANCH   8  10
DOCKED: ENDBRANCH   1   8
DOCKED: BRANCH   3  18
DOCKED: ATOM     18  C   UNL     1      23.196 -17.556  -0.648 -0.77 -0.00    +0.000 C 
DOCKED: ATOM     19  C   UNL     1      22.525 -18.659  -1.014 -0.83 -0.00    +0.000 C 
DOCKED: BRANCH  19  20
DOCKED: ATOM     20  C   UNL     1      21.164 -18.979  -0.537 -0.87 -0.00    +0.000 C 
DOCKED: ATOM     21  N   UNL     1      20.858 -20.205   0.139 -0.59 -0.00    +0.000 N 
DOCKED: ATOM     22  O   UNL     1      20.252 -18.128  -0.711 -2.17 -0.00    +0.000 OA
DOCKED: ATOM     23  H   UNL     1      21.581 -20.831   0.373 -0.60 -0.00    +0.000 HD
DOCKED: BRANCH  21  24
DOCKED: ATOM     24  O   UNL     1      19.575 -20.505   0.457 -0.78 -0.00    +0.000 OA
DOCKED: ATOM     25  H   UNL     1      19.002 -19.758   0.225 -0.03 -0.00    +0.000 HD
DOCKED: ENDBRANCH  21  24
DOCKED: ENDBRANCH  19  20
DOCKED: ENDBRANCH   3  18
DOCKED: TORSDOF 6
DOCKED: TER
DOCKED: ENDMDL
________________________________________________________________________________


	BEGINNING GENETIC ALGORITHM DOCKING 2 of 100
Run: 2 Seed: 1841902717 1788445202 [ Run 2 of 100 GA/GALS ]
Beginning LAMARCKIAN GENETIC ALGORITHM (LGA), with a maximum of 2500000 energy evaluations.

Final-Value: -15.023


	FINAL GENETIC ALGORITHM DOCKED STATE
	_______________________________________________


Detailed state:  trans 24.468 -17.845 -2.589 quatxyzw 0.175375 -0.751933 0.315275 -0.551763 center 0.293 0.181 0.279 ntor 6 6.5900 -23.6014 -47.7694 -156.8109 -163.8658 100.2198
State:	 24.468 -17.845  -2.589   0.210 -0.902  0.378 -113.024      6.59  -23.60  -47.77 -156.81 -163.87  100.22

DOCKED: MODEL        2
DOCKED: USER    Run = 2
DOCKED: USER    DPF = ligand_dock.biased.dpf
DOCKED: USER  
DOCKED: USER    Estimated Free Energy of Binding    =  -11.78 kcal/mol  [=(1)+(2)+(3)-(4)]
DOCKED: USER    Estimated Inhibition Constant, Ki   =    2.33 nM (nanomolar)  [Temperature = 298.15 K]
DOCKED: USER    
DOCKED: USER    (1) Final Intermolecular Energy     =  -13.57 kcal/mol
DOCKED: USER        vdW + Hbond + desolv Energy     =  -13.57 kcal/mol
DOCKED: USER        Electrostatic Energy            =   +0.00 kcal/mol
DOCKED: USER    (2) Final Total Internal Energy     =   -1.46 kcal/mol
DOCKED: USER    (3) Torsional Free Energy           =   +1.79 kcal/mol
DOCKED: USER    (4) Unbound System's Energy  [=(2)] =   -1.46 kcal/mol
DOCKED: USER    
DOCKED: USER    
DOCKED: USER    NEWDPF move ligand.pdbqt
DOCKED: USER    NEWDPF about 0.293000 0.181000 0.279000
DOCKED: USER    NEWDPF tran0 24.468488 -17.844566 -2.588843
DOCKED: USER    NEWDPF quaternion0 0.175375 -0.751933 0.315275 -0.551763
DOCKED: USER    NEWDPF axisangle0 0.210282 -0.901597 0.378028 -113.023924
DOCKED: USER    NEWDPF quat0 0.210282 -0.901597 0.378028 -113.023924
DOCKED: USER    NEWDPF dihe0 6.59 -23.60 -47.77 -156.81 -163.87 100.22 
DOCKED: USER  keepresnum = 1 
DOCKED: USER  
DOCKED: REMARK  Name = 
DOCKED: REMARK  6 active torsions:
DOCKED: REMARK  status: ('A' for Active; 'I' for Inactive)
DOCKED: REMARK    1  A    between atoms: S_2  and  N_3
DOCKED: REMARK    2  A    between atoms: S_2  and  C_10
DOCKED: REMARK    3  A    between atoms: N_3  and  C_4
DOCKED: REMARK    4  A    between atoms: C_12  and  C_13
DOCKED: REMARK    5  A    between atoms: C_14  and  C_15
DOCKED: REMARK    6  A    between atoms: N_16  and  O_17
DOCKED: REMARK                            x       y       z     vdW  Elec       q    Type
DOCKED: REMARK                         _______ _______ _______ _____ _____    ______ ____
DOCKED: USER                              x       y       z     vdW  Elec       q    Type
DOCKED: USER                           _______ _______ _______ _____ _____    ______ ____
DOCKED: ROOT
DOCKED: ATOM      1  C   UNL     1      26.233 -16.182  -2.577 -0.41 -0.00    +0.000 A 
DOCKED: ATOM      2  C   UNL     1      25.053 -16.782  -2.119 -0.53 -0.00    +0.000 A 
DOCKED: ATOM      3  C   UNL     1      25.056 -17.587  -0.966 -0.62 -0.00    +0.000 A 
DOCKED: ATOM      4  C   UNL     1      26.263 -17.752  -0.257 -0.55 -0.00    +0.000 A 
DOCKED: ATOM      5  C   UNL     1      27.438 -17.145  -0.710 -0.41 -0.00    +0.000 A 
DOCKED: ATOM      6  C   UNL     1      27.426 -16.365  -1.868 -0.32 -0.00    +0.000 A 
DOCKED: ENDROOT
DOCKED: BRANCH   1   8
DOCKED: ATOM      7  O   UNL     1      25.647 -15.990  -5.195 -1.07 +0.00    +0.000 OA
DOCKED: ATOM      8  S   UNL     1      26.213 -15.207  -4.044 -0.69 -0.00    +0.000 S 
DOCKED: ATOM      9  O   UNL     1      27.622 -14.801  -4.372 -0.36 -0.00    +0.000 OA
DOCKED: BRANCH   8  10
DOCKED: ATOM     10  N   UNL     1      25.250 -13.783  -3.800 -0.48 -0.00    +0.000 N 
DOCKED: ATOM     11  H   UNL     1      24.502 -13.834  -3.162 -0.04 -0.00    +0.000 HD
DOCKED: BRANCH  10  12
DOCKED: ATOM     12  C   UNL     1      25.479 -12.533  -4.475 -0.30 -0.00    +0.000 A 
DOCKED: ATOM     13  C   UNL     1      26.777 -12.082  -4.789 -0.22 -0.00    +0.000 A 
DOCKED: ATOM     14  C   UNL     1      26.960 -10.865  -5.453 -0.15 -0.00    +0.000 A 
DOCKED: ATOM     15  C   UNL     1      25.857 -10.085  -5.807 -0.20 -0.00    +0.000 A 
DOCKED: ATOM     16  C   UNL     1      24.567 -10.519  -5.494 -0.39 -0.00    +0.000 A 
DOCKED: ATOM     17  C   UNL     1      24.379 -11.735  -4.830 -0.23 -0.00    +0.000 A 
DOCKED: ENDBRANCH  10  12
DOCKED: ENDBRANCH   8  10
DOCKED: ENDBRANCH   1   8
DOCKED: BRANCH   3  18
DOCKED: ATOM     18  C   UNL     1      23.779 -18.200  -0.526 -0.80 -0.00    +0.000 C 
DOCKED: ATOM     19  C   UNL     1      22.595 -17.950  -1.106 -0.73 -0.00    +0.000 C 
DOCKED: BRANCH  19  20
DOCKED: ATOM     20  C   UNL     1      21.326 -18.561  -0.660 -0.85 -0.00    +0.000 C 
DOCKED: ATOM     21  N   UNL     1      21.273 -19.855  -0.045 -0.61 -0.00    +0.000 N 
DOCKED: ATOM     22  O   UNL     1      20.261 -17.905  -0.804 -2.20 -0.00    +0.000 OA
DOCKED: ATOM     23  H   UNL     1      22.108 -20.333   0.166 -0.56 -0.00    +0.000 HD
DOCKED: BRANCH  21  24
DOCKED: ATOM     24  O   UNL     1      20.077 -20.423   0.243 -0.81 -0.00    +0.000 OA
DOCKED: ATOM     25  H   UNL     1      19.364 -19.875  -0.120 -0.03 -0.00    +0.000 HD
DOCKED: ENDBRANCH  21  24
DOCKED: ENDBRANCH  19  20
DOCKED: ENDBRANCH   3  18
DOCKED: TORSDOF 6
DOCKED: TER
DOCKED: ENDMDL
________________________________________________________________________________


	BEGINNING GENETIC ALGORITHM DOCKING 3 of 100
Run: 3 Seed: 2097014360 779915305 [ Run 3 of 100 GA/GALS ]
Beginning LAMARCKIAN GENETIC ALGORITHM (LGA), with a maximum of 2500000 energy evaluations.

Final-Value: -15.791


	FINAL GENETIC ALGORITHM DOCKED STATE
	_______________________________________________


Detailed state:  trans 23.987 -17.587 -2.559 quatxyzw 0.154741 -0.734426 0.249334 -0.611969 center 0.293 0.181 0.279 ntor 6 -7.3424 128.1226 -83.0576 157.8730 -122.2600 -166.5357
State:	 23.987 -17.587  -2.559   0.196 -0.929  0.315 -104.536     -7.34  128.12  -83.06  157.87 -122.26 -166.54

DOCKED: MODEL        3
DOCKED: USER    Run = 3
DOCKED: USER    DPF = ligand_dock.biased.dpf
DOCKED: USER  
DOCKED: USER    Estimated Free Energy of Binding    =  -12.42 kcal/mol  [=(1)+(2)+(3)-(4)]
DOCKED: USER    Estimated Inhibition Constant, Ki   =  793.11 pM (picomolar)  [Temperature = 298.15 K]
DOCKED: USER    
DOCKED: USER    (1) Final Intermolecular Energy     =  -14.21 kcal/mol
DOCKED: USER        vdW + Hbond + desolv Energy     =  -14.21 kcal/mol
DOCKED: USER        Electrostatic Energy            =   +0.00 kcal/mol
DOCKED: USER    (2) Final Total Internal Energy     =   -1.59 kcal/mol
DOCKED: USER    (3) Torsional Free Energy           =   +1.79 kcal/mol
DOCKED: USER    (4) Unbound System's Energy  [=(2)] =   -1.59 kcal/mol
DOCKED: USER    
DOCKED: USER    
DOCKED: USER    NEWDPF move ligand.pdbqt
DOCKED: USER    NEWDPF about 0.293000 0.181000 0.279000
DOCKED: USER    NEWDPF tran0 23.987280 -17.586957 -2.558879
DOCKED: USER    NEWDPF quaternion0 0.154741 -0.734426 0.249334 -0.611969
DOCKED: USER    NEWDPF axisangle0 0.195657 -0.928617 0.315260 -104.535953
DOCKED: USER    NEWDPF quat0 0.195657 -0.928617 0.315260 -104.535953
DOCKED: USER    NEWDPF dihe0 -7.34 128.12 -83.06 157.87 -122.26 -166.54 
DOCKED: USER  keepresnum = 1 
DOCKED: USER  
DOCKED: REMARK  Name = 
DOCKED: REMARK  6 active torsions:
DOCKED: REMARK  status: ('A' for Active; 'I' for Inactive)
DOCKED: REMARK    1  A    between atoms: S_2  and  N_3
DOCKED: REMARK    2  A    between atoms: S_2  and  C_10
DOCKED: REMARK    3  A    between atoms: N_3  and  C_4
DOCKED: REMARK    4  A    between atoms: C_12  and  C_13
DOCKED: REMARK    5  A    between atoms: C_14  and  C_15
DOCKED: REMARK    6  A    between atoms: N_16  and  O_17
DOCKED: REMARK                            x       y       z     vdW  Elec       q    Type
DOCKED: REMARK                         _______ _______ _______ _____ _____    ______ ____
DOCKED: USER                              x       y       z     vdW  Elec       q    Type
DOCKED: USER                           _______ _______ _______ _____ _____    ______ ____
DOCKED: ROOT
DOCKED: ATOM      1  C   UNL     1      25.953 -16.176  -2.704 -0.44 -0.00    +0.000 A 
DOCKED: ATOM      2  C   UNL     1      24.763 -16.637  -2.126 -0.48 -0.00    +0.000 A 
DOCKED: ATOM      3  C   UNL     1      24.790 -17.494  -1.012 -0.63 -0.00    +0.000 A 
DOCKED: ATOM      4  C   UNL     1      26.037 -17.855  -0.463 -0.58 -0.00    +0.000 A 
DOCKED: ATOM      5  C   UNL     1      27.223 -17.386  -1.034 -0.42 -0.00    +0.000 A 
DOCKED: ATOM      6  C   UNL     1      27.184 -16.552  -2.153 -0.31 -0.00    +0.000 A 
DOCKED: ENDROOT
DOCKED: BRANCH   1   8
DOCKED: ATOM      7  O   UNL     1      24.759 -14.156  -4.017 -1.09 -0.00    +0.000 OA
DOCKED: ATOM      8  S   UNL     1      25.897 -15.131  -4.121 -0.74 -0.00    +0.000 S 
DOCKED: ATOM      9  O   UNL     1      25.702 -15.984  -5.342 -1.08 +0.00    +0.000 OA
DOCKED: BRANCH   8  10
DOCKED: ATOM     10  N   UNL     1      27.386 -14.250  -4.272 -0.29 -0.00    +0.000 N 
DOCKED: ATOM     11  H   UNL     1      27.542 -13.498  -3.656 +0.00 -0.00    +0.000 HD
DOCKED: BRANCH  10  12
DOCKED: ATOM     12  C   UNL     1      28.404 -14.553  -5.243 -0.30 -0.00    +0.000 A 
DOCKED: ATOM     13  C   UNL     1      28.762 -13.641  -6.256 -0.26 -0.00    +0.000 A 
DOCKED: ATOM     14  C   UNL     1      29.762 -13.967  -7.178 -0.25 -0.00    +0.000 A 
DOCKED: ATOM     15  C   UNL     1      30.409 -15.202  -7.103 -0.27 -0.00    +0.000 A 
DOCKED: ATOM     16  C   UNL     1      30.056 -16.117  -6.108 -0.30 -0.00    +0.000 A 
DOCKED: ATOM     17  C   UNL     1      29.057 -15.795  -5.184 -0.30 -0.00    +0.000 A 
DOCKED: ENDBRANCH  10  12
DOCKED: ENDBRANCH   8  10
DOCKED: ENDBRANCH   1   8
DOCKED: BRANCH   3  18
DOCKED: ATOM     18  C   UNL     1      23.500 -17.955  -0.441 -0.79 -0.00    +0.000 C 
DOCKED: ATOM     19  C   UNL     1      22.418 -18.238  -1.182 -0.71 -0.00    +0.000 C 
DOCKED: BRANCH  19  20
DOCKED: ATOM     20  C   UNL     1      21.135 -18.691  -0.607 -0.84 -0.00    +0.000 C 
DOCKED: ATOM     21  N   UNL     1      21.004 -19.943   0.081 -0.65 -0.00    +0.000 N 
DOCKED: ATOM     22  O   UNL     1      20.132 -17.937  -0.706 -2.09 -0.00    +0.000 OA
DOCKED: ATOM     23  H   UNL     1      21.801 -20.493   0.255 -0.59 -0.00    +0.000 HD
DOCKED: BRANCH  21  24
DOCKED: ATOM     24  O   UNL     1      19.785 -20.368   0.491 -0.78 -0.00    +0.000 OA
DOCKED: ATOM     25  H   UNL     1      19.132 -19.666   0.347 -0.03 -0.00    +0.000 HD
DOCKED: ENDBRANCH  21  24
DOCKED: ENDBRANCH  19  20
DOCKED: ENDBRANCH   3  18
DOCKED: TORSDOF 6
DOCKED: TER
DOCKED: ENDMDL
________________________________________________________________________________


	BEGINNING GENETIC ALGORITHM DOCKING 4 of 100
Run: 4 Seed: 1705609898 40050546 [ Run 4 of 100 GA/GALS ]
Beginning LAMARCKIAN GENETIC ALGORITHM (LGA), with a maximum of 2500000 energy evaluations.

Final-Value: -15.723


	FINAL GENETIC ALGORITHM DOCKED STATE
	_______________________________________________


Detailed state:  trans 24.071 -17.598 -2.557 quatxyzw 0.158552 -0.734797 0.265368 -0.603751 center 0.293 0.181 0.279 ntor 6 -6.9422 121.1763 -82.1886 170.6775 -125.5134 -168.2070
State:	 24.071 -17.598  -2.557   0.199 -0.922  0.333 -105.722     -6.94  121.18  -82.19  170.68 -125.51 -168.21

DOCKED: MODEL        4
DOCKED: USER    Run = 4
DOCKED: USER    DPF = ligand_dock.biased.dpf
DOCKED: USER  
DOCKED: USER    Estimated Free Energy of Binding    =  -12.37 kcal/mol  [=(1)+(2)+(3)-(4)]
DOCKED: USER    Estimated Inhibition Constant, Ki   =  849.87 pM (picomolar)  [Temperature = 298.15 K]
DOCKED: USER    
DOCKED: USER    (1) Final Intermolecular Energy     =  -14.16 kcal/mol
DOCKED: USER        vdW + Hbond + desolv Energy     =  -14.16 kcal/mol
DOCKED: USER        Electrostatic Energy            =   +0.00 kcal/mol
DOCKED: USER    (2) Final Total Internal Energy     =   -1.56 kcal/mol
DOCKED: USER    (3) Torsional Free Energy           =   +1.79 kcal/mol
DOCKED: USER    (4) Unbound System's Energy  [=(2)] =   -1.56 kcal/mol
DOCKED: USER    
DOCKED: USER    
DOCKED: USER    NEWDPF move ligand.pdbqt
DOCKED: USER    NEWDPF about 0.293000 0.181000 0.279000
DOCKED: USER    NEWDPF tran0 24.071006 -17.597599 -2.557201
DOCKED: USER    NEWDPF quaternion0 0.158552 -0.734797 0.265368 -0.603751
DOCKED: USER    NEWDPF axisangle0 0.198893 -0.921753 0.332887 -105.722031
DOCKED: USER    NEWDPF quat0 0.198893 -0.921753 0.332887 -105.722031
DOCKED: USER    NEWDPF dihe0 -6.94 121.18 -82.19 170.68 -125.51 -168.21 
DOCKED: USER  keepresnum = 1 
DOCKED: USER  
DOCKED: REMARK  Name = 
DOCKED: REMARK  6 active torsions:
DOCKED: REMARK  status: ('A' for Active; 'I' for Inactive)
DOCKED: REMARK    1  A    between atoms: S_2  and  N_3
DOCKED: REMARK    2  A    between atoms: S_2  and  C_10
DOCKED: REMARK    3  A    between atoms: N_3  and  C_4
DOCKED: REMARK    4  A    between atoms: C_12  and  C_13
DOCKED: REMARK    5  A    between atoms: C_14  and  C_15
DOCKED: REMARK    6  A    between atoms: N_16  and  O_17
DOCKED: REMARK                            x       y       z     vdW  Elec       q    Type
DOCKED: REMARK                         _______ _______ _______ _____ _____    ______ ____
DOCKED: USER                              x       y       z     vdW  Elec       q    Type
DOCKED: USER                           _______ _______ _______ _____ _____    ______ ____
DOCKED: ROOT
DOCKED: ATOM      1  C   UNL     1      25.997 -16.132  -2.695 -0.44 -0.00    +0.000 A 
DOCKED: ATOM      2  C   UNL     1      24.812 -16.618  -2.128 -0.49 -0.00    +0.000 A 
DOCKED: ATOM      3  C   UNL     1      24.846 -17.457  -1.000 -0.63 -0.00    +0.000 A 
DOCKED: ATOM      4  C   UNL     1      26.094 -17.772  -0.425 -0.57 -0.00    +0.000 A 
DOCKED: ATOM      5  C   UNL     1      27.275 -17.277  -0.986 -0.42 -0.00    +0.000 A 
DOCKED: ATOM      6  C   UNL     1      27.229 -16.463  -2.119 -0.32 -0.00    +0.000 A 
DOCKED: ENDROOT
DOCKED: BRANCH   1   8
DOCKED: ATOM      7  O   UNL     1      24.742 -14.197  -4.078 -1.10 -0.00    +0.000 OA
DOCKED: ATOM      8  S   UNL     1      25.933 -15.112  -4.129 -0.73 -0.00    +0.000 S 
DOCKED: ATOM      9  O   UNL     1      25.823 -15.991  -5.342 -1.11 +0.00    +0.000 OA
DOCKED: BRANCH   8  10
DOCKED: ATOM     10  N   UNL     1      27.378 -14.155  -4.246 -0.28 -0.00    +0.000 N 
DOCKED: ATOM     11  H   UNL     1      27.567 -13.514  -3.524 +0.00 -0.00    +0.000 HD
DOCKED: BRANCH  10  12
DOCKED: ATOM     12  C   UNL     1      28.314 -14.244  -5.336 -0.29 -0.00    +0.000 A 
DOCKED: ATOM     13  C   UNL     1      28.452 -13.212  -6.286 -0.24 -0.00    +0.000 A 
DOCKED: ATOM     14  C   UNL     1      29.378 -13.330  -7.326 -0.24 -0.00    +0.000 A 
DOCKED: ATOM     15  C   UNL     1      30.171 -14.475  -7.434 -0.23 -0.00    +0.000 A 
DOCKED: ATOM     16  C   UNL     1      30.036 -15.507  -6.503 -0.30 -0.00    +0.000 A 
DOCKED: ATOM     17  C   UNL     1      29.111 -15.394  -5.460 -0.31 -0.00    +0.000 A 
DOCKED: ENDBRANCH  10  12
DOCKED: ENDBRANCH   8  10
DOCKED: ENDBRANCH   1   8
DOCKED: BRANCH   3  18
DOCKED: ATOM     18  C   UNL     1      23.561 -17.946  -0.442 -0.78 -0.00    +0.000 C 
DOCKED: ATOM     19  C   UNL     1      22.479 -18.212  -1.189 -0.71 -0.00    +0.000 C 
DOCKED: BRANCH  19  20
DOCKED: ATOM     20  C   UNL     1      21.202 -18.695  -0.626 -0.85 -0.00    +0.000 C 
DOCKED: ATOM     21  N   UNL     1      21.086 -19.961   0.037 -0.63 -0.00    +0.000 N 
DOCKED: ATOM     22  O   UNL     1      20.189 -17.951  -0.712 -2.14 -0.00    +0.000 OA
DOCKED: ATOM     23  H   UNL     1      21.890 -20.504   0.202 -0.58 -0.00    +0.000 HD
DOCKED: BRANCH  21  24
DOCKED: ATOM     24  O   UNL     1      19.872 -20.411   0.436 -0.79 -0.00    +0.000 OA
DOCKED: ATOM     25  H   UNL     1      19.209 -19.717   0.298 -0.02 -0.00    +0.000 HD
DOCKED: ENDBRANCH  21  24
DOCKED: ENDBRANCH  19  20
DOCKED: ENDBRANCH   3  18
DOCKED: TORSDOF 6
DOCKED: TER
DOCKED: ENDMDL
________________________________________________________________________________


	BEGINNING GENETIC ALGORITHM DOCKING 5 of 100
Run: 5 Seed: 1644304520 609954733 [ Run 5 of 100 GA/GALS ]
Beginning LAMARCKIAN GENETIC ALGORITHM (LGA), with a maximum of 2500000 energy evaluations.

Final-Value: -15.719


	FINAL GENETIC ALGORITHM DOCKED STATE
	_______________________________________________


Detailed state:  trans 24.277 -18.313 -2.816 quatxyzw -0.244120 0.781156 -0.343927 0.460342 center 0.293 0.181 0.279 ntor 6 9.3064 109.8931 38.9526 168.2708 169.3551 -143.9857
State:	 24.277 -18.313  -2.816  -0.275  0.880 -0.387 125.182      9.31  109.89   38.95  168.27  169.36 -143.99

DOCKED: MODEL        5
DOCKED: USER    Run = 5
DOCKED: USER    DPF = ligand_dock.biased.dpf
DOCKED: USER  
DOCKED: USER    Estimated Free Energy of Binding    =  -12.39 kcal/mol  [=(1)+(2)+(3)-(4)]
DOCKED: USER    Estimated Inhibition Constant, Ki   =  823.81 pM (picomolar)  [Temperature = 298.15 K]
DOCKED: USER    
DOCKED: USER    (1) Final Intermolecular Energy     =  -14.18 kcal/mol
DOCKED: USER        vdW + Hbond + desolv Energy     =  -14.18 kcal/mol
DOCKED: USER        Electrostatic Energy            =   +0.00 kcal/mol
DOCKED: USER    (2) Final Total Internal Energy     =   -1.54 kcal/mol
DOCKED: USER    (3) Torsional Free Energy           =   +1.79 kcal/mol
DOCKED: USER    (4) Unbound System's Energy  [=(2)] =   -1.54 kcal/mol
DOCKED: USER    
DOCKED: USER    
DOCKED: USER    NEWDPF move ligand.pdbqt
DOCKED: USER    NEWDPF about 0.293000 0.181000 0.279000
DOCKED: USER    NEWDPF tran0 24.276905 -18.313112 -2.815585
DOCKED: USER    NEWDPF quaternion0 -0.244120 0.781156 -0.343927 0.460342
DOCKED: USER    NEWDPF axisangle0 -0.274989 0.879937 -0.387417 125.181613
DOCKED: USER    NEWDPF quat0 -0.274989 0.879937 -0.387417 125.181613
DOCKED: USER    NEWDPF dihe0 9.31 109.89 38.95 168.27 169.36 -143.99 
DOCKED: USER  keepresnum = 1 
DOCKED: USER  
DOCKED: REMARK  Name = 
DOCKED: REMARK  6 active torsions:
DOCKED: REMARK  status: ('A' for Active; 'I' for Inactive)
DOCKED: REMARK    1  A    between atoms: S_2  and  N_3
DOCKED: REMARK    2  A    between atoms: S_2  and  C_10
DOCKED: REMARK    3  A    between atoms: N_3  and  C_4
DOCKED: REMARK    4  A    between atoms: C_12  and  C_13
DOCKED: REMARK    5  A    between atoms: C_14  and  C_15
DOCKED: REMARK    6  A    between atoms: N_16  and  O_17
DOCKED: REMARK                            x       y       z     vdW  Elec       q    Type
DOCKED: REMARK                         _______ _______ _______ _____ _____    ______ ____
DOCKED: USER                              x       y       z     vdW  Elec       q    Type
DOCKED: USER                           _______ _______ _______ _____ _____    ______ ____
DOCKED: ROOT
DOCKED: ATOM      1  C   UNL     1      25.684 -16.376  -2.435 -0.48 -0.00    +0.000 A 
DOCKED: ATOM      2  C   UNL     1      24.587 -17.214  -2.193 -0.41 -0.00    +0.000 A 
DOCKED: ATOM      3  C   UNL     1      24.594 -18.112  -1.111 -0.65 -0.00    +0.000 A 
DOCKED: ATOM      4  C   UNL     1      25.710 -18.130  -0.250 -0.60 -0.00    +0.000 A 
DOCKED: ATOM      5  C   UNL     1      26.798 -17.286  -0.487 -0.48 -0.00    +0.000 A 
DOCKED: ATOM      6  C   UNL     1      26.789 -16.414  -1.577 -0.39 -0.00    +0.000 A 
DOCKED: ENDROOT
DOCKED: BRANCH   1   8
DOCKED: ATOM      7  O   UNL     1      24.531 -14.309  -3.712 -0.95 -0.00    +0.000 OA
DOCKED: ATOM      8  S   UNL     1      25.670 -15.284  -3.817 -0.71 -0.00    +0.000 S 
DOCKED: ATOM      9  O   UNL     1      25.507 -16.095  -5.071 -0.93 -0.00    +0.000 OA
DOCKED: BRANCH   8  10
DOCKED: ATOM     10  N   UNL     1      27.164 -14.403  -3.897 -0.30 -0.00    +0.000 N 
DOCKED: ATOM     11  H   UNL     1      27.374 -13.782  -3.162 +0.00 -0.00    +0.000 HD
DOCKED: BRANCH  10  12
DOCKED: ATOM     12  C   UNL     1      28.113 -14.526  -4.972 -0.30 -0.00    +0.000 A 
DOCKED: ATOM     13  C   UNL     1      28.159 -13.601  -6.034 -0.26 -0.00    +0.000 A 
DOCKED: ATOM     14  C   UNL     1      29.100 -13.748  -7.057 -0.29 -0.00    +0.000 A 
DOCKED: ATOM     15  C   UNL     1      29.999 -14.817  -7.036 -0.28 -0.00    +0.000 A 
DOCKED: ATOM     16  C   UNL     1      29.957 -15.744  -5.992 -0.29 -0.00    +0.000 A 
DOCKED: ATOM     17  C   UNL     1      29.017 -15.600  -4.966 -0.29 -0.00    +0.000 A 
DOCKED: ENDBRANCH  10  12
DOCKED: ENDBRANCH   8  10
DOCKED: ENDBRANCH   1   8
DOCKED: BRANCH   3  18
DOCKED: ATOM     18  C   UNL     1      23.408 -18.979  -0.903 -0.80 -0.00    +0.000 C 
DOCKED: ATOM     19  C   UNL     1      22.154 -18.611  -1.209 -0.74 -0.00    +0.000 C 
DOCKED: BRANCH  19  20
DOCKED: ATOM     20  C   UNL     1      20.978 -19.477  -0.994 -0.84 -0.00    +0.000 C 
DOCKED: ATOM     21  N   UNL     1      20.642 -20.007   0.296 -0.69 -0.00    +0.000 N 
DOCKED: ATOM     22  O   UNL     1      20.234 -19.735  -1.977 -1.86 -0.00    +0.000 OA
DOCKED: ATOM     23  H   UNL     1      21.154 -19.730   1.090 -0.47 -0.00    +0.000 HD
DOCKED: BRANCH  21  24
DOCKED: ATOM     24  O   UNL     1      19.620 -20.888   0.424 -0.77 -0.00    +0.000 OA
DOCKED: ATOM     25  H   UNL     1      19.321 -21.166  -0.456 -0.40 -0.00    +0.000 HD
DOCKED: ENDBRANCH  21  24
DOCKED: ENDBRANCH  19  20
DOCKED: ENDBRANCH   3  18
DOCKED: TORSDOF 6
DOCKED: TER
DOCKED: ENDMDL
________________________________________________________________________________


	BEGINNING GENETIC ALGORITHM DOCKING 6 of 100
Run: 6 Seed: 179511588 212920112 [ Run 6 of 100 GA/GALS ]
Beginning LAMARCKIAN GENETIC ALGORITHM (LGA), with a maximum of 2500000 energy evaluations.

Final-Value: -15.814


	FINAL GENETIC ALGORITHM DOCKED STATE
	_______________________________________________


Detailed state:  trans 24.235 -17.941 -2.711 quatxyzw 0.206150 -0.761316 0.307088 -0.532538 center 0.293 0.181 0.279 ntor 6 23.8756 119.6722 -32.9037 160.7759 180.0000 -152.0396
State:	 24.235 -17.941  -2.711   0.244 -0.899  0.363 -115.646     23.88  119.67  -32.90  160.78  180.00 -152.04

DOCKED: MODEL        6
DOCKED: USER    Run = 6
DOCKED: USER    DPF = ligand_dock.biased.dpf
DOCKED: USER  
DOCKED: USER    Estimated Free Energy of Binding    =  -12.55 kcal/mol  [=(1)+(2)+(3)-(4)]
DOCKED: USER    Estimated Inhibition Constant, Ki   =  635.06 pM (picomolar)  [Temperature = 298.15 K]
DOCKED: USER    
DOCKED: USER    (1) Final Intermolecular Energy     =  -14.34 kcal/mol
DOCKED: USER        vdW + Hbond + desolv Energy     =  -14.34 kcal/mol
DOCKED: USER        Electrostatic Energy            =   +0.00 kcal/mol
DOCKED: USER    (2) Final Total Internal Energy     =   -1.48 kcal/mol
DOCKED: USER    (3) Torsional Free Energy           =   +1.79 kcal/mol
DOCKED: USER    (4) Unbound System's Energy  [=(2)] =   -1.48 kcal/mol
DOCKED: USER    
DOCKED: USER    
DOCKED: USER    NEWDPF move ligand.pdbqt
DOCKED: USER    NEWDPF about 0.293000 0.181000 0.279000
DOCKED: USER    NEWDPF tran0 24.234700 -17.941293 -2.711435
DOCKED: USER    NEWDPF quaternion0 0.206150 -0.761316 0.307088 -0.532538
DOCKED: USER    NEWDPF axisangle0 0.243559 -0.899469 0.362814 -115.645869
DOCKED: USER    NEWDPF quat0 0.243559 -0.899469 0.362814 -115.645869
DOCKED: USER    NEWDPF dihe0 23.88 119.67 -32.90 160.78 180.00 -152.04 
DOCKED: USER  keepresnum = 1 
DOCKED: USER  
DOCKED: REMARK  Name = 
DOCKED: REMARK  6 active torsions:
DOCKED: REMARK  status: ('A' for Active; 'I' for Inactive)
DOCKED: REMARK    1  A    between atoms: S_2  and  N_3
DOCKED: REMARK    2  A    between atoms: S_2  and  C_10
DOCKED: REMARK    3  A    between atoms: N_3  and  C_4
DOCKED: REMARK    4  A    between atoms: C_12  and  C_13
DOCKED: REMARK    5  A    between atoms: C_14  and  C_15
DOCKED: REMARK    6  A    between atoms: N_16  and  O_17
DOCKED: REMARK                            x       y       z     vdW  Elec       q    Type
DOCKED: REMARK                         _______ _______ _______ _____ _____    ______ ____
DOCKED: USER                              x       y       z     vdW  Elec       q    Type
DOCKED: USER                           _______ _______ _______ _____ _____    ______ ____
DOCKED: ROOT
DOCKED: ATOM      1  C   UNL     1      25.920 -16.204  -2.571 -0.46 -0.00    +0.000 A 
DOCKED: ATOM      2  C   UNL     1      24.761 -16.883  -2.169 -0.49 -0.00    +0.000 A 
DOCKED: ATOM      3  C   UNL     1      24.784 -17.753  -1.066 -0.65 -0.00    +0.000 A 
DOCKED: ATOM      4  C   UNL     1      25.987 -17.906  -0.346 -0.59 -0.00    +0.000 A 
DOCKED: ATOM      5  C   UNL     1      27.139 -17.220  -0.741 -0.44 -0.00    +0.000 A 
DOCKED: ATOM      6  C   UNL     1      27.108 -16.374  -1.851 -0.35 -0.00    +0.000 A 
DOCKED: ENDROOT
DOCKED: BRANCH   1   8
DOCKED: ATOM      7  O   UNL     1      24.764 -14.143  -3.854 -1.04 -0.00    +0.000 OA
DOCKED: ATOM      8  S   UNL     1      25.877 -15.145  -3.977 -0.73 -0.00    +0.000 S 
DOCKED: ATOM      9  O   UNL     1      25.650 -15.982  -5.204 -1.08 +0.00    +0.000 OA
DOCKED: BRANCH   8  10
DOCKED: ATOM     10  N   UNL     1      27.386 -14.300  -4.134 -0.28 -0.00    +0.000 N 
DOCKED: ATOM     11  H   UNL     1      27.586 -13.587  -3.485 +0.00 -0.00    +0.000 HD
DOCKED: BRANCH  10  12
DOCKED: ATOM     12  C   UNL     1      28.361 -14.580  -5.155 -0.30 -0.00    +0.000 A 
DOCKED: ATOM     13  C   UNL     1      28.588 -13.698  -6.231 -0.27 -0.00    +0.000 A 
DOCKED: ATOM     14  C   UNL     1      29.550 -14.000  -7.199 -0.27 -0.00    +0.000 A 
DOCKED: ATOM     15  C   UNL     1      30.291 -15.180  -7.110 -0.27 -0.00    +0.000 A 
DOCKED: ATOM     16  C   UNL     1      30.069 -16.065  -6.052 -0.29 -0.00    +0.000 A 
DOCKED: ATOM     17  C   UNL     1      29.108 -15.767  -5.080 -0.29 -0.00    +0.000 A 
DOCKED: ENDBRANCH  10  12
DOCKED: ENDBRANCH   8  10
DOCKED: ENDBRANCH   1   8
DOCKED: BRANCH   3  18
DOCKED: ATOM     18  C   UNL     1      23.530 -18.450  -0.686 -0.82 -0.00    +0.000 C 
DOCKED: ATOM     19  C   UNL     1      22.307 -18.021  -1.033 -0.74 -0.00    +0.000 C 
DOCKED: BRANCH  19  20
DOCKED: ATOM     20  C   UNL     1      21.062 -18.716  -0.647 -0.85 -0.00    +0.000 C 
DOCKED: ATOM     21  N   UNL     1      21.060 -20.056  -0.136 -0.63 -0.00    +0.000 N 
DOCKED: ATOM     22  O   UNL     1      19.972 -18.095  -0.749 -1.94 -0.00    +0.000 OA
DOCKED: ATOM     23  H   UNL     1      21.912 -20.514   0.045 -0.58 -0.00    +0.000 HD
DOCKED: BRANCH  21  24
DOCKED: ATOM     24  O   UNL     1      19.887 -20.693   0.096 -0.80 -0.00    +0.000 OA
DOCKED: ATOM     25  H   UNL     1      19.192 -20.301  -0.455 -0.18 -0.00    +0.000 HD
DOCKED: ENDBRANCH  21  24
DOCKED: ENDBRANCH  19  20
DOCKED: ENDBRANCH   3  18
DOCKED: TORSDOF 6
DOCKED: TER
DOCKED: ENDMDL
________________________________________________________________________________


	BEGINNING GENETIC ALGORITHM DOCKING 7 of 100
Run: 7 Seed: 859284229 1001241078 [ Run 7 of 100 GA/GALS ]
Beginning LAMARCKIAN GENETIC ALGORITHM (LGA), with a maximum of 2500000 energy evaluations.

Final-Value: -15.015


	FINAL GENETIC ALGORITHM DOCKED STATE
	_______________________________________________


Detailed state:  trans 24.353 -17.877 -2.769 quatxyzw -0.218140 0.789052 -0.241757 0.520928 center 0.293 0.181 0.279 ntor 6 44.7430 -180.0000 -15.3005 19.3760 171.8168 171.3116
State:	 24.353 -17.877  -2.769  -0.256  0.924 -0.283 117.211     44.74 -180.00  -15.30   19.38  171.82  171.31

DOCKED: MODEL        7
DOCKED: USER    Run = 7
DOCKED: USER    DPF = ligand_dock.biased.dpf
DOCKED: USER  
DOCKED: USER    Estimated Free Energy of Binding    =  -11.88 kcal/mol  [=(1)+(2)+(3)-(4)]
DOCKED: USER    Estimated Inhibition Constant, Ki   =    1.96 nM (nanomolar)  [Temperature = 298.15 K]
DOCKED: USER    
DOCKED: USER    (1) Final Intermolecular Energy     =  -13.67 kcal/mol
DOCKED: USER        vdW + Hbond + desolv Energy     =  -13.67 kcal/mol
DOCKED: USER        Electrostatic Energy            =   +0.00 kcal/mol
DOCKED: USER    (2) Final Total Internal Energy     =   -1.35 kcal/mol
DOCKED: USER    (3) Torsional Free Energy           =   +1.79 kcal/mol
DOCKED: USER    (4) Unbound System's Energy  [=(2)] =   -1.35 kcal/mol
DOCKED: USER    
DOCKED: USER    
DOCKED: USER    NEWDPF move ligand.pdbqt
DOCKED: USER    NEWDPF about 0.293000 0.181000 0.279000
DOCKED: USER    NEWDPF tran0 24.352705 -17.876557 -2.769450
DOCKED: USER    NEWDPF quaternion0 -0.218140 0.789052 -0.241757 0.520928
DOCKED: USER    NEWDPF axisangle0 -0.255552 0.924380 -0.283220 117.210926
DOCKED: USER    NEWDPF quat0 -0.255552 0.924380 -0.283220 117.210926
DOCKED: USER    NEWDPF dihe0 44.74 -180.00 -15.30 19.38 171.82 171.31 
DOCKED: USER  keepresnum = 1 
DOCKED: USER  
DOCKED: REMARK  Name = 
DOCKED: REMARK  6 active torsions:
DOCKED: REMARK  status: ('A' for Active; 'I' for Inactive)
DOCKED: REMARK    1  A    between atoms: S_2  and  N_3
DOCKED: REMARK    2  A    between atoms: S_2  and  C_10
DOCKED: REMARK    3  A    between atoms: N_3  and  C_4
DOCKED: REMARK    4  A    between atoms: C_12  and  C_13
DOCKED: REMARK    5  A    between atoms: C_14  and  C_15
DOCKED: REMARK    6  A    between atoms: N_16  and  O_17
DOCKED: REMARK                            x       y       z     vdW  Elec       q    Type
DOCKED: REMARK                         _______ _______ _______ _____ _____    ______ ____
DOCKED: USER                              x       y       z     vdW  Elec       q    Type
DOCKED: USER                           _______ _______ _______ _____ _____    ______ ____
DOCKED: ROOT
DOCKED: ATOM      1  C   UNL     1      26.127 -16.271  -2.381 -0.43 -0.00    +0.000 A 
DOCKED: ATOM      2  C   UNL     1      24.927 -16.931  -2.086 -0.53 -0.00    +0.000 A 
DOCKED: ATOM      3  C   UNL     1      24.884 -17.941  -1.109 -0.63 -0.00    +0.000 A 
DOCKED: ATOM      4  C   UNL     1      26.065 -18.256  -0.404 -0.58 -0.00    +0.000 A 
DOCKED: ATOM      5  C   UNL     1      27.259 -17.589  -0.693 -0.43 -0.00    +0.000 A 
DOCKED: ATOM      6  C   UNL     1      27.293 -16.603  -1.680 -0.35 -0.00    +0.000 A 
DOCKED: ENDROOT
DOCKED: BRANCH   1   8
DOCKED: ATOM      7  O   UNL     1      24.776 -14.573  -3.969 -0.98 -0.00    +0.000 OA
DOCKED: ATOM      8  S   UNL     1      26.166 -15.034  -3.634 -0.64 -0.00    +0.000 S 
DOCKED: ATOM      9  O   UNL     1      26.800 -15.614  -4.866 -0.96 +0.00    +0.000 OA
DOCKED: BRANCH   8  10
DOCKED: ATOM     10  N   UNL     1      27.101 -13.672  -3.098 -0.21 -0.00    +0.000 N 
DOCKED: ATOM     11  H   UNL     1      27.618 -13.172  -3.771 +0.00 -0.00    +0.000 HD
DOCKED: BRANCH  10  12
DOCKED: ATOM     12  C   UNL     1      27.165 -13.230  -1.730 -0.16 -0.00    +0.000 A 
DOCKED: ATOM     13  C   UNL     1      28.112 -12.281  -1.296 -0.08 -0.00    +0.000 A 
DOCKED: ATOM     14  C   UNL     1      28.139 -11.870   0.040 -0.09 -0.00    +0.000 A 
DOCKED: ATOM     15  C   UNL     1      27.228 -12.401   0.956 -0.22 -0.00    +0.000 A 
DOCKED: ATOM     16  C   UNL     1      26.290 -13.348   0.539 -0.29 -0.00    +0.000 A 
DOCKED: ATOM     17  C   UNL     1      26.260 -13.762  -0.797 -0.18 -0.00    +0.000 A 
DOCKED: ENDBRANCH  10  12
DOCKED: ENDBRANCH   8  10
DOCKED: ENDBRANCH   1   8
DOCKED: BRANCH   3  18
DOCKED: ATOM     18  C   UNL     1      23.588 -18.610  -0.837 -0.82 -0.00    +0.000 C 
DOCKED: ATOM     19  C   UNL     1      22.396 -18.011  -0.987 -0.76 -0.00    +0.000 C 
DOCKED: BRANCH  19  20
DOCKED: ATOM     20  C   UNL     1      21.110 -18.682  -0.710 -0.86 -0.00    +0.000 C 
DOCKED: ATOM     21  N   UNL     1      21.037 -20.017  -0.194 -0.65 -0.00    +0.000 N 
DOCKED: ATOM     22  O   UNL     1      20.044 -18.042  -0.912 -1.97 -0.00    +0.000 OA
DOCKED: ATOM     23  H   UNL     1      21.861 -20.490   0.066 -0.58 -0.00    +0.000 HD
DOCKED: BRANCH  21  24
DOCKED: ATOM     24  O   UNL     1      19.836 -20.632  -0.063 -0.81 -0.00    +0.000 OA
DOCKED: ATOM     25  H   UNL     1      19.309 -20.483  -0.863 -0.45 -0.00    +0.000 HD
DOCKED: ENDBRANCH  21  24
DOCKED: ENDBRANCH  19  20
DOCKED: ENDBRANCH   3  18
DOCKED: TORSDOF 6
DOCKED: TER
DOCKED: ENDMDL
________________________________________________________________________________


	BEGINNING GENETIC ALGORITHM DOCKING 8 of 100
Run: 8 Seed: 1330377515 1918078338 [ Run 8 of 100 GA/GALS ]
Beginning LAMARCKIAN GENETIC ALGORITHM (LGA), with a maximum of 2500000 energy evaluations.

Final-Value: -14.993


	FINAL GENETIC ALGORITHM DOCKED STATE
	_______________________________________________


Detailed state:  trans 23.779 -17.863 -2.476 quatxyzw 0.185991 -0.788581 0.239232 -0.535085 center 0.293 0.181 0.279 ntor 6 7.8168 -179.9881 -39.8385 14.8154 -104.1436 180.0000
State:	 23.779 -17.863  -2.476   0.220 -0.933  0.283 -115.301      7.82 -179.99  -39.84   14.82 -104.14  180.00

DOCKED: MODEL        8
DOCKED: USER    Run = 8
DOCKED: USER    DPF = ligand_dock.biased.dpf
DOCKED: USER  
DOCKED: USER    Estimated Free Energy of Binding    =  -11.59 kcal/mol  [=(1)+(2)+(3)-(4)]
DOCKED: USER    Estimated Inhibition Constant, Ki   =    3.18 nM (nanomolar)  [Temperature = 298.15 K]
DOCKED: USER    
DOCKED: USER    (1) Final Intermolecular Energy     =  -13.38 kcal/mol
DOCKED: USER        vdW + Hbond + desolv Energy     =  -13.38 kcal/mol
DOCKED: USER        Electrostatic Energy            =   +0.00 kcal/mol
DOCKED: USER    (2) Final Total Internal Energy     =   -1.61 kcal/mol
DOCKED: USER    (3) Torsional Free Energy           =   +1.79 kcal/mol
DOCKED: USER    (4) Unbound System's Energy  [=(2)] =   -1.61 kcal/mol
DOCKED: USER    
DOCKED: USER    
DOCKED: USER    NEWDPF move ligand.pdbqt
DOCKED: USER    NEWDPF about 0.293000 0.181000 0.279000
DOCKED: USER    NEWDPF tran0 23.778590 -17.862693 -2.476133
DOCKED: USER    NEWDPF quaternion0 0.185991 -0.788581 0.239232 -0.535085
DOCKED: USER    NEWDPF axisangle0 0.220161 -0.933455 0.283182 -115.300693
DOCKED: USER    NEWDPF quat0 0.220161 -0.933455 0.283182 -115.300693
DOCKED: USER    NEWDPF dihe0 7.82 -179.99 -39.84 14.82 -104.14 180.00 
DOCKED: USER  keepresnum = 1 
DOCKED: USER  
DOCKED: REMARK  Name = 
DOCKED: REMARK  6 active torsions:
DOCKED: REMARK  status: ('A' for Active; 'I' for Inactive)
DOCKED: REMARK    1  A    between atoms: S_2  and  N_3
DOCKED: REMARK    2  A    between atoms: S_2  and  C_10
DOCKED: REMARK    3  A    between atoms: N_3  and  C_4
DOCKED: REMARK    4  A    between atoms: C_12  and  C_13
DOCKED: REMARK    5  A    between atoms: C_14  and  C_15
DOCKED: REMARK    6  A    between atoms: N_16  and  O_17
DOCKED: REMARK                            x       y       z     vdW  Elec       q    Type
DOCKED: REMARK                         _______ _______ _______ _____ _____    ______ ____
DOCKED: USER                              x       y       z     vdW  Elec       q    Type
DOCKED: USER                           _______ _______ _______ _____ _____    ______ ____
DOCKED: ROOT
DOCKED: ATOM      1  C   UNL     1      25.650 -16.354  -2.159 -0.49 -0.00    +0.000 A 
DOCKED: ATOM      2  C   UNL     1      24.415 -16.930  -1.831 -0.53 -0.00    +0.000 A 
DOCKED: ATOM      3  C   UNL     1      24.321 -17.900  -0.818 -0.68 -0.00    +0.000 A 
DOCKED: ATOM      4  C   UNL     1      25.487 -18.259  -0.111 -0.60 -0.00    +0.000 A 
DOCKED: ATOM      5  C   UNL     1      26.716 -17.677  -0.433 -0.51 -0.00    +0.000 A 
DOCKED: ATOM      6  C   UNL     1      26.800 -16.730  -1.455 -0.42 -0.00    +0.000 A 
DOCKED: ENDROOT
DOCKED: BRANCH   1   8
DOCKED: ATOM      7  O   UNL     1      24.427 -14.483  -3.654 -0.85 -0.00    +0.000 OA
DOCKED: ATOM      8  S   UNL     1      25.751 -15.167  -3.456 -0.68 -0.00    +0.000 S 
DOCKED: ATOM      9  O   UNL     1      26.133 -15.871  -4.726 -0.88 -0.00    +0.000 OA
DOCKED: BRANCH   8  10
DOCKED: ATOM     10  N   UNL     1      26.955 -13.973  -3.079 -0.25 -0.00    +0.000 N 
DOCKED: ATOM     11  H   UNL     1      27.514 -13.633  -3.815 +0.00 -0.00    +0.000 HD
DOCKED: BRANCH  10  12
DOCKED: ATOM     12  C   UNL     1      27.184 -13.453  -1.757 -0.17 -0.00    +0.000 A 
DOCKED: ATOM     13  C   UNL     1      28.316 -12.673  -1.449 -0.08 -0.00    +0.000 A 
DOCKED: ATOM     14  C   UNL     1      28.501 -12.178  -0.154 -0.07 -0.00    +0.000 A 
DOCKED: ATOM     15  C   UNL     1      27.565 -12.456   0.844 -0.18 -0.00    +0.000 A 
DOCKED: ATOM     16  C   UNL     1      26.442 -13.234   0.551 -0.28 -0.00    +0.000 A 
DOCKED: ATOM     17  C   UNL     1      26.253 -13.732  -0.742 -0.17 -0.00    +0.000 A 
DOCKED: ENDBRANCH  10  12
DOCKED: ENDBRANCH   8  10
DOCKED: ENDBRANCH   1   8
DOCKED: BRANCH   3  18
DOCKED: ATOM     18  C   UNL     1      22.989 -18.480  -0.513 -0.83 -0.00    +0.000 C 
DOCKED: ATOM     19  C   UNL     1      22.199 -19.052  -1.434 -0.70 -0.00    +0.000 C 
DOCKED: BRANCH  19  20
DOCKED: ATOM     20  C   UNL     1      20.872 -19.622  -1.124 -0.80 -0.00    +0.000 C 
DOCKED: ATOM     21  N   UNL     1      20.500 -20.022   0.202 -0.71 -0.00    +0.000 N 
DOCKED: ATOM     22  O   UNL     1      20.034 -19.734  -2.058 -1.88 -0.00    +0.000 OA
DOCKED: ATOM     23  H   UNL     1      21.107 -19.844   0.957 -0.47 -0.00    +0.000 HD
DOCKED: BRANCH  21  24
DOCKED: ATOM     24  O   UNL     1      19.317 -20.645   0.417 -0.79 -0.00    +0.000 OA
DOCKED: ATOM     25  H   UNL     1      18.902 -20.853  -0.434 -0.36 -0.00    +0.000 HD
DOCKED: ENDBRANCH  21  24
DOCKED: ENDBRANCH  19  20
DOCKED: ENDBRANCH   3  18
DOCKED: TORSDOF 6
DOCKED: TER
DOCKED: ENDMDL
________________________________________________________________________________


	BEGINNING GENETIC ALGORITHM DOCKING 9 of 100
Run: 9 Seed: 972098720 1200883765 [ Run 9 of 100 GA/GALS ]
Beginning LAMARCKIAN GENETIC ALGORITHM (LGA), with a maximum of 2500000 energy evaluations.

Final-Value: -14.667


	FINAL GENETIC ALGORITHM DOCKED STATE
	_______________________________________________


Detailed state:  trans 24.417 -17.284 -2.797 quatxyzw -0.139192 0.756206 -0.279673 0.574944 center 0.293 0.181 0.279 ntor 6 -111.8852 -29.3347 167.0815 -176.9490 -97.6184 80.9036
State:	 24.417 -17.284  -2.797  -0.170  0.924 -0.342 109.809   -111.89  -29.33  167.08 -176.95  -97.62   80.90

DOCKED: MODEL        9
DOCKED: USER    Run = 9
DOCKED: USER    DPF = ligand_dock.biased.dpf
DOCKED: USER  
DOCKED: USER    Estimated Free Energy of Binding    =  -11.92 kcal/mol  [=(1)+(2)+(3)-(4)]
DOCKED: USER    Estimated Inhibition Constant, Ki   =    1.82 nM (nanomolar)  [Temperature = 298.15 K]
DOCKED: USER    
DOCKED: USER    (1) Final Intermolecular Energy     =  -13.71 kcal/mol
DOCKED: USER        vdW + Hbond + desolv Energy     =  -13.71 kcal/mol
DOCKED: USER        Electrostatic Energy            =   +0.00 kcal/mol
DOCKED: USER    (2) Final Total Internal Energy     =   -0.96 kcal/mol
DOCKED: USER    (3) Torsional Free Energy           =   +1.79 kcal/mol
DOCKED: USER    (4) Unbound System's Energy  [=(2)] =   -0.96 kcal/mol
DOCKED: USER    
DOCKED: USER    
DOCKED: USER    NEWDPF move ligand.pdbqt
DOCKED: USER    NEWDPF about 0.293000 0.181000 0.279000
DOCKED: USER    NEWDPF tran0 24.416507 -17.283896 -2.796542
DOCKED: USER    NEWDPF quaternion0 -0.139192 0.756206 -0.279673 0.574944
DOCKED: USER    NEWDPF axisangle0 -0.170122 0.924240 -0.341818 109.808548
DOCKED: USER    NEWDPF quat0 -0.170122 0.924240 -0.341818 109.808548
DOCKED: USER    NEWDPF dihe0 -111.89 -29.33 167.08 -176.95 -97.62 80.90 
DOCKED: USER  keepresnum = 1 
DOCKED: USER  
DOCKED: REMARK  Name = 
DOCKED: REMARK  6 active torsions:
DOCKED: REMARK  status: ('A' for Active; 'I' for Inactive)
DOCKED: REMARK    1  A    between atoms: S_2  and  N_3
DOCKED: REMARK    2  A    between atoms: S_2  and  C_10
DOCKED: REMARK    3  A    between atoms: N_3  and  C_4
DOCKED: REMARK    4  A    between atoms: C_12  and  C_13
DOCKED: REMARK    5  A    between atoms: C_14  and  C_15
DOCKED: REMARK    6  A    between atoms: N_16  and  O_17
DOCKED: REMARK                            x       y       z     vdW  Elec       q    Type
DOCKED: REMARK                         _______ _______ _______ _____ _____    ______ ____
DOCKED: USER                              x       y       z     vdW  Elec       q    Type
DOCKED: USER                           _______ _______ _______ _____ _____    ______ ____
DOCKED: ROOT
DOCKED: ATOM      1  C   UNL     1      26.353 -15.825  -2.809 -0.41 -0.00    +0.000 A 
DOCKED: ATOM      2  C   UNL     1      25.123 -16.296  -2.331 -0.49 -0.00    +0.000 A 
DOCKED: ATOM      3  C   UNL     1      25.060 -17.107  -1.184 -0.58 -0.00    +0.000 A 
DOCKED: ATOM      4  C   UNL     1      26.256 -17.410  -0.501 -0.53 -0.00    +0.000 A 
DOCKED: ATOM      5  C   UNL     1      27.481 -16.931  -0.973 -0.39 -0.00    +0.000 A 
DOCKED: ATOM      6  C   UNL     1      27.531 -16.144  -2.125 -0.30 -0.00    +0.000 A 
DOCKED: ENDROOT
DOCKED: BRANCH   1   8
DOCKED: ATOM      7  O   UNL     1      26.185 -15.685  -5.489 -1.17 +0.00    +0.000 OA
DOCKED: ATOM      8  S   UNL     1      26.412 -14.840  -4.268 -0.64 -0.00    +0.000 S 
DOCKED: ATOM      9  O   UNL     1      27.766 -14.197  -4.361 -0.27 -0.00    +0.000 OA
DOCKED: BRANCH   8  10
DOCKED: ATOM     10  N   UNL     1      25.195 -13.603  -4.202 -0.48 -0.00    +0.000 N 
DOCKED: ATOM     11  H   UNL     1      24.275 -13.871  -3.974 -0.17 -0.00    +0.000 HD
DOCKED: BRANCH  10  12
DOCKED: ATOM     12  C   UNL     1      25.450 -12.210  -4.461 -0.30 -0.00    +0.000 A 
DOCKED: ATOM     13  C   UNL     1      26.608 -11.563  -3.985 -0.19 -0.00    +0.000 A 
DOCKED: ATOM     14  C   UNL     1      26.826 -10.211  -4.264 -0.13 -0.00    +0.000 A 
DOCKED: ATOM     15  C   UNL     1      25.894  -9.489  -5.014 -0.18 -0.00    +0.000 A 
DOCKED: ATOM     16  C   UNL     1      24.739 -10.119  -5.483 -0.35 -0.00    +0.000 A 
DOCKED: ATOM     17  C   UNL     1      24.517 -11.472  -5.207 -0.31 -0.00    +0.000 A 
DOCKED: ENDBRANCH  10  12
DOCKED: ENDBRANCH   8  10
DOCKED: ENDBRANCH   1   8
DOCKED: BRANCH   3  18
DOCKED: ATOM     18  C   UNL     1      23.732 -17.581  -0.723 -0.76 -0.00    +0.000 C 
DOCKED: ATOM     19  C   UNL     1      22.920 -18.352  -1.462 -0.70 -0.00    +0.000 C 
DOCKED: BRANCH  19  20
DOCKED: ATOM     20  C   UNL     1      21.597 -18.816  -0.998 -0.83 -0.00    +0.000 C 
DOCKED: ATOM     21  N   UNL     1      20.796 -19.732  -1.758 -0.75 -0.00    +0.000 N 
DOCKED: ATOM     22  O   UNL     1      21.174 -18.409   0.116 -1.32 -0.00    +0.000 OA
DOCKED: ATOM     23  H   UNL     1      21.159 -20.137  -2.579 -0.51 -0.00    +0.000 HD
DOCKED: BRANCH  21  24
DOCKED: ATOM     24  O   UNL     1      19.542 -20.040  -1.349 -1.36 -0.00    +0.000 OA
DOCKED: ATOM     25  H   UNL     1      19.513 -20.967  -1.065 -0.57 -0.00    +0.000 HD
DOCKED: ENDBRANCH  21  24
DOCKED: ENDBRANCH  19  20
DOCKED: ENDBRANCH   3  18
DOCKED: TORSDOF 6
DOCKED: TER
DOCKED: ENDMDL
________________________________________________________________________________


	BEGINNING GENETIC ALGORITHM DOCKING 10 of 100
Run: 10 Seed: 102698752 393297465 [ Run 10 of 100 GA/GALS ]
Beginning LAMARCKIAN GENETIC ALGORITHM (LGA), with a maximum of 2500000 energy evaluations.

Final-Value: -15.503


	FINAL GENETIC ALGORITHM DOCKED STATE
	_______________________________________________


Detailed state:  trans 24.262 -17.868 -2.743 quatxyzw 0.198658 -0.746324 0.273548 -0.573329 center 0.293 0.181 0.279 ntor 6 0.3862 110.8281 -37.2583 173.8765 -168.7994 -164.9289
State:	 24.262 -17.868  -2.743   0.242 -0.911  0.334 -110.035      0.39  110.83  -37.26  173.88 -168.80 -164.93

DOCKED: MODEL       10
DOCKED: USER    Run = 10
DOCKED: USER    DPF = ligand_dock.biased.dpf
DOCKED: USER  
DOCKED: USER    Estimated Free Energy of Binding    =  -12.15 kcal/mol  [=(1)+(2)+(3)-(4)]
DOCKED: USER    Estimated Inhibition Constant, Ki   =    1.24 nM (nanomolar)  [Temperature = 298.15 K]
DOCKED: USER    
DOCKED: USER    (1) Final Intermolecular Energy     =  -13.94 kcal/mol
DOCKED: USER        vdW + Hbond + desolv Energy     =  -13.94 kcal/mol
DOCKED: USER        Electrostatic Energy            =   +0.00 kcal/mol
DOCKED: USER    (2) Final Total Internal Energy     =   -1.56 kcal/mol
DOCKED: USER    (3) Torsional Free Energy           =   +1.79 kcal/mol
DOCKED: USER    (4) Unbound System's Energy  [=(2)] =   -1.56 kcal/mol
DOCKED: USER    
DOCKED: USER    
DOCKED: USER    NEWDPF move ligand.pdbqt
DOCKED: USER    NEWDPF about 0.293000 0.181000 0.279000
DOCKED: USER    NEWDPF tran0 24.262415 -17.867745 -2.742528
DOCKED: USER    NEWDPF quaternion0 0.198658 -0.746324 0.273548 -0.573329
DOCKED: USER    NEWDPF axisangle0 0.242465 -0.910902 0.333870 -110.034563
DOCKED: USER    NEWDPF quat0 0.242465 -0.910902 0.333870 -110.034563
DOCKED: USER    NEWDPF dihe0 0.39 110.83 -37.26 173.88 -168.80 -164.93 
DOCKED: USER  keepresnum = 1 
DOCKED: USER  
DOCKED: REMARK  Name = 
DOCKED: REMARK  6 active torsions:
DOCKED: REMARK  status: ('A' for Active; 'I' for Inactive)
DOCKED: REMARK    1  A    between atoms: S_2  and  N_3
DOCKED: REMARK    2  A    between atoms: S_2  and  C_10
DOCKED: REMARK    3  A    between atoms: N_3  and  C_4
DOCKED: REMARK    4  A    between atoms: C_12  and  C_13
DOCKED: REMARK    5  A    between atoms: C_14  and  C_15
DOCKED: REMARK    6  A    between atoms: N_16  and  O_17
DOCKED: REMARK                            x       y       z     vdW  Elec       q    Type
DOCKED: REMARK                         _______ _______ _______ _____ _____    ______ ____
DOCKED: USER                              x       y       z     vdW  Elec       q    Type
DOCKED: USER                           _______ _______ _______ _____ _____    ______ ____
DOCKED: ROOT
DOCKED: ATOM      1  C   UNL     1      26.065 -16.247  -2.725 -0.40 -0.00    +0.000 A 
DOCKED: ATOM      2  C   UNL     1      24.903 -16.857  -2.234 -0.48 -0.00    +0.000 A 
DOCKED: ATOM      3  C   UNL     1      24.964 -17.749  -1.149 -0.62 -0.00    +0.000 A 
DOCKED: ATOM      4  C   UNL     1      26.211 -17.994  -0.539 -0.55 -0.00    +0.000 A 
DOCKED: ATOM      5  C   UNL     1      27.368 -17.376  -1.024 -0.40 -0.00    +0.000 A 
DOCKED: ATOM      6  C   UNL     1      27.298 -16.509  -2.115 -0.31 -0.00    +0.000 A 
DOCKED: ENDROOT
DOCKED: BRANCH   1   8
DOCKED: ATOM      7  O   UNL     1      24.749 -14.291  -4.019 -1.07 -0.00    +0.000 OA
DOCKED: ATOM      8  S   UNL     1      25.972 -15.160  -4.108 -0.73 -0.00    +0.000 S 
DOCKED: ATOM      9  O   UNL     1      25.899 -15.981  -5.363 -1.13 +0.00    +0.000 OA
DOCKED: BRANCH   8  10
DOCKED: ATOM     10  N   UNL     1      27.382 -14.148  -4.168 -0.27 -0.00    +0.000 N 
DOCKED: ATOM     11  H   UNL     1      27.571 -13.572  -3.392 +0.00 -0.00    +0.000 HD
DOCKED: BRANCH  10  12
DOCKED: ATOM     12  C   UNL     1      28.290 -14.101  -5.283 -0.27 -0.00    +0.000 A 
DOCKED: ATOM     13  C   UNL     1      28.225 -13.083  -6.255 -0.23 -0.00    +0.000 A 
DOCKED: ATOM     14  C   UNL     1      29.130 -13.065  -7.321 -0.24 -0.00    +0.000 A 
DOCKED: ATOM     15  C   UNL     1      30.103 -14.061  -7.432 -0.23 -0.00    +0.000 A 
DOCKED: ATOM     16  C   UNL     1      30.171 -15.079  -6.479 -0.26 -0.00    +0.000 A 
DOCKED: ATOM     17  C   UNL     1      29.269 -15.101  -5.411 -0.27 -0.00    +0.000 A 
DOCKED: ENDBRANCH  10  12
DOCKED: ENDBRANCH   8  10
DOCKED: ENDBRANCH   1   8
DOCKED: BRANCH   3  18
DOCKED: ATOM     18  C   UNL     1      23.703 -18.369  -0.671 -0.81 -0.00    +0.000 C 
DOCKED: ATOM     19  C   UNL     1      22.484 -17.985  -1.078 -0.75 -0.00    +0.000 C 
DOCKED: BRANCH  19  20
DOCKED: ATOM     20  C   UNL     1      21.234 -18.604  -0.593 -0.83 -0.00    +0.000 C 
DOCKED: ATOM     21  N   UNL     1      21.209 -19.895   0.029 -0.60 -0.00    +0.000 N 
DOCKED: ATOM     22  O   UNL     1      20.159 -17.958  -0.712 -2.11 -0.00    +0.000 OA
DOCKED: ATOM     23  H   UNL     1      22.052 -20.365   0.221 -0.57 -0.00    +0.000 HD
DOCKED: BRANCH  21  24
DOCKED: ATOM     24  O   UNL     1      20.026 -20.471   0.354 -0.79 -0.00    +0.000 OA
DOCKED: ATOM     25  H   UNL     1      19.299 -19.884   0.094 -0.02 -0.00    +0.000 HD
DOCKED: ENDBRANCH  21  24
DOCKED: ENDBRANCH  19  20
DOCKED: ENDBRANCH   3  18
DOCKED: TORSDOF 6
DOCKED: TER
DOCKED: ENDMDL
________________________________________________________________________________


	BEGINNING GENETIC ALGORITHM DOCKING 11 of 100
Run: 11 Seed: 2146380591 384635561 [ Run 11 of 100 GA/GALS ]
Beginning LAMARCKIAN GENETIC ALGORITHM (LGA), with a maximum of 2500000 energy evaluations.

Final-Value: -15.812


	FINAL GENETIC ALGORITHM DOCKED STATE
	_______________________________________________


Detailed state:  trans 24.337 -17.827 -2.655 quatxyzw -0.199205 0.742258 -0.342494 0.540433 center 0.293 0.181 0.279 ntor 6 8.1154 133.2290 -47.1359 150.4380 -169.6477 -150.5761
State:	 24.337 -17.827  -2.655  -0.237  0.882 -0.407 114.574      8.12  133.23  -47.14  150.44 -169.65 -150.58

DOCKED: MODEL       11
DOCKED: USER    Run = 11
DOCKED: USER    DPF = ligand_dock.biased.dpf
DOCKED: USER  
DOCKED: USER    Estimated Free Energy of Binding    =  -12.42 kcal/mol  [=(1)+(2)+(3)-(4)]
DOCKED: USER    Estimated Inhibition Constant, Ki   =  786.27 pM (picomolar)  [Temperature = 298.15 K]
DOCKED: USER    
DOCKED: USER    (1) Final Intermolecular Energy     =  -14.21 kcal/mol
DOCKED: USER        vdW + Hbond + desolv Energy     =  -14.21 kcal/mol
DOCKED: USER        Electrostatic Energy            =   +0.00 kcal/mol
DOCKED: USER    (2) Final Total Internal Energy     =   -1.60 kcal/mol
DOCKED: USER    (3) Torsional Free Energy           =   +1.79 kcal/mol
DOCKED: USER    (4) Unbound System's Energy  [=(2)] =   -1.60 kcal/mol
DOCKED: USER    
DOCKED: USER    
DOCKED: USER    NEWDPF move ligand.pdbqt
DOCKED: USER    NEWDPF about 0.293000 0.181000 0.279000
DOCKED: USER    NEWDPF tran0 24.337311 -17.826786 -2.655274
DOCKED: USER    NEWDPF quaternion0 -0.199205 0.742258 -0.342494 0.540433
DOCKED: USER    NEWDPF axisangle0 -0.236758 0.882184 -0.407059 114.573763
DOCKED: USER    NEWDPF quat0 -0.236758 0.882184 -0.407059 114.573763
DOCKED: USER    NEWDPF dihe0 8.12 133.23 -47.14 150.44 -169.65 -150.58 
DOCKED: USER  keepresnum = 1 
DOCKED: USER  
DOCKED: REMARK  Name = 
DOCKED: REMARK  6 active torsions:
DOCKED: REMARK  status: ('A' for Active; 'I' for Inactive)
DOCKED: REMARK    1  A    between atoms: S_2  and  N_3
DOCKED: REMARK    2  A    between atoms: S_2  and  C_10
DOCKED: REMARK    3  A    between atoms: N_3  and  C_4
DOCKED: REMARK    4  A    between atoms: C_12  and  C_13
DOCKED: REMARK    5  A    between atoms: C_14  and  C_15
DOCKED: REMARK    6  A    between atoms: N_16  and  O_17
DOCKED: REMARK                            x       y       z     vdW  Elec       q    Type
DOCKED: REMARK                         _______ _______ _______ _____ _____    ______ ____
DOCKED: USER                              x       y       z     vdW  Elec       q    Type
DOCKED: USER                           _______ _______ _______ _____ _____    ______ ____
DOCKED: ROOT
DOCKED: ATOM      1  C   UNL     1      25.970 -16.035  -2.671 -0.46 -0.00    +0.000 A 
DOCKED: ATOM      2  C   UNL     1      24.838 -16.715  -2.203 -0.48 -0.00    +0.000 A 
DOCKED: ATOM      3  C   UNL     1      24.901 -17.498  -1.037 -0.63 -0.00    +0.000 A 
DOCKED: ATOM      4  C   UNL     1      26.116 -17.559  -0.325 -0.55 -0.00    +0.000 A 
DOCKED: ATOM      5  C   UNL     1      27.242 -16.871  -0.788 -0.41 -0.00    +0.000 A 
DOCKED: ATOM      6  C   UNL     1      27.172 -16.114  -1.958 -0.33 -0.00    +0.000 A 
DOCKED: ENDROOT
DOCKED: BRANCH   1   8
DOCKED: ATOM      7  O   UNL     1      24.759 -14.088  -4.077 -1.11 -0.00    +0.000 OA
DOCKED: ATOM      8  S   UNL     1      25.878 -15.088  -4.154 -0.73 -0.00    +0.000 S 
DOCKED: ATOM      9  O   UNL     1      25.625 -16.019  -5.305 -1.05 +0.00    +0.000 OA
DOCKED: BRANCH   8  10
DOCKED: ATOM     10  N   UNL     1      27.373 -14.246  -4.417 -0.30 -0.00    +0.000 N 
DOCKED: ATOM     11  H   UNL     1      27.514 -13.395  -3.942 +0.00 -0.00    +0.000 HD
DOCKED: BRANCH  10  12
DOCKED: ATOM     12  C   UNL     1      28.417 -14.715  -5.290 -0.32 -0.00    +0.000 A 
DOCKED: ATOM     13  C   UNL     1      28.880 -13.950  -6.379 -0.29 -0.00    +0.000 A 
DOCKED: ATOM     14  C   UNL     1      29.901 -14.436  -7.200 -0.26 -0.00    +0.000 A 
DOCKED: ATOM     15  C   UNL     1      30.468 -15.688  -6.949 -0.28 -0.00    +0.000 A 
DOCKED: ATOM     16  C   UNL     1      30.012 -16.458  -5.877 -0.30 -0.00    +0.000 A 
DOCKED: ATOM     17  C   UNL     1      28.990 -15.976  -5.053 -0.30 -0.00    +0.000 A 
DOCKED: ENDBRANCH  10  12
DOCKED: ENDBRANCH   8  10
DOCKED: ENDBRANCH   1   8
DOCKED: BRANCH   3  18
DOCKED: ATOM     18  C   UNL     1      23.674 -18.200  -0.587 -0.81 -0.00    +0.000 C 
DOCKED: ATOM     19  C   UNL     1      22.455 -17.968  -1.098 -0.72 -0.00    +0.000 C 
DOCKED: BRANCH  19  20
DOCKED: ATOM     20  C   UNL     1      21.236 -18.667  -0.642 -0.85 -0.00    +0.000 C 
DOCKED: ATOM     21  N   UNL     1      21.271 -19.996  -0.105 -0.55 -0.00    +0.000 N 
DOCKED: ATOM     22  O   UNL     1      20.136 -18.058  -0.706 -2.08 -0.00    +0.000 OA
DOCKED: ATOM     23  H   UNL     1      22.135 -20.442   0.047 -0.57 -0.00    +0.000 HD
DOCKED: BRANCH  21  24
DOCKED: ATOM     24  O   UNL     1      20.116 -20.639   0.194 -0.79 -0.00    +0.000 OA
DOCKED: ATOM     25  H   UNL     1      19.364 -20.119  -0.130 -0.05 -0.00    +0.000 HD
DOCKED: ENDBRANCH  21  24
DOCKED: ENDBRANCH  19  20
DOCKED: ENDBRANCH   3  18
DOCKED: TORSDOF 6
DOCKED: TER
DOCKED: ENDMDL
________________________________________________________________________________


	BEGINNING GENETIC ALGORITHM DOCKING 12 of 100
Run: 12 Seed: 1914157934 993903441 [ Run 12 of 100 GA/GALS ]
Beginning LAMARCKIAN GENETIC ALGORITHM (LGA), with a maximum of 2500000 energy evaluations.

Final-Value: -15.768


	FINAL GENETIC ALGORITHM DOCKED STATE
	_______________________________________________


Detailed state:  trans 23.953 -17.459 -2.590 quatxyzw 0.132548 -0.739223 0.243654 -0.613689 center 0.293 0.181 0.279 ntor 6 0.9759 121.1938 -108.6780 169.0505 -97.3888 -169.4530
State:	 23.953 -17.459  -2.590   0.168 -0.936  0.309 -104.287      0.98  121.19 -108.68  169.05  -97.39 -169.45

DOCKED: MODEL       12
DOCKED: USER    Run = 12
DOCKED: USER    DPF = ligand_dock.biased.dpf
DOCKED: USER  
DOCKED: USER    Estimated Free Energy of Binding    =  -12.43 kcal/mol  [=(1)+(2)+(3)-(4)]
DOCKED: USER    Estimated Inhibition Constant, Ki   =  772.02 pM (picomolar)  [Temperature = 298.15 K]
DOCKED: USER    
DOCKED: USER    (1) Final Intermolecular Energy     =  -14.22 kcal/mol
DOCKED: USER        vdW + Hbond + desolv Energy     =  -14.22 kcal/mol
DOCKED: USER        Electrostatic Energy            =   +0.00 kcal/mol
DOCKED: USER    (2) Final Total Internal Energy     =   -1.55 kcal/mol
DOCKED: USER    (3) Torsional Free Energy           =   +1.79 kcal/mol
DOCKED: USER    (4) Unbound System's Energy  [=(2)] =   -1.55 kcal/mol
DOCKED: USER    
DOCKED: USER    
DOCKED: USER    NEWDPF move ligand.pdbqt
DOCKED: USER    NEWDPF about 0.293000 0.181000 0.279000
DOCKED: USER    NEWDPF tran0 23.952526 -17.459499 -2.589810
DOCKED: USER    NEWDPF quaternion0 0.132548 -0.739223 0.243654 -0.613689
DOCKED: USER    NEWDPF axisangle0 0.167878 -0.936260 0.308600 -104.286620
DOCKED: USER    NEWDPF quat0 0.167878 -0.936260 0.308600 -104.286620
DOCKED: USER    NEWDPF dihe0 0.98 121.19 -108.68 169.05 -97.39 -169.45 
DOCKED: USER  keepresnum = 1 
DOCKED: USER  
DOCKED: REMARK  Name = 
DOCKED: REMARK  6 active torsions:
DOCKED: REMARK  status: ('A' for Active; 'I' for Inactive)
DOCKED: REMARK    1  A    between atoms: S_2  and  N_3
DOCKED: REMARK    2  A    between atoms: S_2  and  C_10
DOCKED: REMARK    3  A    between atoms: N_3  and  C_4
DOCKED: REMARK    4  A    between atoms: C_12  and  C_13
DOCKED: REMARK    5  A    between atoms: C_14  and  C_15
DOCKED: REMARK    6  A    between atoms: N_16  and  O_17
DOCKED: REMARK                            x       y       z     vdW  Elec       q    Type
DOCKED: REMARK                         _______ _______ _______ _____ _____    ______ ____
DOCKED: USER                              x       y       z     vdW  Elec       q    Type
DOCKED: USER                           _______ _______ _______ _____ _____    ______ ____
DOCKED: ROOT
DOCKED: ATOM      1  C   UNL     1      25.977 -16.134  -2.733 -0.44 -0.00    +0.000 A 
DOCKED: ATOM      2  C   UNL     1      24.762 -16.535  -2.163 -0.47 -0.00    +0.000 A 
DOCKED: ATOM      3  C   UNL     1      24.739 -17.374  -1.034 -0.62 -0.00    +0.000 A 
DOCKED: ATOM      4  C   UNL     1      25.963 -17.777  -0.463 -0.58 -0.00    +0.000 A 
DOCKED: ATOM      5  C   UNL     1      27.175 -17.367  -1.026 -0.42 -0.00    +0.000 A 
DOCKED: ATOM      6  C   UNL     1      27.184 -16.552  -2.159 -0.31 -0.00    +0.000 A 
DOCKED: ENDROOT
DOCKED: BRANCH   1   8
DOCKED: ATOM      7  O   UNL     1      24.842 -14.136  -4.128 -1.07 -0.00    +0.000 OA
DOCKED: ATOM      8  S   UNL     1      25.983 -15.113  -4.167 -0.72 -0.00    +0.000 S 
DOCKED: ATOM      9  O   UNL     1      25.839 -15.985  -5.382 -1.12 +0.00    +0.000 OA
DOCKED: BRANCH   8  10
DOCKED: ATOM     10  N   UNL     1      27.478 -14.235  -4.269 -0.27 -0.00    +0.000 N 
DOCKED: ATOM     11  H   UNL     1      27.682 -13.586  -3.557 +0.00 -0.00    +0.000 HD
DOCKED: BRANCH  10  12
DOCKED: ATOM     12  C   UNL     1      28.434 -14.398  -5.332 -0.29 -0.00    +0.000 A 
DOCKED: ATOM     13  C   UNL     1      28.650 -13.398  -6.301 -0.25 -0.00    +0.000 A 
DOCKED: ATOM     14  C   UNL     1      29.594 -13.589  -7.314 -0.24 -0.00    +0.000 A 
DOCKED: ATOM     15  C   UNL     1      30.328 -14.776  -7.376 -0.24 -0.00    +0.000 A 
DOCKED: ATOM     16  C   UNL     1      30.117 -15.777  -6.424 -0.30 -0.00    +0.000 A 
DOCKED: ATOM     17  C   UNL     1      29.174 -15.590  -5.409 -0.31 -0.00    +0.000 A 
DOCKED: ENDBRANCH  10  12
DOCKED: ENDBRANCH   8  10
DOCKED: ENDBRANCH   1   8
DOCKED: BRANCH   3  18
DOCKED: ATOM     18  C   UNL     1      23.424 -17.771  -0.473 -0.77 -0.00    +0.000 C 
DOCKED: ATOM     19  C   UNL     1      22.504 -18.468  -1.156 -0.78 -0.00    +0.000 C 
DOCKED: BRANCH  19  20
DOCKED: ATOM     20  C   UNL     1      21.195 -18.855  -0.593 -0.86 -0.00    +0.000 C 
DOCKED: ATOM     21  N   UNL     1      20.995 -20.094   0.100 -0.62 -0.00    +0.000 N 
DOCKED: ATOM     22  O   UNL     1      20.231 -18.053  -0.707 -2.16 -0.00    +0.000 OA
DOCKED: ATOM     23  H   UNL     1      21.763 -20.682   0.286 -0.59 -0.00    +0.000 HD
DOCKED: BRANCH  21  24
DOCKED: ATOM     24  O   UNL     1      19.752 -20.458   0.499 -0.78 -0.00    +0.000 OA
DOCKED: ATOM     25  H   UNL     1      19.114 -19.781   0.226 -0.02 -0.00    +0.000 HD
DOCKED: ENDBRANCH  21  24
DOCKED: ENDBRANCH  19  20
DOCKED: ENDBRANCH   3  18
DOCKED: TORSDOF 6
DOCKED: TER
DOCKED: ENDMDL
________________________________________________________________________________


	BEGINNING GENETIC ALGORITHM DOCKING 13 of 100
Run: 13 Seed: 694307070 2050257605 [ Run 13 of 100 GA/GALS ]
Beginning LAMARCKIAN GENETIC ALGORITHM (LGA), with a maximum of 2500000 energy evaluations.

Final-Value: -15.776


	FINAL GENETIC ALGORITHM DOCKED STATE
	_______________________________________________


Detailed state:  trans 24.359 -17.959 -2.658 quatxyzw 0.200391 -0.752561 0.370790 -0.505974 center 0.293 0.181 0.279 ntor 6 58.0745 129.8664 -36.9169 142.1631 178.3876 -141.2468
State:	 24.359 -17.959  -2.658   0.232 -0.872  0.430 -119.208     58.07  129.87  -36.92  142.16  178.39 -141.25

DOCKED: MODEL       13
DOCKED: USER    Run = 13
DOCKED: USER    DPF = ligand_dock.biased.dpf
DOCKED: USER  
DOCKED: USER    Estimated Free Energy of Binding    =  -12.73 kcal/mol  [=(1)+(2)+(3)-(4)]
DOCKED: USER    Estimated Inhibition Constant, Ki   =  464.53 pM (picomolar)  [Temperature = 298.15 K]
DOCKED: USER    
DOCKED: USER    (1) Final Intermolecular Energy     =  -14.52 kcal/mol
DOCKED: USER        vdW + Hbond + desolv Energy     =  -14.52 kcal/mol
DOCKED: USER        Electrostatic Energy            =   +0.00 kcal/mol
DOCKED: USER    (2) Final Total Internal Energy     =   -1.25 kcal/mol
DOCKED: USER    (3) Torsional Free Energy           =   +1.79 kcal/mol
DOCKED: USER    (4) Unbound System's Energy  [=(2)] =   -1.25 kcal/mol
DOCKED: USER    
DOCKED: USER    
DOCKED: USER    NEWDPF move ligand.pdbqt
DOCKED: USER    NEWDPF about 0.293000 0.181000 0.279000
DOCKED: USER    NEWDPF tran0 24.359441 -17.958616 -2.658498
DOCKED: USER    NEWDPF quaternion0 0.200391 -0.752561 0.370790 -0.505974
DOCKED: USER    NEWDPF axisangle0 0.232325 -0.872486 0.429877 -119.207881
DOCKED: USER    NEWDPF quat0 0.232325 -0.872486 0.429877 -119.207881
DOCKED: USER    NEWDPF dihe0 58.07 129.87 -36.92 142.16 178.39 -141.25 
DOCKED: USER  keepresnum = 1 
DOCKED: USER  
DOCKED: REMARK  Name = 
DOCKED: REMARK  6 active torsions:
DOCKED: REMARK  status: ('A' for Active; 'I' for Inactive)
DOCKED: REMARK    1  A    between atoms: S_2  and  N_3
DOCKED: REMARK    2  A    between atoms: S_2  and  C_10
DOCKED: REMARK    3  A    between atoms: N_3  and  C_4
DOCKED: REMARK    4  A    between atoms: C_12  and  C_13
DOCKED: REMARK    5  A    between atoms: C_14  and  C_15
DOCKED: REMARK    6  A    between atoms: N_16  and  O_17
DOCKED: REMARK                            x       y       z     vdW  Elec       q    Type
DOCKED: REMARK                         _______ _______ _______ _____ _____    ______ ____
DOCKED: USER                              x       y       z     vdW  Elec       q    Type
DOCKED: USER                           _______ _______ _______ _____ _____    ______ ____
DOCKED: ROOT
DOCKED: ATOM      1  C   UNL     1      25.895 -16.084  -2.596 -0.46 -0.00    +0.000 A 
DOCKED: ATOM      2  C   UNL     1      24.768 -16.814  -2.196 -0.48 -0.00    +0.000 A 
DOCKED: ATOM      3  C   UNL     1      24.786 -17.571  -1.011 -0.64 -0.00    +0.000 A 
DOCKED: ATOM      4  C   UNL     1      25.947 -17.556  -0.212 -0.53 -0.00    +0.000 A 
DOCKED: ATOM      5  C   UNL     1      27.067 -16.818  -0.607 -0.42 -0.00    +0.000 A 
DOCKED: ATOM      6  C   UNL     1      27.044 -16.087  -1.796 -0.34 -0.00    +0.000 A 
DOCKED: ENDROOT
DOCKED: BRANCH   1   8
DOCKED: ATOM      7  O   UNL     1      24.836 -14.076  -4.037 -1.05 -0.00    +0.000 OA
DOCKED: ATOM      8  S   UNL     1      25.864 -15.171  -4.101 -0.74 -0.00    +0.000 S 
DOCKED: ATOM      9  O   UNL     1      25.515 -16.104  -5.225 -1.00 -0.00    +0.000 OA
DOCKED: BRANCH   8  10
DOCKED: ATOM     10  N   UNL     1      27.422 -14.467  -4.405 -0.31 -0.00    +0.000 N 
DOCKED: ATOM     11  H   UNL     1      27.597 -13.563  -4.056 +0.00 -0.00    +0.000 HD
DOCKED: BRANCH  10  12
DOCKED: ATOM     12  C   UNL     1      28.471 -15.125  -5.137 -0.33 -0.00    +0.000 A 
DOCKED: ATOM     13  C   UNL     1      28.986 -14.599  -6.339 -0.33 -0.00    +0.000 A 
DOCKED: ATOM     14  C   UNL     1      30.011 -15.263  -7.018 -0.28 -0.00    +0.000 A 
DOCKED: ATOM     15  C   UNL     1      30.532 -16.456  -6.512 -0.29 -0.00    +0.000 A 
DOCKED: ATOM     16  C   UNL     1      30.024 -16.991  -5.326 -0.29 -0.00    +0.000 A 
DOCKED: ATOM     17  C   UNL     1      28.998 -16.330  -4.643 -0.22 -0.00    +0.000 A 
DOCKED: ENDBRANCH  10  12
DOCKED: ENDBRANCH   8  10
DOCKED: ENDBRANCH   1   8
DOCKED: BRANCH   3  18
DOCKED: ATOM     18  C   UNL     1      23.566 -18.329  -0.636 -0.82 -0.00    +0.000 C 
DOCKED: ATOM     19  C   UNL     1      22.335 -18.017  -1.068 -0.73 -0.00    +0.000 C 
DOCKED: BRANCH  19  20
DOCKED: ATOM     20  C   UNL     1      21.124 -18.772  -0.687 -0.87 -0.00    +0.000 C 
DOCKED: ATOM     21  N   UNL     1      21.187 -20.102  -0.154 -0.55 -0.00    +0.000 N 
DOCKED: ATOM     22  O   UNL     1      20.003 -18.212  -0.812 -1.95 -0.00    +0.000 OA
DOCKED: ATOM     23  H   UNL     1      22.060 -20.511   0.045 -0.57 -0.00    +0.000 HD
DOCKED: BRANCH  21  24
DOCKED: ATOM     24  O   UNL     1      20.046 -20.797   0.074 -0.78 -0.00    +0.000 OA
DOCKED: ATOM     25  H   UNL     1      19.545 -20.875  -0.752 -0.53 -0.00    +0.000 HD
DOCKED: ENDBRANCH  21  24
DOCKED: ENDBRANCH  19  20
DOCKED: ENDBRANCH   3  18
DOCKED: TORSDOF 6
DOCKED: TER
DOCKED: ENDMDL
________________________________________________________________________________


	BEGINNING GENETIC ALGORITHM DOCKING 14 of 100
Run: 14 Seed: 1486668601 1622919201 [ Run 14 of 100 GA/GALS ]
Beginning LAMARCKIAN GENETIC ALGORITHM (LGA), with a maximum of 2500000 energy evaluations.

Final-Value: -15.496


	FINAL GENETIC ALGORITHM DOCKED STATE
	_______________________________________________


Detailed state:  trans 24.325 -18.275 -2.916 quatxyzw -0.244664 0.796431 -0.344092 0.432940 center 0.293 0.181 0.279 ntor 6 2.1758 132.5415 66.3269 -179.4417 141.6265 -144.5276
State:	 24.325 -18.275  -2.916  -0.271  0.884 -0.382 128.691      2.18  132.54   66.33 -179.44  141.63 -144.53

DOCKED: MODEL       14
DOCKED: USER    Run = 14
DOCKED: USER    DPF = ligand_dock.biased.dpf
DOCKED: USER  
DOCKED: USER    Estimated Free Energy of Binding    =  -12.19 kcal/mol  [=(1)+(2)+(3)-(4)]
DOCKED: USER    Estimated Inhibition Constant, Ki   =    1.16 nM (nanomolar)  [Temperature = 298.15 K]
DOCKED: USER    
DOCKED: USER    (1) Final Intermolecular Energy     =  -13.98 kcal/mol
DOCKED: USER        vdW + Hbond + desolv Energy     =  -13.98 kcal/mol
DOCKED: USER        Electrostatic Energy            =   +0.00 kcal/mol
DOCKED: USER    (2) Final Total Internal Energy     =   -1.52 kcal/mol
DOCKED: USER    (3) Torsional Free Energy           =   +1.79 kcal/mol
DOCKED: USER    (4) Unbound System's Energy  [=(2)] =   -1.52 kcal/mol
DOCKED: USER    
DOCKED: USER    
DOCKED: USER    NEWDPF move ligand.pdbqt
DOCKED: USER    NEWDPF about 0.293000 0.181000 0.279000
DOCKED: USER    NEWDPF tran0 24.324675 -18.274722 -2.916371
DOCKED: USER    NEWDPF quaternion0 -0.244664 0.796431 -0.344092 0.432940
DOCKED: USER    NEWDPF axisangle0 -0.271420 0.883527 -0.381721 128.691445
DOCKED: USER    NEWDPF quat0 -0.271420 0.883527 -0.381721 128.691445
DOCKED: USER    NEWDPF dihe0 2.18 132.54 66.33 -179.44 141.63 -144.53 
DOCKED: USER  keepresnum = 1 
DOCKED: USER  
DOCKED: REMARK  Name = 
DOCKED: REMARK  6 active torsions:
DOCKED: REMARK  status: ('A' for Active; 'I' for Inactive)
DOCKED: REMARK    1  A    between atoms: S_2  and  N_3
DOCKED: REMARK    2  A    between atoms: S_2  and  C_10
DOCKED: REMARK    3  A    between atoms: N_3  and  C_4
DOCKED: REMARK    4  A    between atoms: C_12  and  C_13
DOCKED: REMARK    5  A    between atoms: C_14  and  C_15
DOCKED: REMARK    6  A    between atoms: N_16  and  O_17
DOCKED: REMARK                            x       y       z     vdW  Elec       q    Type
DOCKED: REMARK                         _______ _______ _______ _____ _____    ______ ____
DOCKED: USER                              x       y       z     vdW  Elec       q    Type
DOCKED: USER                           _______ _______ _______ _____ _____    ______ ____
DOCKED: ROOT
DOCKED: ATOM      1  C   UNL     1      25.682 -16.331  -2.411 -0.48 -0.00    +0.000 A 
DOCKED: ATOM      2  C   UNL     1      24.585 -17.188  -2.252 -0.32 -0.00    +0.000 A 
DOCKED: ATOM      3  C   UNL     1      24.542 -18.111  -1.193 -0.64 -0.00    +0.000 A 
DOCKED: ATOM      4  C   UNL     1      25.608 -18.137  -0.270 -0.61 -0.00    +0.000 A 
DOCKED: ATOM      5  C   UNL     1      26.697 -17.275  -0.425 -0.49 -0.00    +0.000 A 
DOCKED: ATOM      6  C   UNL     1      26.738 -16.377  -1.492 -0.39 -0.00    +0.000 A 
DOCKED: ENDROOT
DOCKED: BRANCH   1   8
DOCKED: ATOM      7  O   UNL     1      24.569 -14.256  -3.709 -0.97 -0.00    +0.000 OA
DOCKED: ATOM      8  S   UNL     1      25.732 -15.206  -3.765 -0.71 -0.00    +0.000 S 
DOCKED: ATOM      9  O   UNL     1      25.664 -15.989  -5.045 -0.99 -0.00    +0.000 OA
DOCKED: BRANCH   8  10
DOCKED: ATOM     10  N   UNL     1      27.210 -14.295  -3.730 -0.27 -0.00    +0.000 N 
DOCKED: ATOM     11  H   UNL     1      27.449 -13.834  -2.894 +0.00 -0.00    +0.000 HD
DOCKED: BRANCH  10  12
DOCKED: ATOM     12  C   UNL     1      28.105 -14.173  -4.850 -0.26 -0.00    +0.000 A 
DOCKED: ATOM     13  C   UNL     1      28.434 -12.922  -5.409 -0.17 -0.00    +0.000 A 
DOCKED: ATOM     14  C   UNL     1      29.314 -12.843  -6.493 -0.16 -0.00    +0.000 A 
DOCKED: ATOM     15  C   UNL     1      29.871 -14.004  -7.032 -0.24 -0.00    +0.000 A 
DOCKED: ATOM     16  C   UNL     1      29.545 -15.251  -6.491 -0.31 -0.00    +0.000 A 
DOCKED: ATOM     17  C   UNL     1      28.666 -15.335  -5.407 -0.34 -0.00    +0.000 A 
DOCKED: ENDBRANCH  10  12
DOCKED: ENDBRANCH   8  10
DOCKED: ENDBRANCH   1   8
DOCKED: BRANCH   3  18
DOCKED: ATOM     18  C   UNL     1      23.358 -18.997  -1.072 -0.80 -0.00    +0.000 C 
DOCKED: ATOM     19  C   UNL     1      22.105 -18.546  -0.913 -0.83 -0.00    +0.000 C 
DOCKED: BRANCH  19  20
DOCKED: ATOM     20  C   UNL     1      20.931 -19.434  -0.789 -0.87 -0.00    +0.000 C 
DOCKED: ATOM     21  N   UNL     1      20.533 -20.007   0.464 -0.68 -0.00    +0.000 N 
DOCKED: ATOM     22  O   UNL     1      20.245 -19.670  -1.818 -1.81 -0.00    +0.000 OA
DOCKED: ATOM     23  H   UNL     1      20.998 -19.748   1.293 -0.49 -0.00    +0.000 HD
DOCKED: BRANCH  21  24
DOCKED: ATOM     24  O   UNL     1      19.519 -20.905   0.509 -0.76 -0.00    +0.000 OA
DOCKED: ATOM     25  H   UNL     1      19.197 -21.074  -0.389 -0.37 -0.00    +0.000 HD
DOCKED: ENDBRANCH  21  24
DOCKED: ENDBRANCH  19  20
DOCKED: ENDBRANCH   3  18
DOCKED: TORSDOF 6
DOCKED: TER
DOCKED: ENDMDL
________________________________________________________________________________


	BEGINNING GENETIC ALGORITHM DOCKING 15 of 100
Run: 15 Seed: 2051314426 533266238 [ Run 15 of 100 GA/GALS ]
Beginning LAMARCKIAN GENETIC ALGORITHM (LGA), with a maximum of 2500000 energy evaluations.

Final-Value: -15.673


	FINAL GENETIC ALGORITHM DOCKED STATE
	_______________________________________________


Detailed state:  trans 24.200 -17.954 -2.747 quatxyzw 0.209596 -0.757509 0.293859 -0.543964 center 0.293 0.181 0.279 ntor 6 64.2498 -61.3258 -34.3690 170.8567 -176.0718 -158.5636
State:	 24.200 -17.954  -2.747   0.250 -0.903  0.350 -114.092     64.25  -61.33  -34.37  170.86 -176.07 -158.56

DOCKED: MODEL       15
DOCKED: USER    Run = 15
DOCKED: USER    DPF = ligand_dock.biased.dpf
DOCKED: USER  
DOCKED: USER    Estimated Free Energy of Binding    =  -12.73 kcal/mol  [=(1)+(2)+(3)-(4)]
DOCKED: USER    Estimated Inhibition Constant, Ki   =  463.32 pM (picomolar)  [Temperature = 298.15 K]
DOCKED: USER    
DOCKED: USER    (1) Final Intermolecular Energy     =  -14.52 kcal/mol
DOCKED: USER        vdW + Hbond + desolv Energy     =  -14.52 kcal/mol
DOCKED: USER        Electrostatic Energy            =   +0.00 kcal/mol
DOCKED: USER    (2) Final Total Internal Energy     =   -1.15 kcal/mol
DOCKED: USER    (3) Torsional Free Energy           =   +1.79 kcal/mol
DOCKED: USER    (4) Unbound System's Energy  [=(2)] =   -1.15 kcal/mol
DOCKED: USER    
DOCKED: USER    
DOCKED: USER    NEWDPF move ligand.pdbqt
DOCKED: USER    NEWDPF about 0.293000 0.181000 0.279000
DOCKED: USER    NEWDPF tran0 24.200033 -17.953566 -2.747379
DOCKED: USER    NEWDPF quaternion0 0.209596 -0.757509 0.293859 -0.543964
DOCKED: USER    NEWDPF axisangle0 0.249784 -0.902754 0.350203 -114.092144
DOCKED: USER    NEWDPF quat0 0.249784 -0.902754 0.350203 -114.092144
DOCKED: USER    NEWDPF dihe0 64.25 -61.33 -34.37 170.86 -176.07 -158.56 
DOCKED: USER  keepresnum = 1 
DOCKED: USER  
DOCKED: REMARK  Name = 
DOCKED: REMARK  6 active torsions:
DOCKED: REMARK  status: ('A' for Active; 'I' for Inactive)
DOCKED: REMARK    1  A    between atoms: S_2  and  N_3
DOCKED: REMARK    2  A    between atoms: S_2  and  C_10
DOCKED: REMARK    3  A    between atoms: N_3  and  C_4
DOCKED: REMARK    4  A    between atoms: C_12  and  C_13
DOCKED: REMARK    5  A    between atoms: C_14  and  C_15
DOCKED: REMARK    6  A    between atoms: N_16  and  O_17
DOCKED: REMARK                            x       y       z     vdW  Elec       q    Type
DOCKED: REMARK                         _______ _______ _______ _____ _____    ______ ____
DOCKED: USER                              x       y       z     vdW  Elec       q    Type
DOCKED: USER                           _______ _______ _______ _____ _____    ______ ____
DOCKED: ROOT
DOCKED: ATOM      1  C   UNL     1      25.913 -16.243  -2.627 -0.45 -0.00    +0.000 A 
DOCKED: ATOM      2  C   UNL     1      24.757 -16.912  -2.203 -0.48 -0.00    +0.000 A 
DOCKED: ATOM      3  C   UNL     1      24.800 -17.801  -1.116 -0.64 -0.00    +0.000 A 
DOCKED: ATOM      4  C   UNL     1      26.020 -17.983  -0.433 -0.58 -0.00    +0.000 A 
DOCKED: ATOM      5  C   UNL     1      27.170 -17.307  -0.850 -0.44 -0.00    +0.000 A 
DOCKED: ATOM      6  C   UNL     1      27.120 -16.442  -1.945 -0.34 -0.00    +0.000 A 
DOCKED: ENDROOT
DOCKED: BRANCH   1   8
DOCKED: ATOM      7  O   UNL     1      24.656 -14.247  -3.918 -1.03 -0.00    +0.000 OA
DOCKED: ATOM      8  S   UNL     1      25.846 -15.160  -4.014 -0.73 -0.00    +0.000 S 
DOCKED: ATOM      9  O   UNL     1      25.731 -15.984  -5.264 -1.10 +0.00    +0.000 OA
DOCKED: BRANCH   8  10
DOCKED: ATOM     10  N   UNL     1      27.291 -14.200  -4.093 -0.28 -0.00    +0.000 N 
DOCKED: ATOM     11  H   UNL     1      27.484 -13.593  -3.342 +0.00 -0.00    +0.000 HD
DOCKED: BRANCH  10  12
DOCKED: ATOM     12  C   UNL     1      28.221 -14.238  -5.190 -0.28 -0.00    +0.000 A 
DOCKED: ATOM     13  C   UNL     1      29.087 -15.330  -5.396 -0.30 -0.00    +0.000 A 
DOCKED: ATOM     14  C   UNL     1      29.972 -15.334  -6.478 -0.29 -0.00    +0.000 A 
DOCKED: ATOM     15  C   UNL     1      30.008 -14.253  -7.361 -0.24 -0.00    +0.000 A 
DOCKED: ATOM     16  C   UNL     1      29.159 -13.161  -7.162 -0.24 -0.00    +0.000 A 
DOCKED: ATOM     17  C   UNL     1      28.272 -13.152  -6.081 -0.23 -0.00    +0.000 A 
DOCKED: ENDBRANCH  10  12
DOCKED: ENDBRANCH   8  10
DOCKED: ENDBRANCH   1   8
DOCKED: BRANCH   3  18
DOCKED: ATOM     18  C   UNL     1      23.547 -18.486  -0.711 -0.82 -0.00    +0.000 C 
DOCKED: ATOM     19  C   UNL     1      22.323 -18.077  -1.079 -0.75 -0.00    +0.000 C 
DOCKED: BRANCH  19  20
DOCKED: ATOM     20  C   UNL     1      21.080 -18.760  -0.668 -0.86 -0.00    +0.000 C 
DOCKED: ATOM     21  N   UNL     1      21.078 -20.090  -0.131 -0.61 -0.00    +0.000 N 
DOCKED: ATOM     22  O   UNL     1      19.990 -18.138  -0.772 -1.95 -0.00    +0.000 OA
DOCKED: ATOM     23  H   UNL     1      21.931 -20.547   0.051 -0.57 -0.00    +0.000 HD
DOCKED: BRANCH  21  24
DOCKED: ATOM     24  O   UNL     1      19.905 -20.718   0.124 -0.80 -0.00    +0.000 OA
DOCKED: ATOM     25  H   UNL     1      19.426 -20.858  -0.707 -0.52 -0.00    +0.000 HD
DOCKED: ENDBRANCH  21  24
DOCKED: ENDBRANCH  19  20
DOCKED: ENDBRANCH   3  18
DOCKED: TORSDOF 6
DOCKED: TER
DOCKED: ENDMDL
________________________________________________________________________________


	BEGINNING GENETIC ALGORITHM DOCKING 16 of 100
Run: 16 Seed: 1222907961 2013323058 [ Run 16 of 100 GA/GALS ]
Beginning LAMARCKIAN GENETIC ALGORITHM (LGA), with a maximum of 2500000 energy evaluations.

Final-Value: -15.455


	FINAL GENETIC ALGORITHM DOCKED STATE
	_______________________________________________


Detailed state:  trans 23.913 -17.324 -2.763 quatxyzw 0.074651 -0.790518 0.224077 -0.565065 center 0.293 0.181 0.279 ntor 6 3.4935 -71.8761 -164.5637 157.9181 -42.8848 -156.0217
State:	 23.913 -17.324  -2.763   0.090 -0.958  0.272 -111.186      3.49  -71.88 -164.56  157.92  -42.88 -156.02

DOCKED: MODEL       16
DOCKED: USER    Run = 16
DOCKED: USER    DPF = ligand_dock.biased.dpf
DOCKED: USER  
DOCKED: USER    Estimated Free Energy of Binding    =  -12.13 kcal/mol  [=(1)+(2)+(3)-(4)]
DOCKED: USER    Estimated Inhibition Constant, Ki   =    1.29 nM (nanomolar)  [Temperature = 298.15 K]
DOCKED: USER    
DOCKED: USER    (1) Final Intermolecular Energy     =  -13.92 kcal/mol
DOCKED: USER        vdW + Hbond + desolv Energy     =  -13.92 kcal/mol
DOCKED: USER        Electrostatic Energy            =   +0.00 kcal/mol
DOCKED: USER    (2) Final Total Internal Energy     =   -1.54 kcal/mol
DOCKED: USER    (3) Torsional Free Energy           =   +1.79 kcal/mol
DOCKED: USER    (4) Unbound System's Energy  [=(2)] =   -1.54 kcal/mol
DOCKED: USER    
DOCKED: USER    
DOCKED: USER    NEWDPF move ligand.pdbqt
DOCKED: USER    NEWDPF about 0.293000 0.181000 0.279000
DOCKED: USER    NEWDPF tran0 23.913463 -17.324385 -2.763353
DOCKED: USER    NEWDPF quaternion0 0.074651 -0.790518 0.224077 -0.565065
DOCKED: USER    NEWDPF axisangle0 0.090481 -0.958149 0.271594 -111.186401
DOCKED: USER    NEWDPF quat0 0.090481 -0.958149 0.271594 -111.186401
DOCKED: USER    NEWDPF dihe0 3.49 -71.88 -164.56 157.92 -42.88 -156.02 
DOCKED: USER  keepresnum = 1 
DOCKED: USER  
DOCKED: REMARK  Name = 
DOCKED: REMARK  6 active torsions:
DOCKED: REMARK  status: ('A' for Active; 'I' for Inactive)
DOCKED: REMARK    1  A    between atoms: S_2  and  N_3
DOCKED: REMARK    2  A    between atoms: S_2  and  C_10
DOCKED: REMARK    3  A    between atoms: N_3  and  C_4
DOCKED: REMARK    4  A    between atoms: C_12  and  C_13
DOCKED: REMARK    5  A    between atoms: C_14  and  C_15
DOCKED: REMARK    6  A    between atoms: N_16  and  O_17
DOCKED: REMARK                            x       y       z     vdW  Elec       q    Type
DOCKED: REMARK                         _______ _______ _______ _____ _____    ______ ____
DOCKED: USER                              x       y       z     vdW  Elec       q    Type
DOCKED: USER                           _______ _______ _______ _____ _____    ______ ____
DOCKED: ROOT
DOCKED: ATOM      1  C   UNL     1      26.057 -16.208  -2.581 -0.44 -0.00    +0.000 A 
DOCKED: ATOM      2  C   UNL     1      24.734 -16.480  -2.211 -0.43 -0.00    +0.000 A 
DOCKED: ATOM      3  C   UNL     1      24.451 -17.298  -1.103 -0.63 -0.00    +0.000 A 
DOCKED: ATOM      4  C   UNL     1      25.524 -17.813  -0.348 -0.61 -0.00    +0.000 A 
DOCKED: ATOM      5  C   UNL     1      26.844 -17.532  -0.712 -0.48 -0.00    +0.000 A 
DOCKED: ATOM      6  C   UNL     1      27.112 -16.735  -1.826 -0.36 -0.00    +0.000 A 
DOCKED: ENDROOT
DOCKED: BRANCH   1   8
DOCKED: ATOM      7  O   UNL     1      25.574 -13.947  -3.955 -0.60 -0.00    +0.000 OA
DOCKED: ATOM      8  S   UNL     1      26.389 -15.209  -3.993 -0.66 -0.00    +0.000 S 
DOCKED: ATOM      9  O   UNL     1      26.032 -15.986  -5.228 -1.10 +0.00    +0.000 OA
DOCKED: BRANCH   8  10
DOCKED: ATOM     10  N   UNL     1      28.075 -14.794  -4.047 -0.24 -0.00    +0.000 N 
DOCKED: ATOM     11  H   UNL     1      28.403 -14.110  -3.419 +0.01 -0.00    +0.000 HD
DOCKED: BRANCH  10  12
DOCKED: ATOM     12  C   UNL     1      29.019 -15.387  -4.956 -0.28 -0.00    +0.000 A 
DOCKED: ATOM     13  C   UNL     1      29.646 -16.619  -4.682 -0.26 -0.00    +0.000 A 
DOCKED: ATOM     14  C   UNL     1      30.553 -17.168  -5.593 -0.27 -0.00    +0.000 A 
DOCKED: ATOM     15  C   UNL     1      30.848 -16.497  -6.782 -0.27 -0.00    +0.000 A 
DOCKED: ATOM     16  C   UNL     1      30.238 -15.271  -7.060 -0.28 -0.00    +0.000 A 
DOCKED: ATOM     17  C   UNL     1      29.330 -14.718  -6.152 -0.30 -0.00    +0.000 A 
DOCKED: ENDBRANCH  10  12
DOCKED: ENDBRANCH   8  10
DOCKED: ENDBRANCH   1   8
DOCKED: BRANCH   3  18
DOCKED: ATOM     18  C   UNL     1      23.031 -17.556  -0.757 -0.77 -0.00    +0.000 C 
DOCKED: ATOM     19  C   UNL     1      22.462 -18.770  -0.809 -0.84 -0.00    +0.000 C 
DOCKED: BRANCH  19  20
DOCKED: ATOM     20  C   UNL     1      21.047 -19.020  -0.468 -0.87 -0.00    +0.000 C 
DOCKED: ATOM     21  N   UNL     1      20.611 -20.237   0.151 -0.67 -0.00    +0.000 N 
DOCKED: ATOM     22  O   UNL     1      20.203 -18.116  -0.710 -2.13 -0.00    +0.000 OA
DOCKED: ATOM     23  H   UNL     1      21.273 -20.907   0.438 -0.57 -0.00    +0.000 HD
DOCKED: BRANCH  21  24
DOCKED: ATOM     24  O   UNL     1      19.289 -20.468   0.340 -0.80 -0.00    +0.000 OA
DOCKED: ATOM     25  H   UNL     1      18.776 -19.742  -0.046 -0.06 -0.00    +0.000 HD
DOCKED: ENDBRANCH  21  24
DOCKED: ENDBRANCH  19  20
DOCKED: ENDBRANCH   3  18
DOCKED: TORSDOF 6
DOCKED: TER
DOCKED: ENDMDL
________________________________________________________________________________


	BEGINNING GENETIC ALGORITHM DOCKING 17 of 100
Run: 17 Seed: 414704797 112526812 [ Run 17 of 100 GA/GALS ]
Beginning LAMARCKIAN GENETIC ALGORITHM (LGA), with a maximum of 2500000 energy evaluations.

Final-Value: -15.579


	FINAL GENETIC ALGORITHM DOCKED STATE
	_______________________________________________


Detailed state:  trans 24.195 -17.987 -2.781 quatxyzw -0.206675 0.766564 -0.276647 0.541416 center 0.293 0.181 0.279 ntor 6 2.1537 126.2082 -21.6569 174.3006 173.3938 -158.8307
State:	 24.195 -17.987  -2.781  -0.246  0.912 -0.329 114.440      2.15  126.21  -21.66  174.30  173.39 -158.83

DOCKED: MODEL       17
DOCKED: USER    Run = 17
DOCKED: USER    DPF = ligand_dock.biased.dpf
DOCKED: USER  
DOCKED: USER    Estimated Free Energy of Binding    =  -12.23 kcal/mol  [=(1)+(2)+(3)-(4)]
DOCKED: USER    Estimated Inhibition Constant, Ki   =    1.09 nM (nanomolar)  [Temperature = 298.15 K]
DOCKED: USER    
DOCKED: USER    (1) Final Intermolecular Energy     =  -14.02 kcal/mol
DOCKED: USER        vdW + Hbond + desolv Energy     =  -14.02 kcal/mol
DOCKED: USER        Electrostatic Energy            =   +0.00 kcal/mol
DOCKED: USER    (2) Final Total Internal Energy     =   -1.56 kcal/mol
DOCKED: USER    (3) Torsional Free Energy           =   +1.79 kcal/mol
DOCKED: USER    (4) Unbound System's Energy  [=(2)] =   -1.56 kcal/mol
DOCKED: USER    
DOCKED: USER    
DOCKED: USER    NEWDPF move ligand.pdbqt
DOCKED: USER    NEWDPF about 0.293000 0.181000 0.279000
DOCKED: USER    NEWDPF tran0 24.195110 -17.987149 -2.781180
DOCKED: USER    NEWDPF quaternion0 -0.206675 0.766564 -0.276647 0.541416
DOCKED: USER    NEWDPF axisangle0 -0.245821 0.911757 -0.329046 114.439789
DOCKED: USER    NEWDPF quat0 -0.245821 0.911757 -0.329046 114.439789
DOCKED: USER    NEWDPF dihe0 2.15 126.21 -21.66 174.30 173.39 -158.83 
DOCKED: USER  keepresnum = 1 
DOCKED: USER  
DOCKED: REMARK  Name = 
DOCKED: REMARK  6 active torsions:
DOCKED: REMARK  status: ('A' for Active; 'I' for Inactive)
DOCKED: REMARK    1  A    between atoms: S_2  and  N_3
DOCKED: REMARK    2  A    between atoms: S_2  and  C_10
DOCKED: REMARK    3  A    between atoms: N_3  and  C_4
DOCKED: REMARK    4  A    between atoms: C_12  and  C_13
DOCKED: REMARK    5  A    between atoms: C_14  and  C_15
DOCKED: REMARK    6  A    between atoms: N_16  and  O_17
DOCKED: REMARK                            x       y       z     vdW  Elec       q    Type
DOCKED: REMARK                         _______ _______ _______ _____ _____    ______ ____
DOCKED: USER                              x       y       z     vdW  Elec       q    Type
DOCKED: USER                           _______ _______ _______ _____ _____    ______ ____
DOCKED: ROOT
DOCKED: ATOM      1  C   UNL     1      25.950 -16.325  -2.597 -0.44 -0.00    +0.000 A 
DOCKED: ATOM      2  C   UNL     1      24.774 -16.976  -2.203 -0.49 -0.00    +0.000 A 
DOCKED: ATOM      3  C   UNL     1      24.784 -17.898  -1.141 -0.64 -0.00    +0.000 A 
DOCKED: ATOM      4  C   UNL     1      25.994 -18.130  -0.455 -0.58 -0.00    +0.000 A 
DOCKED: ATOM      5  C   UNL     1      27.164 -17.472  -0.843 -0.44 -0.00    +0.000 A 
DOCKED: ATOM      6  C   UNL     1      27.145 -16.575  -1.912 -0.34 -0.00    +0.000 A 
DOCKED: ENDROOT
DOCKED: BRANCH   1   8
DOCKED: ATOM      7  O   UNL     1      24.751 -14.265  -3.842 -1.02 -0.00    +0.000 OA
DOCKED: ATOM      8  S   UNL     1      25.922 -15.201  -3.952 -0.73 -0.00    +0.000 S 
DOCKED: ATOM      9  O   UNL     1      25.804 -15.985  -5.228 -1.11 +0.00    +0.000 OA
DOCKED: BRANCH   8  10
DOCKED: ATOM     10  N   UNL     1      27.388 -14.271  -3.987 -0.27 -0.00    +0.000 N 
DOCKED: ATOM     11  H   UNL     1      27.612 -13.731  -3.195 +0.00 -0.00    +0.000 HD
DOCKED: BRANCH  10  12
DOCKED: ATOM     12  C   UNL     1      28.295 -14.242  -5.104 -0.27 -0.00    +0.000 A 
DOCKED: ATOM     13  C   UNL     1      28.515 -13.070  -5.856 -0.20 -0.00    +0.000 A 
DOCKED: ATOM     14  C   UNL     1      29.410 -13.079  -6.930 -0.20 -0.00    +0.000 A 
DOCKED: ATOM     15  C   UNL     1      30.089 -14.251  -7.269 -0.24 -0.00    +0.000 A 
DOCKED: ATOM     16  C   UNL     1      29.872 -15.420  -6.536 -0.30 -0.00    +0.000 A 
DOCKED: ATOM     17  C   UNL     1      28.979 -15.416  -5.460 -0.32 -0.00    +0.000 A 
DOCKED: ENDBRANCH  10  12
DOCKED: ENDBRANCH   8  10
DOCKED: ENDBRANCH   1   8
DOCKED: BRANCH   3  18
DOCKED: ATOM     18  C   UNL     1      23.511 -18.562  -0.767 -0.83 -0.00    +0.000 C 
DOCKED: ATOM     19  C   UNL     1      22.302 -18.011  -0.953 -0.76 -0.00    +0.000 C 
DOCKED: BRANCH  19  20
DOCKED: ATOM     20  C   UNL     1      21.039 -18.676  -0.573 -0.82 -0.00    +0.000 C 
DOCKED: ATOM     21  N   UNL     1      21.004 -20.004  -0.033 -0.66 -0.00    +0.000 N 
DOCKED: ATOM     22  O   UNL     1      19.961 -18.038  -0.707 -1.94 -0.00    +0.000 OA
DOCKED: ATOM     23  H   UNL     1      21.845 -20.473   0.173 -0.58 -0.00    +0.000 HD
DOCKED: BRANCH  21  24
DOCKED: ATOM     24  O   UNL     1      19.816 -20.615   0.194 -0.80 -0.00    +0.000 OA
DOCKED: ATOM     25  H   UNL     1      19.095 -20.034  -0.093 -0.05 -0.00    +0.000 HD
DOCKED: ENDBRANCH  21  24
DOCKED: ENDBRANCH  19  20
DOCKED: ENDBRANCH   3  18
DOCKED: TORSDOF 6
DOCKED: TER
DOCKED: ENDMDL
________________________________________________________________________________


	BEGINNING GENETIC ALGORITHM DOCKING 18 of 100
Run: 18 Seed: 403171276 1417592138 [ Run 18 of 100 GA/GALS ]
Beginning LAMARCKIAN GENETIC ALGORITHM (LGA), with a maximum of 2500000 energy evaluations.

Final-Value: -15.594


	FINAL GENETIC ALGORITHM DOCKED STATE
	_______________________________________________


Detailed state:  trans 24.249 -17.885 -2.680 quatxyzw 0.201940 -0.753381 0.301519 -0.548383 center 0.293 0.181 0.279 ntor 6 70.6257 128.2487 -41.7277 179.1233 -170.5342 -162.5948
State:	 24.249 -17.885  -2.680   0.241 -0.901  0.361 -113.488     70.63  128.25  -41.73  179.12 -170.53 -162.59

DOCKED: MODEL       18
DOCKED: USER    Run = 18
DOCKED: USER    DPF = ligand_dock.biased.dpf
DOCKED: USER  
DOCKED: USER    Estimated Free Energy of Binding    =  -12.70 kcal/mol  [=(1)+(2)+(3)-(4)]
DOCKED: USER    Estimated Inhibition Constant, Ki   =  494.55 pM (picomolar)  [Temperature = 298.15 K]
DOCKED: USER    
DOCKED: USER    (1) Final Intermolecular Energy     =  -14.49 kcal/mol
DOCKED: USER        vdW + Hbond + desolv Energy     =  -14.49 kcal/mol
DOCKED: USER        Electrostatic Energy            =   +0.00 kcal/mol
DOCKED: USER    (2) Final Total Internal Energy     =   -1.11 kcal/mol
DOCKED: USER    (3) Torsional Free Energy           =   +1.79 kcal/mol
DOCKED: USER    (4) Unbound System's Energy  [=(2)] =   -1.11 kcal/mol
DOCKED: USER    
DOCKED: USER    
DOCKED: USER    NEWDPF move ligand.pdbqt
DOCKED: USER    NEWDPF about 0.293000 0.181000 0.279000
DOCKED: USER    NEWDPF tran0 24.249130 -17.884716 -2.680279
DOCKED: USER    NEWDPF quaternion0 0.201940 -0.753381 0.301519 -0.548383
DOCKED: USER    NEWDPF axisangle0 0.241489 -0.900928 0.360570 -113.487748
DOCKED: USER    NEWDPF quat0 0.241489 -0.900928 0.360570 -113.487748
DOCKED: USER    NEWDPF dihe0 70.63 128.25 -41.73 179.12 -170.53 -162.59 
DOCKED: USER  keepresnum = 1 
DOCKED: USER  
DOCKED: REMARK  Name = 
DOCKED: REMARK  6 active torsions:
DOCKED: REMARK  status: ('A' for Active; 'I' for Inactive)
DOCKED: REMARK    1  A    between atoms: S_2  and  N_3
DOCKED: REMARK    2  A    between atoms: S_2  and  C_10
DOCKED: REMARK    3  A    between atoms: N_3  and  C_4
DOCKED: REMARK    4  A    between atoms: C_12  and  C_13
DOCKED: REMARK    5  A    between atoms: C_14  and  C_15
DOCKED: REMARK    6  A    between atoms: N_16  and  O_17
DOCKED: REMARK                            x       y       z     vdW  Elec       q    Type
DOCKED: REMARK                         _______ _______ _______ _____ _____    ______ ____
DOCKED: USER                              x       y       z     vdW  Elec       q    Type
DOCKED: USER                           _______ _______ _______ _____ _____    ______ ____
DOCKED: ROOT
DOCKED: ATOM      1  C   UNL     1      25.970 -16.179  -2.607 -0.45 -0.00    +0.000 A 
DOCKED: ATOM      2  C   UNL     1      24.813 -16.833  -2.164 -0.49 -0.00    +0.000 A 
DOCKED: ATOM      3  C   UNL     1      24.855 -17.696  -1.055 -0.64 -0.00    +0.000 A 
DOCKED: ATOM      4  C   UNL     1      26.077 -17.866  -0.372 -0.58 -0.00    +0.000 A 
DOCKED: ATOM      5  C   UNL     1      27.228 -17.204  -0.810 -0.43 -0.00    +0.000 A 
DOCKED: ATOM      6  C   UNL     1      27.178 -16.366  -1.925 -0.34 -0.00    +0.000 A 
DOCKED: ENDROOT
DOCKED: BRANCH   1   8
DOCKED: ATOM      7  O   UNL     1      24.664 -14.278  -3.990 -1.04 -0.00    +0.000 OA
DOCKED: ATOM      8  S   UNL     1      25.902 -15.129  -4.020 -0.73 -0.00    +0.000 S 
DOCKED: ATOM      9  O   UNL     1      25.879 -15.984  -5.255 -1.13 +0.00    +0.000 OA
DOCKED: BRANCH   8  10
DOCKED: ATOM     10  N   UNL     1      27.298 -14.097  -4.064 -0.27 -0.00    +0.000 N 
DOCKED: ATOM     11  H   UNL     1      27.498 -13.556  -3.266 +0.00 -0.00    +0.000 HD
DOCKED: BRANCH  10  12
DOCKED: ATOM     12  C   UNL     1      28.178 -13.985  -5.197 -0.26 -0.00    +0.000 A 
DOCKED: ATOM     13  C   UNL     1      28.331 -12.776  -5.905 -0.19 -0.00    +0.000 A 
DOCKED: ATOM     14  C   UNL     1      29.202 -12.703  -6.997 -0.19 -0.00    +0.000 A 
DOCKED: ATOM     15  C   UNL     1      29.924 -13.830  -7.396 -0.23 -0.00    +0.000 A 
DOCKED: ATOM     16  C   UNL     1      29.773 -15.035  -6.706 -0.30 -0.00    +0.000 A 
DOCKED: ATOM     17  C   UNL     1      28.903 -15.113  -5.614 -0.33 -0.00    +0.000 A 
DOCKED: ENDBRANCH  10  12
DOCKED: ENDBRANCH   8  10
DOCKED: ENDBRANCH   1   8
DOCKED: BRANCH   3  18
DOCKED: ATOM     18  C   UNL     1      23.601 -18.365  -0.630 -0.81 -0.00    +0.000 C 
DOCKED: ATOM     19  C   UNL     1      22.386 -18.028  -1.086 -0.73 -0.00    +0.000 C 
DOCKED: BRANCH  19  20
DOCKED: ATOM     20  C   UNL     1      21.141 -18.695  -0.655 -0.85 -0.00    +0.000 C 
DOCKED: ATOM     21  N   UNL     1      21.130 -20.026  -0.121 -0.60 -0.00    +0.000 N 
DOCKED: ATOM     22  O   UNL     1      20.058 -18.058  -0.738 -2.01 -0.00    +0.000 OA
DOCKED: ATOM     23  H   UNL     1      21.980 -20.495   0.045 -0.58 -0.00    +0.000 HD
DOCKED: BRANCH  21  24
DOCKED: ATOM     24  O   UNL     1      19.954 -20.639   0.155 -0.80 -0.00    +0.000 OA
DOCKED: ATOM     25  H   UNL     1      19.503 -20.860  -0.675 -0.51 -0.00    +0.000 HD
DOCKED: ENDBRANCH  21  24
DOCKED: ENDBRANCH  19  20
DOCKED: ENDBRANCH   3  18
DOCKED: TORSDOF 6
DOCKED: TER
DOCKED: ENDMDL
________________________________________________________________________________


	BEGINNING GENETIC ALGORITHM DOCKING 19 of 100
Run: 19 Seed: 1598500002 1401561663 [ Run 19 of 100 GA/GALS ]
Beginning LAMARCKIAN GENETIC ALGORITHM (LGA), with a maximum of 2500000 energy evaluations.

Final-Value: -15.880


	FINAL GENETIC ALGORITHM DOCKED STATE
	_______________________________________________


Detailed state:  trans 24.217 -17.981 -2.730 quatxyzw 0.207690 -0.761482 0.319559 -0.524302 center 0.293 0.181 0.279 ntor 6 34.1642 -59.6682 -28.3798 148.4505 179.8347 -147.7322
State:	 24.217 -17.981  -2.730   0.244 -0.894  0.375 -116.757     34.16  -59.67  -28.38  148.45  179.83 -147.73

DOCKED: MODEL       19
DOCKED: USER    Run = 19
DOCKED: USER    DPF = ligand_dock.biased.dpf
DOCKED: USER  
DOCKED: USER    Estimated Free Energy of Binding    =  -12.68 kcal/mol  [=(1)+(2)+(3)-(4)]
DOCKED: USER    Estimated Inhibition Constant, Ki   =  507.58 pM (picomolar)  [Temperature = 298.15 K]
DOCKED: USER    
DOCKED: USER    (1) Final Intermolecular Energy     =  -14.47 kcal/mol
DOCKED: USER        vdW + Hbond + desolv Energy     =  -14.47 kcal/mol
DOCKED: USER        Electrostatic Energy            =   +0.00 kcal/mol
DOCKED: USER    (2) Final Total Internal Energy     =   -1.41 kcal/mol
DOCKED: USER    (3) Torsional Free Energy           =   +1.79 kcal/mol
DOCKED: USER    (4) Unbound System's Energy  [=(2)] =   -1.41 kcal/mol
DOCKED: USER    
DOCKED: USER    
DOCKED: USER    NEWDPF move ligand.pdbqt
DOCKED: USER    NEWDPF about 0.293000 0.181000 0.279000
DOCKED: USER    NEWDPF tran0 24.216924 -17.980533 -2.729552
DOCKED: USER    NEWDPF quaternion0 0.207690 -0.761482 0.319559 -0.524302
DOCKED: USER    NEWDPF axisangle0 0.243901 -0.894249 0.375275 -116.757407
DOCKED: USER    NEWDPF quat0 0.243901 -0.894249 0.375275 -116.757407
DOCKED: USER    NEWDPF dihe0 34.16 -59.67 -28.38 148.45 179.83 -147.73 
DOCKED: USER  keepresnum = 1 
DOCKED: USER  
DOCKED: REMARK  Name = 
DOCKED: REMARK  6 active torsions:
DOCKED: REMARK  status: ('A' for Active; 'I' for Inactive)
DOCKED: REMARK    1  A    between atoms: S_2  and  N_3
DOCKED: REMARK    2  A    between atoms: S_2  and  C_10
DOCKED: REMARK    3  A    between atoms: N_3  and  C_4
DOCKED: REMARK    4  A    between atoms: C_12  and  C_13
DOCKED: REMARK    5  A    between atoms: C_14  and  C_15
DOCKED: REMARK    6  A    between atoms: N_16  and  O_17
DOCKED: REMARK                            x       y       z     vdW  Elec       q    Type
DOCKED: REMARK                         _______ _______ _______ _____ _____    ______ ____
DOCKED: USER                              x       y       z     vdW  Elec       q    Type
DOCKED: USER                           _______ _______ _______ _____ _____    ______ ____
DOCKED: ROOT
DOCKED: ATOM      1  C   UNL     1      25.863 -16.207  -2.585 -0.46 -0.00    +0.000 A 
DOCKED: ATOM      2  C   UNL     1      24.712 -16.904  -2.194 -0.45 -0.00    +0.000 A 
DOCKED: ATOM      3  C   UNL     1      24.734 -17.759  -1.078 -0.65 -0.00    +0.000 A 
DOCKED: ATOM      4  C   UNL     1      25.927 -17.876  -0.335 -0.59 -0.00    +0.000 A 
DOCKED: ATOM      5  C   UNL     1      27.071 -17.172  -0.721 -0.45 -0.00    +0.000 A 
DOCKED: ATOM      6  C   UNL     1      27.043 -16.343  -1.843 -0.36 -0.00    +0.000 A 
DOCKED: ENDROOT
DOCKED: BRANCH   1   8
DOCKED: ATOM      7  O   UNL     1      24.755 -14.121  -3.869 -1.06 -0.00    +0.000 OA
DOCKED: ATOM      8  S   UNL     1      25.823 -15.169  -4.007 -0.73 -0.00    +0.000 S 
DOCKED: ATOM      9  O   UNL     1      25.528 -16.014  -5.213 -1.05 -0.00    +0.000 OA
DOCKED: BRANCH   8  10
DOCKED: ATOM     10  N   UNL     1      27.359 -14.387  -4.218 -0.30 -0.00    +0.000 N 
DOCKED: ATOM     11  H   UNL     1      27.530 -13.558  -3.714 +0.00 -0.00    +0.000 HD
DOCKED: BRANCH  10  12
DOCKED: ATOM     12  C   UNL     1      28.397 -14.877  -5.086 -0.32 -0.00    +0.000 A 
DOCKED: ATOM     13  C   UNL     1      29.140 -16.035  -4.781 -0.28 -0.00    +0.000 A 
DOCKED: ATOM     14  C   UNL     1      30.136 -16.485  -5.653 -0.28 -0.00    +0.000 A 
DOCKED: ATOM     15  C   UNL     1      30.404 -15.787  -6.833 -0.28 -0.00    +0.000 A 
DOCKED: ATOM     16  C   UNL     1      29.679 -14.634  -7.142 -0.27 -0.00    +0.000 A 
DOCKED: ATOM     17  C   UNL     1      28.682 -14.180  -6.272 -0.31 -0.00    +0.000 A 
DOCKED: ENDBRANCH  10  12
DOCKED: ENDBRANCH   8  10
DOCKED: ENDBRANCH   1   8
DOCKED: BRANCH   3  18
DOCKED: ATOM     18  C   UNL     1      23.488 -18.476  -0.709 -0.83 -0.00    +0.000 C 
DOCKED: ATOM     19  C   UNL     1      22.263 -18.075  -1.080 -0.74 -0.00    +0.000 C 
DOCKED: BRANCH  19  20
DOCKED: ATOM     20  C   UNL     1      21.026 -18.791  -0.705 -0.87 -0.00    +0.000 C 
DOCKED: ATOM     21  N   UNL     1      21.047 -20.087  -0.092 -0.62 -0.00    +0.000 N 
DOCKED: ATOM     22  O   UNL     1      19.920 -18.226  -0.912 -1.87 -0.00    +0.000 OA
DOCKED: ATOM     23  H   UNL     1      21.905 -20.493   0.169 -0.58 -0.00    +0.000 HD
DOCKED: BRANCH  21  24
DOCKED: ATOM     24  O   UNL     1      19.888 -20.753   0.130 -0.79 -0.00    +0.000 OA
DOCKED: ATOM     25  H   UNL     1      19.261 -20.556  -0.583 -0.34 -0.00    +0.000 HD
DOCKED: ENDBRANCH  21  24
DOCKED: ENDBRANCH  19  20
DOCKED: ENDBRANCH   3  18
DOCKED: TORSDOF 6
DOCKED: TER
DOCKED: ENDMDL
________________________________________________________________________________


	BEGINNING GENETIC ALGORITHM DOCKING 20 of 100
Run: 20 Seed: 2050478361 22205351 [ Run 20 of 100 GA/GALS ]
Beginning LAMARCKIAN GENETIC ALGORITHM (LGA), with a maximum of 2500000 energy evaluations.

Final-Value: -14.601


	FINAL GENETIC ALGORITHM DOCKED STATE
	_______________________________________________


Detailed state:  trans 25.166 -18.032 -3.044 quatxyzw -0.071298 0.813710 -0.449695 0.361340 center 0.293 0.181 0.279 ntor 6 58.1750 30.2409 50.5469 -120.1336 75.4331 -78.1518
State:	 25.166 -18.032  -3.044  -0.076  0.873 -0.482 137.635     58.17   30.24   50.55 -120.13   75.43  -78.15

DOCKED: MODEL       20
DOCKED: USER    Run = 20
DOCKED: USER    DPF = ligand_dock.biased.dpf
DOCKED: USER  
DOCKED: USER    Estimated Free Energy of Binding    =  -11.76 kcal/mol  [=(1)+(2)+(3)-(4)]
DOCKED: USER    Estimated Inhibition Constant, Ki   =    2.39 nM (nanomolar)  [Temperature = 298.15 K]
DOCKED: USER    
DOCKED: USER    (1) Final Intermolecular Energy     =  -13.55 kcal/mol
DOCKED: USER        vdW + Hbond + desolv Energy     =  -13.55 kcal/mol
DOCKED: USER        Electrostatic Energy            =   +0.00 kcal/mol
DOCKED: USER    (2) Final Total Internal Energy     =   -1.05 kcal/mol
DOCKED: USER    (3) Torsional Free Energy           =   +1.79 kcal/mol
DOCKED: USER    (4) Unbound System's Energy  [=(2)] =   -1.05 kcal/mol
DOCKED: USER    
DOCKED: USER    
DOCKED: USER    NEWDPF move ligand.pdbqt
DOCKED: USER    NEWDPF about 0.293000 0.181000 0.279000
DOCKED: USER    NEWDPF tran0 25.166283 -18.031740 -3.044064
DOCKED: USER    NEWDPF quaternion0 -0.071298 0.813710 -0.449695 0.361340
DOCKED: USER    NEWDPF axisangle0 -0.076464 0.872673 -0.482280 137.634922
DOCKED: USER    NEWDPF quat0 -0.076464 0.872673 -0.482280 137.634922
DOCKED: USER    NEWDPF dihe0 58.17 30.24 50.55 -120.13 75.43 -78.15 
DOCKED: USER  keepresnum = 1 
DOCKED: USER  
DOCKED: REMARK  Name = 
DOCKED: REMARK  6 active torsions:
DOCKED: REMARK  status: ('A' for Active; 'I' for Inactive)
DOCKED: REMARK    1  A    between atoms: S_2  and  N_3
DOCKED: REMARK    2  A    between atoms: S_2  and  C_10
DOCKED: REMARK    3  A    between atoms: N_3  and  C_4
DOCKED: REMARK    4  A    between atoms: C_12  and  C_13
DOCKED: REMARK    5  A    between atoms: C_14  and  C_15
DOCKED: REMARK    6  A    between atoms: N_16  and  O_17
DOCKED: REMARK                            x       y       z     vdW  Elec       q    Type
DOCKED: REMARK                         _______ _______ _______ _____ _____    ______ ____
DOCKED: USER                              x       y       z     vdW  Elec       q    Type
DOCKED: USER                           _______ _______ _______ _____ _____    ______ ____
DOCKED: ROOT
DOCKED: ATOM      1  C   UNL     1      26.663 -16.171  -2.629 -0.34 -0.00    +0.000 A 
DOCKED: ATOM      2  C   UNL     1      25.427 -16.831  -2.617 -0.38 -0.00    +0.000 A 
DOCKED: ATOM      3  C   UNL     1      24.930 -17.404  -1.433 -0.60 -0.00    +0.000 A 
DOCKED: ATOM      4  C   UNL     1      25.680 -17.270  -0.247 -0.45 -0.00    +0.000 A 
DOCKED: ATOM      5  C   UNL     1      26.907 -16.602  -0.258 -0.40 -0.00    +0.000 A 
DOCKED: ATOM      6  C   UNL     1      27.400 -16.056  -1.445 -0.32 -0.00    +0.000 A 
DOCKED: ENDROOT
DOCKED: BRANCH   1   8
DOCKED: ATOM      7  O   UNL     1      27.638 -14.042  -3.952 -0.24 -0.00    +0.000 OA
DOCKED: ATOM      8  S   UNL     1      27.284 -15.492  -4.130 -0.49 -0.00    +0.000 S 
DOCKED: ATOM      9  O   UNL     1      26.225 -15.611  -5.189 -1.19 +0.00    +0.000 OA
DOCKED: BRANCH   8  10
DOCKED: ATOM     10  N   UNL     1      28.699 -16.361  -4.638 -0.26 -0.00    +0.000 N 
DOCKED: ATOM     11  H   UNL     1      28.947 -17.173  -4.139 -0.03 -0.00    +0.000 HD
DOCKED: BRANCH  10  12
DOCKED: ATOM     12  C   UNL     1      29.531 -15.966  -5.744 -0.31 -0.00    +0.000 A 
DOCKED: ATOM     13  C   UNL     1      29.503 -14.658  -6.268 -0.29 -0.00    +0.000 A 
DOCKED: ATOM     14  C   UNL     1      30.332 -14.309  -7.338 -0.22 -0.00    +0.000 A 
DOCKED: ATOM     15  C   UNL     1      31.191 -15.256  -7.899 -0.18 -0.00    +0.000 A 
DOCKED: ATOM     16  C   UNL     1      31.221 -16.558  -7.393 -0.26 -0.00    +0.000 A 
DOCKED: ATOM     17  C   UNL     1      30.394 -16.912  -6.322 -0.31 -0.00    +0.000 A 
DOCKED: ENDBRANCH  10  12
DOCKED: ENDBRANCH   8  10
DOCKED: ENDBRANCH   1   8
DOCKED: BRANCH   3  18
DOCKED: ATOM     18  C   UNL     1      23.618 -18.095  -1.477 -0.75 -0.00    +0.000 C 
DOCKED: ATOM     19  C   UNL     1      22.595 -17.803  -0.659 -0.81 -0.00    +0.000 C 
DOCKED: BRANCH  19  20
DOCKED: ATOM     20  C   UNL     1      21.294 -18.499  -0.705 -0.84 -0.00    +0.000 C 
DOCKED: ATOM     21  N   UNL     1      21.143 -19.869  -0.310 -0.67 -0.00    +0.000 N 
DOCKED: ATOM     22  O   UNL     1      20.280 -17.853  -1.081 -2.17 -0.00    +0.000 OA
DOCKED: ATOM     23  H   UNL     1      21.905 -20.354   0.082 -0.56 -0.00    +0.000 HD
DOCKED: BRANCH  21  24
DOCKED: ATOM     24  O   UNL     1      19.954 -20.498  -0.478 -0.90 -0.00    +0.000 OA
DOCKED: ATOM     25  H   UNL     1      19.705 -20.474  -1.414 -0.58 -0.00    +0.000 HD
DOCKED: ENDBRANCH  21  24
DOCKED: ENDBRANCH  19  20
DOCKED: ENDBRANCH   3  18
DOCKED: TORSDOF 6
DOCKED: TER
DOCKED: ENDMDL
________________________________________________________________________________


	BEGINNING GENETIC ALGORITHM DOCKING 21 of 100
Run: 21 Seed: 594393494 205391208 [ Run 21 of 100 GA/GALS ]
Beginning LAMARCKIAN GENETIC ALGORITHM (LGA), with a maximum of 2500000 energy evaluations.

Final-Value: -15.776


	FINAL GENETIC ALGORITHM DOCKED STATE
	_______________________________________________


Detailed state:  trans 24.351 -17.929 -2.682 quatxyzw -0.205321 0.749462 -0.370630 0.508708 center 0.293 0.181 0.279 ntor 6 26.5667 130.0651 -35.4547 144.9122 175.5370 -143.7550
State:	 24.351 -17.929  -2.682  -0.238  0.871 -0.430 118.844     26.57  130.07  -35.45  144.91  175.54 -143.75

DOCKED: MODEL       21
DOCKED: USER    Run = 21
DOCKED: USER    DPF = ligand_dock.biased.dpf
DOCKED: USER  
DOCKED: USER    Estimated Free Energy of Binding    =  -12.49 kcal/mol  [=(1)+(2)+(3)-(4)]
DOCKED: USER    Estimated Inhibition Constant, Ki   =  697.91 pM (picomolar)  [Temperature = 298.15 K]
DOCKED: USER    
DOCKED: USER    (1) Final Intermolecular Energy     =  -14.28 kcal/mol
DOCKED: USER        vdW + Hbond + desolv Energy     =  -14.28 kcal/mol
DOCKED: USER        Electrostatic Energy            =   +0.00 kcal/mol
DOCKED: USER    (2) Final Total Internal Energy     =   -1.50 kcal/mol
DOCKED: USER    (3) Torsional Free Energy           =   +1.79 kcal/mol
DOCKED: USER    (4) Unbound System's Energy  [=(2)] =   -1.50 kcal/mol
DOCKED: USER    
DOCKED: USER    
DOCKED: USER    NEWDPF move ligand.pdbqt
DOCKED: USER    NEWDPF about 0.293000 0.181000 0.279000
DOCKED: USER    NEWDPF tran0 24.351329 -17.929029 -2.681893
DOCKED: USER    NEWDPF quaternion0 -0.205321 0.749462 -0.370630 0.508708
DOCKED: USER    NEWDPF axisangle0 -0.238485 0.870517 -0.430495 118.844347
DOCKED: USER    NEWDPF quat0 -0.238485 0.870517 -0.430495 118.844347
DOCKED: USER    NEWDPF dihe0 26.57 130.07 -35.45 144.91 175.54 -143.75 
DOCKED: USER  keepresnum = 1 
DOCKED: USER  
DOCKED: REMARK  Name = 
DOCKED: REMARK  6 active torsions:
DOCKED: REMARK  status: ('A' for Active; 'I' for Inactive)
DOCKED: REMARK    1  A    between atoms: S_2  and  N_3
DOCKED: REMARK    2  A    between atoms: S_2  and  C_10
DOCKED: REMARK    3  A    between atoms: N_3  and  C_4
DOCKED: REMARK    4  A    between atoms: C_12  and  C_13
DOCKED: REMARK    5  A    between atoms: C_14  and  C_15
DOCKED: REMARK    6  A    between atoms: N_16  and  O_17
DOCKED: REMARK                            x       y       z     vdW  Elec       q    Type
DOCKED: REMARK                         _______ _______ _______ _____ _____    ______ ____
DOCKED: USER                              x       y       z     vdW  Elec       q    Type
DOCKED: USER                           _______ _______ _______ _____ _____    ______ ____
DOCKED: ROOT
DOCKED: ATOM      1  C   UNL     1      25.875 -16.045  -2.633 -0.47 -0.00    +0.000 A 
DOCKED: ATOM      2  C   UNL     1      24.758 -16.783  -2.221 -0.46 -0.00    +0.000 A 
DOCKED: ATOM      3  C   UNL     1      24.793 -17.542  -1.039 -0.63 -0.00    +0.000 A 
DOCKED: ATOM      4  C   UNL     1      25.963 -17.520  -0.252 -0.54 -0.00    +0.000 A 
DOCKED: ATOM      5  C   UNL     1      27.074 -16.775  -0.659 -0.42 -0.00    +0.000 A 
DOCKED: ATOM      6  C   UNL     1      27.033 -16.042  -1.846 -0.34 -0.00    +0.000 A 
DOCKED: ENDROOT
DOCKED: BRANCH   1   8
DOCKED: ATOM      7  O   UNL     1      24.746 -14.080  -4.081 -1.11 -0.00    +0.000 OA
DOCKED: ATOM      8  S   UNL     1      25.822 -15.129  -4.136 -0.73 -0.00    +0.000 S 
DOCKED: ATOM      9  O   UNL     1      25.528 -16.073  -5.266 -1.01 -0.00    +0.000 OA
DOCKED: BRANCH   8  10
DOCKED: ATOM     10  N   UNL     1      27.351 -14.356  -4.419 -0.31 -0.00    +0.000 N 
DOCKED: ATOM     11  H   UNL     1      27.497 -13.464  -4.031 +0.00 -0.00    +0.000 HD
DOCKED: BRANCH  10  12
DOCKED: ATOM     12  C   UNL     1      28.416 -14.943  -5.189 -0.33 -0.00    +0.000 A 
DOCKED: ATOM     13  C   UNL     1      28.903 -14.342  -6.367 -0.32 -0.00    +0.000 A 
DOCKED: ATOM     14  C   UNL     1      29.945 -14.937  -7.084 -0.28 -0.00    +0.000 A 
DOCKED: ATOM     15  C   UNL     1      30.509 -16.135  -6.640 -0.29 -0.00    +0.000 A 
DOCKED: ATOM     16  C   UNL     1      30.029 -16.743  -5.477 -0.29 -0.00    +0.000 A 
DOCKED: ATOM     17  C   UNL     1      28.987 -16.151  -4.757 -0.26 -0.00    +0.000 A 
DOCKED: ENDBRANCH  10  12
DOCKED: ENDBRANCH   8  10
DOCKED: ENDBRANCH   1   8
DOCKED: BRANCH   3  18
DOCKED: ATOM     18  C   UNL     1      23.583 -18.308  -0.652 -0.82 -0.00    +0.000 C 
DOCKED: ATOM     19  C   UNL     1      22.339 -17.971  -1.025 -0.74 -0.00    +0.000 C 
DOCKED: BRANCH  19  20
DOCKED: ATOM     20  C   UNL     1      21.137 -18.735  -0.631 -0.85 -0.00    +0.000 C 
DOCKED: ATOM     21  N   UNL     1      21.213 -20.076  -0.130 -0.55 -0.00    +0.000 N 
DOCKED: ATOM     22  O   UNL     1      20.014 -18.174  -0.719 -1.98 -0.00    +0.000 OA
DOCKED: ATOM     23  H   UNL     1      22.090 -20.489   0.040 -0.57 -0.00    +0.000 HD
DOCKED: BRANCH  21  24
DOCKED: ATOM     24  O   UNL     1      20.078 -20.777   0.110 -0.78 -0.00    +0.000 OA
DOCKED: ATOM     25  H   UNL     1      19.368 -20.448  -0.462 -0.22 -0.00    +0.000 HD
DOCKED: ENDBRANCH  21  24
DOCKED: ENDBRANCH  19  20
DOCKED: ENDBRANCH   3  18
DOCKED: TORSDOF 6
DOCKED: TER
DOCKED: ENDMDL
________________________________________________________________________________


	BEGINNING GENETIC ALGORITHM DOCKING 22 of 100
Run: 22 Seed: 1889698817 1469118212 [ Run 22 of 100 GA/GALS ]
Beginning LAMARCKIAN GENETIC ALGORITHM (LGA), with a maximum of 2500000 energy evaluations.

Final-Value: -14.267


	FINAL GENETIC ALGORITHM DOCKED STATE
	_______________________________________________


Detailed state:  trans 25.148 -15.114 -0.895 quatxyzw -0.558544 0.554296 0.465576 0.404999 center 0.293 0.181 0.279 ntor 6 -158.4260 14.1942 -120.8334 -116.4792 174.7336 133.8648
State:	 25.148 -15.114  -0.895  -0.611  0.606  0.509 132.218   -158.43   14.19 -120.83 -116.48  174.73  133.86

DOCKED: MODEL       22
DOCKED: USER    Run = 22
DOCKED: USER    DPF = ligand_dock.biased.dpf
DOCKED: USER  
DOCKED: USER    Estimated Free Energy of Binding    =  -11.53 kcal/mol  [=(1)+(2)+(3)-(4)]
DOCKED: USER    Estimated Inhibition Constant, Ki   =    3.54 nM (nanomolar)  [Temperature = 298.15 K]
DOCKED: USER    
DOCKED: USER    (1) Final Intermolecular Energy     =  -13.32 kcal/mol
DOCKED: USER        vdW + Hbond + desolv Energy     =  -13.32 kcal/mol
DOCKED: USER        Electrostatic Energy            =   +0.00 kcal/mol
DOCKED: USER    (2) Final Total Internal Energy     =   -0.95 kcal/mol
DOCKED: USER    (3) Torsional Free Energy           =   +1.79 kcal/mol
DOCKED: USER    (4) Unbound System's Energy  [=(2)] =   -0.95 kcal/mol
DOCKED: USER    
DOCKED: USER    
DOCKED: USER    NEWDPF move ligand.pdbqt
DOCKED: USER    NEWDPF about 0.293000 0.181000 0.279000
DOCKED: USER    NEWDPF tran0 25.148492 -15.114053 -0.895370
DOCKED: USER    NEWDPF quaternion0 -0.558544 0.554296 0.465576 0.404999
DOCKED: USER    NEWDPF axisangle0 -0.610886 0.606240 0.509206 132.217848
DOCKED: USER    NEWDPF quat0 -0.610886 0.606240 0.509206 132.217848
DOCKED: USER    NEWDPF dihe0 -158.43 14.19 -120.83 -116.48 174.73 133.86 
DOCKED: USER  keepresnum = 1 
DOCKED: USER  
DOCKED: REMARK  Name = 
DOCKED: REMARK  6 active torsions:
DOCKED: REMARK  status: ('A' for Active; 'I' for Inactive)
DOCKED: REMARK    1  A    between atoms: S_2  and  N_3
DOCKED: REMARK    2  A    between atoms: S_2  and  C_10
DOCKED: REMARK    3  A    between atoms: N_3  and  C_4
DOCKED: REMARK    4  A    between atoms: C_12  and  C_13
DOCKED: REMARK    5  A    between atoms: C_14  and  C_15
DOCKED: REMARK    6  A    between atoms: N_16  and  O_17
DOCKED: REMARK                            x       y       z     vdW  Elec       q    Type
DOCKED: REMARK                         _______ _______ _______ _____ _____    ______ ____
DOCKED: USER                              x       y       z     vdW  Elec       q    Type
DOCKED: USER                           _______ _______ _______ _____ _____    ______ ____
DOCKED: ROOT
DOCKED: ATOM      1  C   UNL     1      27.441 -14.845  -0.155 -0.25 -0.00    +0.000 A 
DOCKED: ATOM      2  C   UNL     1      26.243 -15.547  -0.341 -0.29 -0.00    +0.000 A 
DOCKED: ATOM      3  C   UNL     1      26.113 -16.485  -1.380 -0.46 -0.00    +0.000 A 
DOCKED: ATOM      4  C   UNL     1      27.224 -16.735  -2.211 -0.27 -0.00    +0.000 A 
DOCKED: ATOM      5  C   UNL     1      28.422 -16.042  -2.017 -0.23 -0.00    +0.000 A 
DOCKED: ATOM      6  C   UNL     1      28.531 -15.097  -0.996 -0.17 -0.00    +0.000 A 
DOCKED: ENDROOT
DOCKED: BRANCH   1   8
DOCKED: ATOM      7  O   UNL     1      26.208 -13.169   1.549 -0.41 -0.00    +0.000 OA
DOCKED: ATOM      8  S   UNL     1      27.570 -13.648   1.131 -0.34 -0.00    +0.000 S 
DOCKED: ATOM      9  O   UNL     1      28.366 -12.479   0.624 -0.12 -0.00    +0.000 OA
DOCKED: BRANCH   8  10
DOCKED: ATOM     10  N   UNL     1      28.376 -14.335   2.507 -0.29 -0.00    +0.000 N 
DOCKED: ATOM     11  H   UNL     1      28.813 -15.210   2.398 -1.85 -0.00    +0.000 HD
DOCKED: BRANCH  10  12
DOCKED: ATOM     12  C   UNL     1      28.444 -13.701   3.797 -0.36 -0.00    +0.000 A 
DOCKED: ATOM     13  C   UNL     1      27.803 -12.473   4.060 -0.32 -0.00    +0.000 A 
DOCKED: ATOM     14  C   UNL     1      27.884 -11.892   5.328 -0.36 +0.00    +0.000 A 
DOCKED: ATOM     15  C   UNL     1      28.605 -12.522   6.345 -0.38 -0.00    +0.000 A 
DOCKED: ATOM     16  C   UNL     1      29.251 -13.735   6.094 -0.33 -0.00    +0.000 A 
DOCKED: ATOM     17  C   UNL     1      29.172 -14.321   4.826 -0.39 -0.00    +0.000 A 
DOCKED: ENDBRANCH  10  12
DOCKED: ENDBRANCH   8  10
DOCKED: ENDBRANCH   1   8
DOCKED: BRANCH   3  18
DOCKED: ATOM     18  C   UNL     1      24.821 -17.198  -1.534 -0.67 -0.00    +0.000 C 
DOCKED: ATOM     19  C   UNL     1      23.968 -17.419  -0.523 -0.69 -0.00    +0.000 C 
DOCKED: BRANCH  19  20
DOCKED: ATOM     20  C   UNL     1      22.686 -18.134  -0.683 -0.83 -0.00    +0.000 C 
DOCKED: ATOM     21  N   UNL     1      21.428 -17.448  -0.743 -0.68 -0.00    +0.000 N 
DOCKED: ATOM     22  O   UNL     1      22.707 -19.388  -0.795 -0.82 -0.00    +0.000 OA
DOCKED: ATOM     23  H   UNL     1      21.406 -16.463  -0.760 -0.07 -0.00    +0.000 HD
DOCKED: BRANCH  21  24
DOCKED: ATOM     24  O   UNL     1      20.271 -18.151  -0.776 -2.16 -0.00    +0.000 OA
DOCKED: ATOM     25  H   UNL     1      19.567 -17.598  -1.149 -0.58 -0.00    +0.000 HD
DOCKED: ENDBRANCH  21  24
DOCKED: ENDBRANCH  19  20
DOCKED: ENDBRANCH   3  18
DOCKED: TORSDOF 6
DOCKED: TER
DOCKED: ENDMDL
________________________________________________________________________________


	BEGINNING GENETIC ALGORITHM DOCKING 23 of 100
Run: 23 Seed: 666352358 571053858 [ Run 23 of 100 GA/GALS ]
Beginning LAMARCKIAN GENETIC ALGORITHM (LGA), with a maximum of 2500000 energy evaluations.

Final-Value: -15.723


	FINAL GENETIC ALGORITHM DOCKED STATE
	_______________________________________________


Detailed state:  trans 24.048 -17.880 -2.598 quatxyzw 0.193035 -0.744842 0.247431 -0.588834 center 0.293 0.181 0.279 ntor 6 0.3735 122.3425 -47.2074 148.7202 -153.7070 -157.8027
State:	 24.048 -17.880  -2.598   0.239 -0.922  0.306 -107.851      0.37  122.34  -47.21  148.72 -153.71 -157.80

DOCKED: MODEL       23
DOCKED: USER    Run = 23
DOCKED: USER    DPF = ligand_dock.biased.dpf
DOCKED: USER  
DOCKED: USER    Estimated Free Energy of Binding    =  -12.32 kcal/mol  [=(1)+(2)+(3)-(4)]
DOCKED: USER    Estimated Inhibition Constant, Ki   =  936.86 pM (picomolar)  [Temperature = 298.15 K]
DOCKED: USER    
DOCKED: USER    (1) Final Intermolecular Energy     =  -14.11 kcal/mol
DOCKED: USER        vdW + Hbond + desolv Energy     =  -14.11 kcal/mol
DOCKED: USER        Electrostatic Energy            =   +0.00 kcal/mol
DOCKED: USER    (2) Final Total Internal Energy     =   -1.62 kcal/mol
DOCKED: USER    (3) Torsional Free Energy           =   +1.79 kcal/mol
DOCKED: USER    (4) Unbound System's Energy  [=(2)] =   -1.62 kcal/mol
DOCKED: USER    
DOCKED: USER    
DOCKED: USER    NEWDPF move ligand.pdbqt
DOCKED: USER    NEWDPF about 0.293000 0.181000 0.279000
DOCKED: USER    NEWDPF tran0 24.047988 -17.880431 -2.598431
DOCKED: USER    NEWDPF quaternion0 0.193035 -0.744842 0.247431 -0.588834
DOCKED: USER    NEWDPF axisangle0 0.238830 -0.921544 0.306131 -107.851322
DOCKED: USER    NEWDPF quat0 0.238830 -0.921544 0.306131 -107.851322
DOCKED: USER    NEWDPF dihe0 0.37 122.34 -47.21 148.72 -153.71 -157.80 
DOCKED: USER  keepresnum = 1 
DOCKED: USER  
DOCKED: REMARK  Name = 
DOCKED: REMARK  6 active torsions:
DOCKED: REMARK  status: ('A' for Active; 'I' for Inactive)
DOCKED: REMARK    1  A    between atoms: S_2  and  N_3
DOCKED: REMARK    2  A    between atoms: S_2  and  C_10
DOCKED: REMARK    3  A    between atoms: N_3  and  C_4
DOCKED: REMARK    4  A    between atoms: C_12  and  C_13
DOCKED: REMARK    5  A    between atoms: C_14  and  C_15
DOCKED: REMARK    6  A    between atoms: N_16  and  O_17
DOCKED: REMARK                            x       y       z     vdW  Elec       q    Type
DOCKED: REMARK                         _______ _______ _______ _____ _____    ______ ____
DOCKED: USER                              x       y       z     vdW  Elec       q    Type
DOCKED: USER                           _______ _______ _______ _____ _____    ______ ____
DOCKED: ROOT
DOCKED: ATOM      1  C   UNL     1      25.924 -16.345  -2.600 -0.44 -0.00    +0.000 A 
DOCKED: ATOM      2  C   UNL     1      24.751 -16.914  -2.086 -0.51 -0.00    +0.000 A 
DOCKED: ATOM      3  C   UNL     1      24.804 -17.836  -1.026 -0.65 -0.00    +0.000 A 
DOCKED: ATOM      4  C   UNL     1      26.057 -18.153  -0.464 -0.57 -0.00    +0.000 A 
DOCKED: ATOM      5  C   UNL     1      27.225 -17.577  -0.971 -0.39 -0.00    +0.000 A 
DOCKED: ATOM      6  C   UNL     1      27.162 -16.679  -2.037 -0.32 -0.00    +0.000 A 
DOCKED: ENDROOT
DOCKED: BRANCH   1   8
DOCKED: ATOM      7  O   UNL     1      24.768 -14.189  -3.717 -1.00 -0.00    +0.000 OA
DOCKED: ATOM      8  S   UNL     1      25.838 -15.219  -3.951 -0.73 -0.00    +0.000 S 
DOCKED: ATOM      9  O   UNL     1      25.513 -15.988  -5.200 -1.05 -0.00    +0.000 OA
DOCKED: BRANCH   8  10
DOCKED: ATOM     10  N   UNL     1      27.363 -14.415  -4.156 -0.30 -0.00    +0.000 N 
DOCKED: ATOM     11  H   UNL     1      27.545 -13.621  -3.602 +0.00 -0.00    +0.000 HD
DOCKED: BRANCH  10  12
DOCKED: ATOM     12  C   UNL     1      28.376 -14.838  -5.087 -0.32 -0.00    +0.000 A 
DOCKED: ATOM     13  C   UNL     1      28.697 -14.084  -6.233 -0.30 -0.00    +0.000 A 
DOCKED: ATOM     14  C   UNL     1      29.693 -14.524  -7.111 -0.28 -0.00    +0.000 A 
DOCKED: ATOM     15  C   UNL     1      30.375 -15.717  -6.859 -0.28 -0.00    +0.000 A 
DOCKED: ATOM     16  C   UNL     1      30.059 -16.476  -5.729 -0.29 -0.00    +0.000 A 
DOCKED: ATOM     17  C   UNL     1      29.064 -16.040  -4.849 -0.28 -0.00    +0.000 A 
DOCKED: ENDBRANCH  10  12
DOCKED: ENDBRANCH   8  10
DOCKED: ENDBRANCH   1   8
DOCKED: BRANCH   3  18
DOCKED: ATOM     18  C   UNL     1      23.532 -18.410  -0.522 -0.81 -0.00    +0.000 C 
DOCKED: ATOM     19  C   UNL     1      22.336 -18.172  -1.081 -0.77 -0.00    +0.000 C 
DOCKED: BRANCH  19  20
DOCKED: ATOM     20  C   UNL     1      21.073 -18.743  -0.571 -0.83 -0.00    +0.000 C 
DOCKED: ATOM     21  N   UNL     1      21.023 -20.001   0.117 -0.62 -0.00    +0.000 N 
DOCKED: ATOM     22  O   UNL     1      20.010 -18.086  -0.727 -1.98 -0.00    +0.000 OA
DOCKED: ATOM     23  H   UNL     1      21.857 -20.474   0.336 -0.59 -0.00    +0.000 HD
DOCKED: BRANCH  21  24
DOCKED: ATOM     24  O   UNL     1      19.829 -20.538   0.465 -0.78 -0.00    +0.000 OA
DOCKED: ATOM     25  H   UNL     1      19.113 -19.953   0.172 -0.03 -0.00    +0.000 HD
DOCKED: ENDBRANCH  21  24
DOCKED: ENDBRANCH  19  20
DOCKED: ENDBRANCH   3  18
DOCKED: TORSDOF 6
DOCKED: TER
DOCKED: ENDMDL
________________________________________________________________________________


	BEGINNING GENETIC ALGORITHM DOCKING 24 of 100
Run: 24 Seed: 200612657 1559031353 [ Run 24 of 100 GA/GALS ]
Beginning LAMARCKIAN GENETIC ALGORITHM (LGA), with a maximum of 2500000 energy evaluations.

Final-Value: -15.089


	FINAL GENETIC ALGORITHM DOCKED STATE
	_______________________________________________


Detailed state:  trans 24.402 -17.863 -3.135 quatxyzw -0.212657 0.806022 -0.300652 0.463373 center 0.293 0.181 0.279 ntor 6 27.3433 160.0362 32.7694 -78.3114 122.1057 178.9402
State:	 24.402 -17.863  -3.135  -0.240  0.910 -0.339 124.790     27.34  160.04   32.77  -78.31  122.11  178.94

DOCKED: MODEL       24
DOCKED: USER    Run = 24
DOCKED: USER    DPF = ligand_dock.biased.dpf
DOCKED: USER  
DOCKED: USER    Estimated Free Energy of Binding    =  -11.99 kcal/mol  [=(1)+(2)+(3)-(4)]
DOCKED: USER    Estimated Inhibition Constant, Ki   =    1.63 nM (nanomolar)  [Temperature = 298.15 K]
DOCKED: USER    
DOCKED: USER    (1) Final Intermolecular Energy     =  -13.78 kcal/mol
DOCKED: USER        vdW + Hbond + desolv Energy     =  -13.78 kcal/mol
DOCKED: USER        Electrostatic Energy            =   +0.00 kcal/mol
DOCKED: USER    (2) Final Total Internal Energy     =   -1.31 kcal/mol
DOCKED: USER    (3) Torsional Free Energy           =   +1.79 kcal/mol
DOCKED: USER    (4) Unbound System's Energy  [=(2)] =   -1.31 kcal/mol
DOCKED: USER    
DOCKED: USER    
DOCKED: USER    NEWDPF move ligand.pdbqt
DOCKED: USER    NEWDPF about 0.293000 0.181000 0.279000
DOCKED: USER    NEWDPF tran0 24.401747 -17.863080 -3.134562
DOCKED: USER    NEWDPF quaternion0 -0.212657 0.806022 -0.300652 0.463373
DOCKED: USER    NEWDPF axisangle0 -0.239975 0.909564 -0.339273 124.790046
DOCKED: USER    NEWDPF quat0 -0.239975 0.909564 -0.339273 124.790046
DOCKED: USER    NEWDPF dihe0 27.34 160.04 32.77 -78.31 122.11 178.94 
DOCKED: USER  keepresnum = 1 
DOCKED: USER  
DOCKED: REMARK  Name = 
DOCKED: REMARK  6 active torsions:
DOCKED: REMARK  status: ('A' for Active; 'I' for Inactive)
DOCKED: REMARK    1  A    between atoms: S_2  and  N_3
DOCKED: REMARK    2  A    between atoms: S_2  and  C_10
DOCKED: REMARK    3  A    between atoms: N_3  and  C_4
DOCKED: REMARK    4  A    between atoms: C_12  and  C_13
DOCKED: REMARK    5  A    between atoms: C_14  and  C_15
DOCKED: REMARK    6  A    between atoms: N_16  and  O_17
DOCKED: REMARK                            x       y       z     vdW  Elec       q    Type
DOCKED: REMARK                         _______ _______ _______ _____ _____    ______ ____
DOCKED: USER                              x       y       z     vdW  Elec       q    Type
DOCKED: USER                           _______ _______ _______ _____ _____    ______ ____
DOCKED: ROOT
DOCKED: ATOM      1  C   UNL     1      25.991 -16.105  -2.626 -0.45 -0.00    +0.000 A 
DOCKED: ATOM      2  C   UNL     1      24.810 -16.837  -2.448 -0.29 -0.00    +0.000 A 
DOCKED: ATOM      3  C   UNL     1      24.701 -17.786  -1.417 -0.63 -0.00    +0.000 A 
DOCKED: ATOM      4  C   UNL     1      25.791 -17.966  -0.541 -0.59 -0.00    +0.000 A 
DOCKED: ATOM      5  C   UNL     1      26.965 -17.227  -0.713 -0.46 -0.00    +0.000 A 
DOCKED: ATOM      6  C   UNL     1      27.068 -16.303  -1.753 -0.35 -0.00    +0.000 A 
DOCKED: ENDROOT
DOCKED: BRANCH   1   8
DOCKED: ATOM      7  O   UNL     1      24.757 -14.474  -4.372 -1.03 -0.00    +0.000 OA
DOCKED: ATOM      8  S   UNL     1      26.119 -14.946  -3.945 -0.67 -0.00    +0.000 S 
DOCKED: ATOM      9  O   UNL     1      26.793 -15.613  -5.110 -1.08 +0.00    +0.000 OA
DOCKED: BRANCH   8  10
DOCKED: ATOM     10  N   UNL     1      27.062 -13.576  -3.447 -0.23 -0.00    +0.000 N 
DOCKED: ATOM     11  H   UNL     1      27.928 -13.745  -3.008 +0.01 -0.00    +0.000 HD
DOCKED: BRANCH  10  12
DOCKED: ATOM     12  C   UNL     1      26.655 -12.208  -3.635 -0.19 -0.00    +0.000 A 
DOCKED: ATOM     13  C   UNL     1      27.020 -11.190  -2.732 -0.10 -0.00    +0.000 A 
DOCKED: ATOM     14  C   UNL     1      26.612  -9.871  -2.953 -0.13 -0.00    +0.000 A 
DOCKED: ATOM     15  C   UNL     1      25.835  -9.554  -4.069 -0.20 -0.00    +0.000 A 
DOCKED: ATOM     16  C   UNL     1      25.461 -10.557  -4.967 -0.30 -0.00    +0.000 A 
DOCKED: ATOM     17  C   UNL     1      25.867 -11.878  -4.750 -0.30 -0.00    +0.000 A 
DOCKED: ENDBRANCH  10  12
DOCKED: ENDBRANCH   8  10
DOCKED: ENDBRANCH   1   8
DOCKED: BRANCH   3  18
DOCKED: ATOM     18  C   UNL     1      23.428 -18.536  -1.276 -0.79 -0.00    +0.000 C 
DOCKED: ATOM     19  C   UNL     1      22.330 -18.033  -0.691 -0.83 -0.00    +0.000 C 
DOCKED: BRANCH  19  20
DOCKED: ATOM     20  C   UNL     1      21.068 -18.787  -0.549 -0.83 -0.00    +0.000 C 
DOCKED: ATOM     21  N   UNL     1      21.022 -20.107   0.010 -0.63 -0.00    +0.000 N 
DOCKED: ATOM     22  O   UNL     1      19.995 -18.235  -0.911 -1.92 -0.00    +0.000 OA
DOCKED: ATOM     23  H   UNL     1      21.837 -20.508   0.390 -0.59 -0.00    +0.000 HD
DOCKED: BRANCH  21  24
DOCKED: ATOM     24  O   UNL     1      19.860 -20.803   0.015 -0.79 -0.00    +0.000 OA
DOCKED: ATOM     25  H   UNL     1      19.304 -20.510  -0.723 -0.39 -0.00    +0.000 HD
DOCKED: ENDBRANCH  21  24
DOCKED: ENDBRANCH  19  20
DOCKED: ENDBRANCH   3  18
DOCKED: TORSDOF 6
DOCKED: TER
DOCKED: ENDMDL
________________________________________________________________________________


	BEGINNING GENETIC ALGORITHM DOCKING 25 of 100
Run: 25 Seed: 493889372 1218890194 [ Run 25 of 100 GA/GALS ]
Beginning LAMARCKIAN GENETIC ALGORITHM (LGA), with a maximum of 2500000 energy evaluations.

Final-Value: -15.743


	FINAL GENETIC ALGORITHM DOCKED STATE
	_______________________________________________


Detailed state:  trans 24.242 -18.040 -2.820 quatxyzw 0.214452 -0.772552 0.305525 -0.513642 center 0.293 0.181 0.279 ntor 6 50.9729 -71.5163 -10.6869 166.8372 164.7705 -149.6738
State:	 24.242 -18.040  -2.820   0.250 -0.900  0.356 -118.187     50.97  -71.52  -10.69  166.84  164.77 -149.67

DOCKED: MODEL       25
DOCKED: USER    Run = 25
DOCKED: USER    DPF = ligand_dock.biased.dpf
DOCKED: USER  
DOCKED: USER    Estimated Free Energy of Binding    =  -12.73 kcal/mol  [=(1)+(2)+(3)-(4)]
DOCKED: USER    Estimated Inhibition Constant, Ki   =  467.35 pM (picomolar)  [Temperature = 298.15 K]
DOCKED: USER    
DOCKED: USER    (1) Final Intermolecular Energy     =  -14.52 kcal/mol
DOCKED: USER        vdW + Hbond + desolv Energy     =  -14.52 kcal/mol
DOCKED: USER        Electrostatic Energy            =   +0.00 kcal/mol
DOCKED: USER    (2) Final Total Internal Energy     =   -1.22 kcal/mol
DOCKED: USER    (3) Torsional Free Energy           =   +1.79 kcal/mol
DOCKED: USER    (4) Unbound System's Energy  [=(2)] =   -1.22 kcal/mol
DOCKED: USER    
DOCKED: USER    
DOCKED: USER    NEWDPF move ligand.pdbqt
DOCKED: USER    NEWDPF about 0.293000 0.181000 0.279000
DOCKED: USER    NEWDPF tran0 24.241743 -18.040298 -2.819583
DOCKED: USER    NEWDPF quaternion0 0.214452 -0.772552 0.305525 -0.513642
DOCKED: USER    NEWDPF axisangle0 0.249943 -0.900405 0.356088 -118.186527
DOCKED: USER    NEWDPF quat0 0.249943 -0.900405 0.356088 -118.186527
DOCKED: USER    NEWDPF dihe0 50.97 -71.52 -10.69 166.84 164.77 -149.67 
DOCKED: USER  keepresnum = 1 
DOCKED: USER  
DOCKED: REMARK  Name = 
DOCKED: REMARK  6 active torsions:
DOCKED: REMARK  status: ('A' for Active; 'I' for Inactive)
DOCKED: REMARK    1  A    between atoms: S_2  and  N_3
DOCKED: REMARK    2  A    between atoms: S_2  and  C_10
DOCKED: REMARK    3  A    between atoms: N_3  and  C_4
DOCKED: REMARK    4  A    between atoms: C_12  and  C_13
DOCKED: REMARK    5  A    between atoms: C_14  and  C_15
DOCKED: REMARK    6  A    between atoms: N_16  and  O_17
DOCKED: REMARK                            x       y       z     vdW  Elec       q    Type
DOCKED: REMARK                         _______ _______ _______ _____ _____    ______ ____
DOCKED: USER                              x       y       z     vdW  Elec       q    Type
DOCKED: USER                           _______ _______ _______ _____ _____    ______ ____
DOCKED: ROOT
DOCKED: ATOM      1  C   UNL     1      25.888 -16.278  -2.575 -0.46 -0.00    +0.000 A 
DOCKED: ATOM      2  C   UNL     1      24.730 -16.987  -2.232 -0.44 -0.00    +0.000 A 
DOCKED: ATOM      3  C   UNL     1      24.730 -17.886  -1.151 -0.65 -0.00    +0.000 A 
DOCKED: ATOM      4  C   UNL     1      25.910 -18.036  -0.393 -0.59 -0.00    +0.000 A 
DOCKED: ATOM      5  C   UNL     1      27.062 -17.320  -0.730 -0.45 -0.00    +0.000 A 
DOCKED: ATOM      6  C   UNL     1      27.054 -16.446  -1.819 -0.36 -0.00    +0.000 A 
DOCKED: ENDROOT
DOCKED: BRANCH   1   8
DOCKED: ATOM      7  O   UNL     1      24.776 -14.168  -3.817 -1.02 -0.00    +0.000 OA
DOCKED: ATOM      8  S   UNL     1      25.876 -15.184  -3.955 -0.73 -0.00    +0.000 S 
DOCKED: ATOM      9  O   UNL     1      25.648 -15.986  -5.204 -1.08 +0.00    +0.000 OA
DOCKED: BRANCH   8  10
DOCKED: ATOM     10  N   UNL     1      27.398 -14.357  -4.075 -0.28 -0.00    +0.000 N 
DOCKED: ATOM     11  H   UNL     1      27.642 -13.730  -3.357 +0.00 -0.00    +0.000 HD
DOCKED: BRANCH  10  12
DOCKED: ATOM     12  C   UNL     1      28.324 -14.535  -5.162 -0.30 -0.00    +0.000 A 
DOCKED: ATOM     13  C   UNL     1      29.243 -15.603  -5.193 -0.29 -0.00    +0.000 A 
DOCKED: ATOM     14  C   UNL     1      30.122 -15.748  -6.270 -0.29 -0.00    +0.000 A 
DOCKED: ATOM     15  C   UNL     1      30.099 -14.830  -7.323 -0.24 -0.00    +0.000 A 
DOCKED: ATOM     16  C   UNL     1      29.199 -13.762  -7.299 -0.28 -0.00    +0.000 A 
DOCKED: ATOM     17  C   UNL     1      28.317 -13.614  -6.224 -0.26 -0.00    +0.000 A 
DOCKED: ENDBRANCH  10  12
DOCKED: ENDBRANCH   8  10
DOCKED: ENDBRANCH   1   8
DOCKED: BRANCH   3  18
DOCKED: ATOM     18  C   UNL     1      23.477 -18.614  -0.834 -0.82 -0.00    +0.000 C 
DOCKED: ATOM     19  C   UNL     1      22.254 -18.073  -0.945 -0.77 -0.00    +0.000 C 
DOCKED: BRANCH  19  20
DOCKED: ATOM     20  C   UNL     1      21.011 -18.801  -0.622 -0.85 -0.00    +0.000 C 
DOCKED: ATOM     21  N   UNL     1      21.019 -20.098  -0.010 -0.63 -0.00    +0.000 N 
DOCKED: ATOM     22  O   UNL     1      19.908 -18.247  -0.872 -1.86 -0.00    +0.000 OA
DOCKED: ATOM     23  H   UNL     1      21.870 -20.497   0.284 -0.59 -0.00    +0.000 HD
DOCKED: BRANCH  21  24
DOCKED: ATOM     24  O   UNL     1      19.859 -20.776   0.162 -0.79 -0.00    +0.000 OA
DOCKED: ATOM     25  H   UNL     1      19.373 -20.803  -0.676 -0.47 -0.00    +0.000 HD
DOCKED: ENDBRANCH  21  24
DOCKED: ENDBRANCH  19  20
DOCKED: ENDBRANCH   3  18
DOCKED: TORSDOF 6
DOCKED: TER
DOCKED: ENDMDL
________________________________________________________________________________


	BEGINNING GENETIC ALGORITHM DOCKING 26 of 100
Run: 26 Seed: 1593796701 1912850168 [ Run 26 of 100 GA/GALS ]
Beginning LAMARCKIAN GENETIC ALGORITHM (LGA), with a maximum of 2500000 energy evaluations.

Final-Value: -15.877


	FINAL GENETIC ALGORITHM DOCKED STATE
	_______________________________________________


Detailed state:  trans 24.809 -15.282 -1.256 quatxyzw 0.387462 -0.769540 -0.371123 -0.346337 center 0.293 0.181 0.279 ntor 6 -7.7449 -15.2404 108.2910 -88.8894 76.6109 158.4765
State:	 24.809 -15.282  -1.256   0.413 -0.820 -0.396 -139.473     -7.74  -15.24  108.29  -88.89   76.61  158.48

DOCKED: MODEL       26
DOCKED: USER    Run = 26
DOCKED: USER    DPF = ligand_dock.biased.dpf
DOCKED: USER  
DOCKED: USER    Estimated Free Energy of Binding    =  -12.66 kcal/mol  [=(1)+(2)+(3)-(4)]
DOCKED: USER    Estimated Inhibition Constant, Ki   =  526.55 pM (picomolar)  [Temperature = 298.15 K]
DOCKED: USER    
DOCKED: USER    (1) Final Intermolecular Energy     =  -14.45 kcal/mol
DOCKED: USER        vdW + Hbond + desolv Energy     =  -14.45 kcal/mol
DOCKED: USER        Electrostatic Energy            =   +0.00 kcal/mol
DOCKED: USER    (2) Final Total Internal Energy     =   -1.43 kcal/mol
DOCKED: USER    (3) Torsional Free Energy           =   +1.79 kcal/mol
DOCKED: USER    (4) Unbound System's Energy  [=(2)] =   -1.43 kcal/mol
DOCKED: USER    
DOCKED: USER    
DOCKED: USER    NEWDPF move ligand.pdbqt
DOCKED: USER    NEWDPF about 0.293000 0.181000 0.279000
DOCKED: USER    NEWDPF tran0 24.808681 -15.282275 -1.256141
DOCKED: USER    NEWDPF quaternion0 0.387462 -0.769540 -0.371123 -0.346337
DOCKED: USER    NEWDPF axisangle0 0.413024 -0.820309 -0.395607 -139.473128
DOCKED: USER    NEWDPF quat0 0.413024 -0.820309 -0.395607 -139.473128
DOCKED: USER    NEWDPF dihe0 -7.74 -15.24 108.29 -88.89 76.61 158.48 
DOCKED: USER  keepresnum = 1 
DOCKED: USER  
DOCKED: REMARK  Name = 
DOCKED: REMARK  6 active torsions:
DOCKED: REMARK  status: ('A' for Active; 'I' for Inactive)
DOCKED: REMARK    1  A    between atoms: S_2  and  N_3
DOCKED: REMARK    2  A    between atoms: S_2  and  C_10
DOCKED: REMARK    3  A    between atoms: N_3  and  C_4
DOCKED: REMARK    4  A    between atoms: C_12  and  C_13
DOCKED: REMARK    5  A    between atoms: C_14  and  C_15
DOCKED: REMARK    6  A    between atoms: N_16  and  O_17
DOCKED: REMARK                            x       y       z     vdW  Elec       q    Type
DOCKED: REMARK                         _______ _______ _______ _____ _____    ______ ____
DOCKED: USER                              x       y       z     vdW  Elec       q    Type
DOCKED: USER                           _______ _______ _______ _____ _____    ______ ____
DOCKED: ROOT
DOCKED: ATOM      1  C   UNL     1      26.911 -15.573  -0.085 -0.30 -0.00    +0.000 A 
DOCKED: ATOM      2  C   UNL     1      25.553 -15.815  -0.332 -0.02 -0.00    +0.000 A 
DOCKED: ATOM      3  C   UNL     1      25.142 -16.977  -1.008 -0.57 -0.00    +0.000 A 
DOCKED: ATOM      4  C   UNL     1      26.118 -17.915  -1.402 -0.20 -0.00    +0.000 A 
DOCKED: ATOM      5  C   UNL     1      27.471 -17.677  -1.145 -0.23 -0.00    +0.000 A 
DOCKED: ATOM      6  C   UNL     1      27.868 -16.510  -0.492 -0.32 -0.00    +0.000 A 
DOCKED: ENDROOT
DOCKED: BRANCH   1   8
DOCKED: ATOM      7  O   UNL     1      26.208 -13.285   1.141 -0.41 -0.00    +0.000 OA
DOCKED: ATOM      8  S   UNL     1      27.407 -14.094   0.732 -0.36 -0.00    +0.000 S 
DOCKED: ATOM      9  O   UNL     1      28.248 -13.281  -0.210 -0.13 -0.00    +0.000 OA
DOCKED: BRANCH   8  10
DOCKED: ATOM     10  N   UNL     1      28.340 -14.477   2.146 -0.27 -0.00    +0.000 N 
DOCKED: ATOM     11  H   UNL     1      28.970 -15.232   2.093 -1.75 -0.00    +0.000 HD
DOCKED: BRANCH  10  12
DOCKED: ATOM     12  C   UNL     1      28.248 -13.757   3.389 -0.34 -0.00    +0.000 A 
DOCKED: ATOM     13  C   UNL     1      27.852 -12.406   3.440 -0.27 -0.00    +0.000 A 
DOCKED: ATOM     14  C   UNL     1      27.766 -11.742   4.668 -0.32 +0.00    +0.000 A 
DOCKED: ATOM     15  C   UNL     1      28.075 -12.414   5.853 -0.39 +0.00    +0.000 A 
DOCKED: ATOM     16  C   UNL     1      28.476 -13.751   5.812 -0.36 -0.00    +0.000 A 
DOCKED: ATOM     17  C   UNL     1      28.563 -14.419   4.587 -0.48 -0.00    +0.000 A 
DOCKED: ENDBRANCH  10  12
DOCKED: ENDBRANCH   8  10
DOCKED: ENDBRANCH   1   8
DOCKED: BRANCH   3  18
DOCKED: ATOM     18  C   UNL     1      23.692 -17.182  -1.248 -0.67 -0.00    +0.000 C 
DOCKED: ATOM     19  C   UNL     1      23.022 -18.278  -0.860 -0.83 -0.00    +0.000 C 
DOCKED: BRANCH  19  20
DOCKED: ATOM     20  C   UNL     1      21.579 -18.478  -1.106 -0.73 -0.00    +0.000 C 
DOCKED: ATOM     21  N   UNL     1      21.068 -19.650  -1.755 -0.66 -0.00    +0.000 N 
DOCKED: ATOM     22  O   UNL     1      20.774 -17.595  -0.708 -2.14 -0.00    +0.000 OA
DOCKED: ATOM     23  H   UNL     1      21.675 -20.392  -1.978 -0.47 -0.00    +0.000 HD
DOCKED: BRANCH  21  24
DOCKED: ATOM     24  O   UNL     1      19.751 -19.737  -2.061 -1.78 -0.00    +0.000 OA
DOCKED: ATOM     25  H   UNL     1      19.278 -18.987  -1.670 -0.46 -0.00    +0.000 HD
DOCKED: ENDBRANCH  21  24
DOCKED: ENDBRANCH  19  20
DOCKED: ENDBRANCH   3  18
DOCKED: TORSDOF 6
DOCKED: TER
DOCKED: ENDMDL
________________________________________________________________________________


	BEGINNING GENETIC ALGORITHM DOCKING 27 of 100
Run: 27 Seed: 8127230 1109905792 [ Run 27 of 100 GA/GALS ]
Beginning LAMARCKIAN GENETIC ALGORITHM (LGA), with a maximum of 2500000 energy evaluations.

Final-Value: -15.287


	FINAL GENETIC ALGORITHM DOCKED STATE
	_______________________________________________


Detailed state:  trans 24.334 -17.150 -2.989 quatxyzw -0.062303 0.819023 -0.199732 0.534254 center 0.293 0.181 0.279 ntor 6 1.6789 -81.7225 166.8861 136.1361 -13.4716 -141.0377
State:	 24.334 -17.150  -2.989  -0.074  0.969 -0.236 115.413      1.68  -81.72  166.89  136.14  -13.47 -141.04

DOCKED: MODEL       27
DOCKED: USER    Run = 27
DOCKED: USER    DPF = ligand_dock.biased.dpf
DOCKED: USER  
DOCKED: USER    Estimated Free Energy of Binding    =  -11.91 kcal/mol  [=(1)+(2)+(3)-(4)]
DOCKED: USER    Estimated Inhibition Constant, Ki   =    1.86 nM (nanomolar)  [Temperature = 298.15 K]
DOCKED: USER    
DOCKED: USER    (1) Final Intermolecular Energy     =  -13.70 kcal/mol
DOCKED: USER        vdW + Hbond + desolv Energy     =  -13.70 kcal/mol
DOCKED: USER        Electrostatic Energy            =   +0.00 kcal/mol
DOCKED: USER    (2) Final Total Internal Energy     =   -1.59 kcal/mol
DOCKED: USER    (3) Torsional Free Energy           =   +1.79 kcal/mol
DOCKED: USER    (4) Unbound System's Energy  [=(2)] =   -1.59 kcal/mol
DOCKED: USER    
DOCKED: USER    
DOCKED: USER    NEWDPF move ligand.pdbqt
DOCKED: USER    NEWDPF about 0.293000 0.181000 0.279000
DOCKED: USER    NEWDPF tran0 24.333691 -17.149530 -2.989091
DOCKED: USER    NEWDPF quaternion0 -0.062303 0.819023 -0.199732 0.534254
DOCKED: USER    NEWDPF axisangle0 -0.073703 0.968886 -0.236278 115.413399
DOCKED: USER    NEWDPF quat0 -0.073703 0.968886 -0.236278 115.413399
DOCKED: USER    NEWDPF dihe0 1.68 -81.72 166.89 136.14 -13.47 -141.04 
DOCKED: USER  keepresnum = 1 
DOCKED: USER  
DOCKED: REMARK  Name = 
DOCKED: REMARK  6 active torsions:
DOCKED: REMARK  status: ('A' for Active; 'I' for Inactive)
DOCKED: REMARK    1  A    between atoms: S_2  and  N_3
DOCKED: REMARK    2  A    between atoms: S_2  and  C_10
DOCKED: REMARK    3  A    between atoms: N_3  and  C_4
DOCKED: REMARK    4  A    between atoms: C_12  and  C_13
DOCKED: REMARK    5  A    between atoms: C_14  and  C_15
DOCKED: REMARK    6  A    between atoms: N_16  and  O_17
DOCKED: REMARK                            x       y       z     vdW  Elec       q    Type
DOCKED: REMARK                         _______ _______ _______ _____ _____    ______ ____
DOCKED: USER                              x       y       z     vdW  Elec       q    Type
DOCKED: USER                           _______ _______ _______ _____ _____    ______ ____
DOCKED: ROOT
DOCKED: ATOM      1  C   UNL     1      26.493 -16.126  -2.583 -0.38 -0.00    +0.000 A 
DOCKED: ATOM      2  C   UNL     1      25.134 -16.360  -2.335 -0.50 -0.00    +0.000 A 
DOCKED: ATOM      3  C   UNL     1      24.731 -17.211  -1.291 -0.61 -0.00    +0.000 A 
DOCKED: ATOM      4  C   UNL     1      25.718 -17.798  -0.473 -0.59 -0.00    +0.000 A 
DOCKED: ATOM      5  C   UNL     1      27.073 -17.554  -0.715 -0.46 -0.00    +0.000 A 
DOCKED: ATOM      6  C   UNL     1      27.461 -16.725  -1.768 -0.34 -0.00    +0.000 A 
DOCKED: ENDROOT
DOCKED: BRANCH   1   8
DOCKED: ATOM      7  O   UNL     1      26.496 -13.679  -3.698 -0.34 -0.00    +0.000 OA
DOCKED: ATOM      8  S   UNL     1      26.978 -15.085  -3.919 -0.54 -0.00    +0.000 S 
DOCKED: ATOM      9  O   UNL     1      26.374 -15.616  -5.188 -1.18 +0.00    +0.000 OA
DOCKED: BRANCH   8  10
DOCKED: ATOM     10  N   UNL     1      28.708 -15.074  -4.070 -0.21 -0.00    +0.000 N 
DOCKED: ATOM     11  H   UNL     1      29.204 -14.336  -3.648 +0.01 -0.00    +0.000 HD
DOCKED: BRANCH  10  12
DOCKED: ATOM     12  C   UNL     1      29.459 -16.078  -4.776 -0.26 -0.00    +0.000 A 
DOCKED: ATOM     13  C   UNL     1      30.000 -17.202  -4.121 -0.23 -0.00    +0.000 A 
DOCKED: ATOM     14  C   UNL     1      30.717 -18.162  -4.842 -0.25 -0.00    +0.000 A 
DOCKED: ATOM     15  C   UNL     1      30.906 -18.011  -6.217 -0.29 -0.00    +0.000 A 
DOCKED: ATOM     16  C   UNL     1      30.381 -16.896  -6.875 -0.29 -0.00    +0.000 A 
DOCKED: ATOM     17  C   UNL     1      29.662 -15.934  -6.158 -0.32 -0.00    +0.000 A 
DOCKED: ENDBRANCH  10  12
DOCKED: ENDBRANCH   8  10
DOCKED: ENDBRANCH   1   8
DOCKED: BRANCH   3  18
DOCKED: ATOM     18  C   UNL     1      23.279 -17.427  -1.074 -0.73 -0.00    +0.000 C 
DOCKED: ATOM     19  C   UNL     1      22.754 -18.592  -0.664 -0.84 -0.00    +0.000 C 
DOCKED: BRANCH  19  20
DOCKED: ATOM     20  C   UNL     1      21.307 -18.802  -0.455 -0.84 -0.00    +0.000 C 
DOCKED: ATOM     21  N   UNL     1      20.780 -20.020   0.087 -0.68 -0.00    +0.000 N 
DOCKED: ATOM     22  O   UNL     1      20.517 -17.865  -0.743 -2.30 -0.00    +0.000 OA
DOCKED: ATOM     23  H   UNL     1      21.393 -20.719   0.411 -0.60 -0.00    +0.000 HD
DOCKED: BRANCH  21  24
DOCKED: ATOM     24  O   UNL     1      19.440 -20.211   0.154 -0.84 -0.00    +0.000 OA
DOCKED: ATOM     25  H   UNL     1      18.985 -19.445  -0.228 -0.08 -0.00    +0.000 HD
DOCKED: ENDBRANCH  21  24
DOCKED: ENDBRANCH  19  20
DOCKED: ENDBRANCH   3  18
DOCKED: TORSDOF 6
DOCKED: TER
DOCKED: ENDMDL
________________________________________________________________________________


	BEGINNING GENETIC ALGORITHM DOCKING 28 of 100
Run: 28 Seed: 37775561 926794780 [ Run 28 of 100 GA/GALS ]
Beginning LAMARCKIAN GENETIC ALGORITHM (LGA), with a maximum of 2500000 energy evaluations.

Final-Value: -15.011


	FINAL GENETIC ALGORITHM DOCKED STATE
	_______________________________________________


Detailed state:  trans 24.527 -17.954 -2.691 quatxyzw -0.175514 0.758073 -0.315603 0.543061 center 0.293 0.181 0.279 ntor 6 -2.4555 156.3131 -33.6307 -147.0799 -175.7649 109.3082
State:	 24.527 -17.954  -2.691  -0.209  0.903 -0.376 114.216     -2.46  156.31  -33.63 -147.08 -175.76  109.31

DOCKED: MODEL       28
DOCKED: USER    Run = 28
DOCKED: USER    DPF = ligand_dock.biased.dpf
DOCKED: USER  
DOCKED: USER    Estimated Free Energy of Binding    =  -11.76 kcal/mol  [=(1)+(2)+(3)-(4)]
DOCKED: USER    Estimated Inhibition Constant, Ki   =    2.41 nM (nanomolar)  [Temperature = 298.15 K]
DOCKED: USER    
DOCKED: USER    (1) Final Intermolecular Energy     =  -13.55 kcal/mol
DOCKED: USER        vdW + Hbond + desolv Energy     =  -13.55 kcal/mol
DOCKED: USER        Electrostatic Energy            =   +0.00 kcal/mol
DOCKED: USER    (2) Final Total Internal Energy     =   -1.46 kcal/mol
DOCKED: USER    (3) Torsional Free Energy           =   +1.79 kcal/mol
DOCKED: USER    (4) Unbound System's Energy  [=(2)] =   -1.46 kcal/mol
DOCKED: USER    
DOCKED: USER    
DOCKED: USER    NEWDPF move ligand.pdbqt
DOCKED: USER    NEWDPF about 0.293000 0.181000 0.279000
DOCKED: USER    NEWDPF tran0 24.527415 -17.953609 -2.690709
DOCKED: USER    NEWDPF quaternion0 -0.175514 0.758073 -0.315603 0.543061
DOCKED: USER    NEWDPF axisangle0 -0.209021 0.902797 -0.375855 114.215529
DOCKED: USER    NEWDPF quat0 -0.209021 0.902797 -0.375855 114.215529
DOCKED: USER    NEWDPF dihe0 -2.46 156.31 -33.63 -147.08 -175.76 109.31 
DOCKED: USER  keepresnum = 1 
DOCKED: USER  
DOCKED: REMARK  Name = 
DOCKED: REMARK  6 active torsions:
DOCKED: REMARK  status: ('A' for Active; 'I' for Inactive)
DOCKED: REMARK    1  A    between atoms: S_2  and  N_3
DOCKED: REMARK    2  A    between atoms: S_2  and  C_10
DOCKED: REMARK    3  A    between atoms: N_3  and  C_4
DOCKED: REMARK    4  A    between atoms: C_12  and  C_13
DOCKED: REMARK    5  A    between atoms: C_14  and  C_15
DOCKED: REMARK    6  A    between atoms: N_16  and  O_17
DOCKED: REMARK                            x       y       z     vdW  Elec       q    Type
DOCKED: REMARK                         _______ _______ _______ _____ _____    ______ ____
DOCKED: USER                              x       y       z     vdW  Elec       q    Type
DOCKED: USER                           _______ _______ _______ _____ _____    ______ ____
DOCKED: ROOT
DOCKED: ATOM      1  C   UNL     1      26.285 -16.285  -2.633 -0.38 -0.00    +0.000 A 
DOCKED: ATOM      2  C   UNL     1      25.098 -16.892  -2.202 -0.53 -0.00    +0.000 A 
DOCKED: ATOM      3  C   UNL     1      25.082 -17.704  -1.055 -0.62 -0.00    +0.000 A 
DOCKED: ATOM      4  C   UNL     1      26.275 -17.870  -0.323 -0.56 -0.00    +0.000 A 
DOCKED: ATOM      5  C   UNL     1      27.456 -17.255  -0.749 -0.41 -0.00    +0.000 A 
DOCKED: ATOM      6  C   UNL     1      27.464 -16.468  -1.901 -0.32 -0.00    +0.000 A 
DOCKED: ENDROOT
DOCKED: BRANCH   1   8
DOCKED: ATOM      7  O   UNL     1      25.552 -15.993  -5.204 -1.06 -0.00    +0.000 OA
DOCKED: ATOM      8  S   UNL     1      26.290 -15.300  -4.093 -0.68 -0.00    +0.000 S 
DOCKED: ATOM      9  O   UNL     1      27.713 -15.073  -4.517 -0.42 -0.00    +0.000 OA
DOCKED: BRANCH   8  10
DOCKED: ATOM     10  N   UNL     1      25.536 -13.767  -3.782 -0.46 -0.00    +0.000 N 
DOCKED: ATOM     11  H   UNL     1      24.941 -13.695  -3.000 -0.03 -0.00    +0.000 HD
DOCKED: BRANCH  10  12
DOCKED: ATOM     12  C   UNL     1      25.727 -12.597  -4.598 -0.26 -0.00    +0.000 A 
DOCKED: ATOM     13  C   UNL     1      24.689 -11.672  -4.830 -0.32 -0.00    +0.000 A 
DOCKED: ATOM     14  C   UNL     1      24.915 -10.543  -5.622 -0.36 -0.00    +0.000 A 
DOCKED: ATOM     15  C   UNL     1      26.171 -10.324  -6.193 -0.18 -0.00    +0.000 A 
DOCKED: ATOM     16  C   UNL     1      27.204 -11.239  -5.975 -0.15 -0.00    +0.000 A 
DOCKED: ATOM     17  C   UNL     1      26.983 -12.370  -5.183 -0.22 -0.00    +0.000 A 
DOCKED: ENDBRANCH  10  12
DOCKED: ENDBRANCH   8  10
DOCKED: ENDBRANCH   1   8
DOCKED: BRANCH   3  18
DOCKED: ATOM     18  C   UNL     1      23.798 -18.326  -0.645 -0.81 -0.00    +0.000 C 
DOCKED: ATOM     19  C   UNL     1      22.599 -17.914  -1.083 -0.74 -0.00    +0.000 C 
DOCKED: BRANCH  19  20
DOCKED: ATOM     20  C   UNL     1      21.325 -18.534  -0.667 -0.84 -0.00    +0.000 C 
DOCKED: ATOM     21  N   UNL     1      21.270 -19.813  -0.020 -0.62 -0.00    +0.000 N 
DOCKED: ATOM     22  O   UNL     1      20.255 -17.900  -0.867 -2.19 -0.00    +0.000 OA
DOCKED: ATOM     23  H   UNL     1      22.104 -20.271   0.235 -0.56 -0.00    +0.000 HD
DOCKED: BRANCH  21  24
DOCKED: ATOM     24  O   UNL     1      20.073 -20.393   0.241 -0.81 -0.00    +0.000 OA
DOCKED: ATOM     25  H   UNL     1      19.360 -19.798  -0.037 -0.02 -0.00    +0.000 HD
DOCKED: ENDBRANCH  21  24
DOCKED: ENDBRANCH  19  20
DOCKED: ENDBRANCH   3  18
DOCKED: TORSDOF 6
DOCKED: TER
DOCKED: ENDMDL
________________________________________________________________________________


	BEGINNING GENETIC ALGORITHM DOCKING 29 of 100
Run: 29 Seed: 907158021 455317250 [ Run 29 of 100 GA/GALS ]
Beginning LAMARCKIAN GENETIC ALGORITHM (LGA), with a maximum of 2500000 energy evaluations.

Final-Value: -14.600


	FINAL GENETIC ALGORITHM DOCKED STATE
	_______________________________________________


Detailed state:  trans 24.197 -17.156 -3.130 quatxyzw 0.090918 -0.829830 0.213044 -0.507669 center 0.293 0.181 0.279 ntor 6 13.3195 -28.7328 146.1306 -177.1547 7.0739 71.8937
State:	 24.197 -17.156  -3.130   0.106 -0.963  0.247 -118.983     13.32  -28.73  146.13 -177.15    7.07   71.89

DOCKED: MODEL       29
DOCKED: USER    Run = 29
DOCKED: USER    DPF = ligand_dock.biased.dpf
DOCKED: USER  
DOCKED: USER    Estimated Free Energy of Binding    =  -11.42 kcal/mol  [=(1)+(2)+(3)-(4)]
DOCKED: USER    Estimated Inhibition Constant, Ki   =    4.26 nM (nanomolar)  [Temperature = 298.15 K]
DOCKED: USER    
DOCKED: USER    (1) Final Intermolecular Energy     =  -13.21 kcal/mol
DOCKED: USER        vdW + Hbond + desolv Energy     =  -13.21 kcal/mol
DOCKED: USER        Electrostatic Energy            =   +0.00 kcal/mol
DOCKED: USER    (2) Final Total Internal Energy     =   -1.39 kcal/mol
DOCKED: USER    (3) Torsional Free Energy           =   +1.79 kcal/mol
DOCKED: USER    (4) Unbound System's Energy  [=(2)] =   -1.39 kcal/mol
DOCKED: USER    
DOCKED: USER    
DOCKED: USER    NEWDPF move ligand.pdbqt
DOCKED: USER    NEWDPF about 0.293000 0.181000 0.279000
DOCKED: USER    NEWDPF tran0 24.196700 -17.155850 -3.129943
DOCKED: USER    NEWDPF quaternion0 0.090918 -0.829830 0.213044 -0.507669
DOCKED: USER    NEWDPF axisangle0 0.105528 -0.963181 0.247279 -118.982563
DOCKED: USER    NEWDPF quat0 0.105528 -0.963181 0.247279 -118.982563
DOCKED: USER    NEWDPF dihe0 13.32 -28.73 146.13 -177.15 7.07 71.89 
DOCKED: USER  keepresnum = 1 
DOCKED: USER  
DOCKED: REMARK  Name = 
DOCKED: REMARK  6 active torsions:
DOCKED: REMARK  status: ('A' for Active; 'I' for Inactive)
DOCKED: REMARK    1  A    between atoms: S_2  and  N_3
DOCKED: REMARK    2  A    between atoms: S_2  and  C_10
DOCKED: REMARK    3  A    between atoms: N_3  and  C_4
DOCKED: REMARK    4  A    between atoms: C_12  and  C_13
DOCKED: REMARK    5  A    between atoms: C_14  and  C_15
DOCKED: REMARK    6  A    between atoms: N_16  and  O_17
DOCKED: REMARK                            x       y       z     vdW  Elec       q    Type
DOCKED: REMARK                         _______ _______ _______ _____ _____    ______ ____
DOCKED: USER                              x       y       z     vdW  Elec       q    Type
DOCKED: USER                           _______ _______ _______ _____ _____    ______ ____
DOCKED: ROOT
DOCKED: ATOM      1  C   UNL     1      26.258 -15.991  -2.611 -0.43 -0.00    +0.000 A 
DOCKED: ATOM      2  C   UNL     1      24.910 -16.325  -2.428 -0.35 -0.00    +0.000 A 
DOCKED: ATOM      3  C   UNL     1      24.521 -17.220  -1.416 -0.61 -0.00    +0.000 A 
DOCKED: ATOM      4  C   UNL     1      25.510 -17.751  -0.563 -0.60 -0.00    +0.000 A 
DOCKED: ATOM      5  C   UNL     1      26.853 -17.409  -0.739 -0.48 -0.00    +0.000 A 
DOCKED: ATOM      6  C   UNL     1      27.229 -16.535  -1.761 -0.35 -0.00    +0.000 A 
DOCKED: ENDROOT
DOCKED: BRANCH   1   8
DOCKED: ATOM      7  O   UNL     1      26.861 -15.637  -5.207 -1.11 +0.00    +0.000 OA
DOCKED: ATOM      8  S   UNL     1      26.727 -14.895  -3.907 -0.57 -0.00    +0.000 S 
DOCKED: ATOM      9  O   UNL     1      28.049 -14.274  -3.559 -0.20 -0.00    +0.000 OA
DOCKED: BRANCH   8  10
DOCKED: ATOM     10  N   UNL     1      25.537 -13.643  -4.089 -0.48 -0.00    +0.000 N 
DOCKED: ATOM     11  H   UNL     1      24.592 -13.910  -4.158 -0.14 -0.00    +0.000 HD
DOCKED: BRANCH  10  12
DOCKED: ATOM     12  C   UNL     1      25.851 -12.240  -4.147 -0.23 -0.00    +0.000 A 
DOCKED: ATOM     13  C   UNL     1      26.829 -11.659  -3.315 -0.12 -0.00    +0.000 A 
DOCKED: ATOM     14  C   UNL     1      27.112 -10.293  -3.405 -0.10 -0.00    +0.000 A 
DOCKED: ATOM     15  C   UNL     1      26.423  -9.492  -4.318 -0.14 -0.00    +0.000 A 
DOCKED: ATOM     16  C   UNL     1      25.445 -10.055  -5.142 -0.27 -0.00    +0.000 A 
DOCKED: ATOM     17  C   UNL     1      25.159 -11.421  -5.055 -0.34 -0.00    +0.000 A 
DOCKED: ENDBRANCH  10  12
DOCKED: ENDBRANCH   8  10
DOCKED: ENDBRANCH   1   8
DOCKED: BRANCH   3  18
DOCKED: ATOM     18  C   UNL     1      23.080 -17.541  -1.270 -0.60 -0.00    +0.000 C 
DOCKED: ATOM     19  C   UNL     1      22.618 -18.571  -0.544 -0.84 -0.00    +0.000 C 
DOCKED: BRANCH  19  20
DOCKED: ATOM     20  C   UNL     1      21.182 -18.888  -0.407 -0.84 -0.00    +0.000 C 
DOCKED: ATOM     21  N   UNL     1      20.720 -20.152   0.088 -0.67 -0.00    +0.000 N 
DOCKED: ATOM     22  O   UNL     1      20.340 -18.003  -0.713 -2.22 -0.00    +0.000 OA
DOCKED: ATOM     23  H   UNL     1      21.367 -20.813   0.427 -0.60 -0.00    +0.000 HD
DOCKED: BRANCH  21  24
DOCKED: ATOM     24  O   UNL     1      19.396 -20.440   0.089 -0.83 -0.00    +0.000 OA
DOCKED: ATOM     25  H   UNL     1      18.925 -19.793  -0.458 -0.12 -0.00    +0.000 HD
DOCKED: ENDBRANCH  21  24
DOCKED: ENDBRANCH  19  20
DOCKED: ENDBRANCH   3  18
DOCKED: TORSDOF 6
DOCKED: TER
DOCKED: ENDMDL
________________________________________________________________________________


	BEGINNING GENETIC ALGORITHM DOCKING 30 of 100
Run: 30 Seed: 954876179 1316417396 [ Run 30 of 100 GA/GALS ]
Beginning LAMARCKIAN GENETIC ALGORITHM (LGA), with a maximum of 2500000 energy evaluations.

Final-Value: -15.702


	FINAL GENETIC ALGORITHM DOCKED STATE
	_______________________________________________


Detailed state:  trans 24.210 -18.027 -2.812 quatxyzw -0.211774 0.771249 -0.287659 0.526858 center 0.293 0.181 0.279 ntor 6 30.4998 -61.9238 -20.4910 166.8212 173.5016 -155.3075
State:	 24.210 -18.027  -2.812  -0.249  0.907 -0.338 116.413     30.50  -61.92  -20.49  166.82  173.50 -155.31

DOCKED: MODEL       30
DOCKED: USER    Run = 30
DOCKED: USER    DPF = ligand_dock.biased.dpf
DOCKED: USER  
DOCKED: USER    Estimated Free Energy of Binding    =  -12.51 kcal/mol  [=(1)+(2)+(3)-(4)]
DOCKED: USER    Estimated Inhibition Constant, Ki   =  677.70 pM (picomolar)  [Temperature = 298.15 K]
DOCKED: USER    
DOCKED: USER    (1) Final Intermolecular Energy     =  -14.30 kcal/mol
DOCKED: USER        vdW + Hbond + desolv Energy     =  -14.30 kcal/mol
DOCKED: USER        Electrostatic Energy            =   +0.00 kcal/mol
DOCKED: USER    (2) Final Total Internal Energy     =   -1.40 kcal/mol
DOCKED: USER    (3) Torsional Free Energy           =   +1.79 kcal/mol
DOCKED: USER    (4) Unbound System's Energy  [=(2)] =   -1.40 kcal/mol
DOCKED: USER    
DOCKED: USER    
DOCKED: USER    NEWDPF move ligand.pdbqt
DOCKED: USER    NEWDPF about 0.293000 0.181000 0.279000
DOCKED: USER    NEWDPF tran0 24.210029 -18.026878 -2.811677
DOCKED: USER    NEWDPF quaternion0 -0.211774 0.771249 -0.287659 0.526858
DOCKED: USER    NEWDPF axisangle0 -0.249159 0.907401 -0.338441 116.413213
DOCKED: USER    NEWDPF quat0 -0.249159 0.907401 -0.338441 116.413213
DOCKED: USER    NEWDPF dihe0 30.50 -61.92 -20.49 166.82 173.50 -155.31 
DOCKED: USER  keepresnum = 1 
DOCKED: USER  
DOCKED: REMARK  Name = 
DOCKED: REMARK  6 active torsions:
DOCKED: REMARK  status: ('A' for Active; 'I' for Inactive)
DOCKED: REMARK    1  A    between atoms: S_2  and  N_3
DOCKED: REMARK    2  A    between atoms: S_2  and  C_10
DOCKED: REMARK    3  A    between atoms: N_3  and  C_4
DOCKED: REMARK    4  A    between atoms: C_12  and  C_13
DOCKED: REMARK    5  A    between atoms: C_14  and  C_15
DOCKED: REMARK    6  A    between atoms: N_16  and  O_17
DOCKED: REMARK                            x       y       z     vdW  Elec       q    Type
DOCKED: REMARK                         _______ _______ _______ _____ _____    ______ ____
DOCKED: USER                              x       y       z     vdW  Elec       q    Type
DOCKED: USER                           _______ _______ _______ _____ _____    ______ ____
DOCKED: ROOT
DOCKED: ATOM      1  C   UNL     1      25.915 -16.319  -2.582 -0.45 -0.00    +0.000 A 
DOCKED: ATOM      2  C   UNL     1      24.745 -17.000  -2.220 -0.47 -0.00    +0.000 A 
DOCKED: ATOM      3  C   UNL     1      24.749 -17.919  -1.155 -0.64 -0.00    +0.000 A 
DOCKED: ATOM      4  C   UNL     1      25.943 -18.118  -0.434 -0.59 -0.00    +0.000 A 
DOCKED: ATOM      5  C   UNL     1      27.107 -17.430  -0.789 -0.45 -0.00    +0.000 A 
DOCKED: ATOM      6  C   UNL     1      27.096 -16.537  -1.861 -0.35 -0.00    +0.000 A 
DOCKED: ENDROOT
DOCKED: BRANCH   1   8
DOCKED: ATOM      7  O   UNL     1      24.748 -14.239  -3.822 -1.02 -0.00    +0.000 OA
DOCKED: ATOM      8  S   UNL     1      25.898 -15.200  -3.941 -0.73 -0.00    +0.000 S 
DOCKED: ATOM      9  O   UNL     1      25.750 -15.986  -5.212 -1.10 +0.00    +0.000 OA
DOCKED: BRANCH   8  10
DOCKED: ATOM     10  N   UNL     1      27.383 -14.302  -3.993 -0.27 -0.00    +0.000 N 
DOCKED: ATOM     11  H   UNL     1      27.573 -13.677  -3.256 +0.00 -0.00    +0.000 HD
DOCKED: BRANCH  10  12
DOCKED: ATOM     12  C   UNL     1      28.353 -14.414  -5.051 -0.28 -0.00    +0.000 A 
DOCKED: ATOM     13  C   UNL     1      29.189 -15.541  -5.179 -0.29 -0.00    +0.000 A 
DOCKED: ATOM     14  C   UNL     1      30.114 -15.619  -6.225 -0.28 -0.00    +0.000 A 
DOCKED: ATOM     15  C   UNL     1      30.219 -14.577  -7.148 -0.25 -0.00    +0.000 A 
DOCKED: ATOM     16  C   UNL     1      29.400 -13.451  -7.026 -0.24 -0.00    +0.000 A 
DOCKED: ATOM     17  C   UNL     1      28.474 -13.369  -5.982 -0.23 -0.00    +0.000 A 
DOCKED: ENDBRANCH  10  12
DOCKED: ENDBRANCH   8  10
DOCKED: ENDBRANCH   1   8
DOCKED: BRANCH   3  18
DOCKED: ATOM     18  C   UNL     1      23.483 -18.615  -0.816 -0.83 -0.00    +0.000 C 
DOCKED: ATOM     19  C   UNL     1      22.266 -18.097  -1.041 -0.75 -0.00    +0.000 C 
DOCKED: BRANCH  19  20
DOCKED: ATOM     20  C   UNL     1      21.010 -18.793  -0.696 -0.87 -0.00    +0.000 C 
DOCKED: ATOM     21  N   UNL     1      20.995 -20.109  -0.128 -0.64 -0.00    +0.000 N 
DOCKED: ATOM     22  O   UNL     1      19.919 -18.193  -0.886 -1.87 -0.00    +0.000 OA
DOCKED: ATOM     23  H   UNL     1      21.841 -20.547   0.121 -0.58 -0.00    +0.000 HD
DOCKED: BRANCH  21  24
DOCKED: ATOM     24  O   UNL     1      19.818 -20.753   0.065 -0.79 -0.00    +0.000 OA
DOCKED: ATOM     25  H   UNL     1      19.181 -20.470  -0.608 -0.33 -0.00    +0.000 HD
DOCKED: ENDBRANCH  21  24
DOCKED: ENDBRANCH  19  20
DOCKED: ENDBRANCH   3  18
DOCKED: TORSDOF 6
DOCKED: TER
DOCKED: ENDMDL
________________________________________________________________________________


	BEGINNING GENETIC ALGORITHM DOCKING 31 of 100
Run: 31 Seed: 1312808771 1320378208 [ Run 31 of 100 GA/GALS ]
Beginning LAMARCKIAN GENETIC ALGORITHM (LGA), with a maximum of 2500000 energy evaluations.

Final-Value: -15.828


	FINAL GENETIC ALGORITHM DOCKED STATE
	_______________________________________________


Detailed state:  trans 24.352 -18.330 -2.848 quatxyzw 0.239799 -0.790328 0.365359 -0.429409 center 0.293 0.181 0.279 ntor 6 8.1398 116.5900 58.1429 167.4718 148.3460 -137.5056
State:	 24.352 -18.330  -2.848   0.266 -0.875  0.405 -129.140      8.14  116.59   58.14  167.47  148.35 -137.51

DOCKED: MODEL       31
DOCKED: USER    Run = 31
DOCKED: USER    DPF = ligand_dock.biased.dpf
DOCKED: USER  
DOCKED: USER    Estimated Free Energy of Binding    =  -12.50 kcal/mol  [=(1)+(2)+(3)-(4)]
DOCKED: USER    Estimated Inhibition Constant, Ki   =  684.85 pM (picomolar)  [Temperature = 298.15 K]
DOCKED: USER    
DOCKED: USER    (1) Final Intermolecular Energy     =  -14.29 kcal/mol
DOCKED: USER        vdW + Hbond + desolv Energy     =  -14.29 kcal/mol
DOCKED: USER        Electrostatic Energy            =   +0.00 kcal/mol
DOCKED: USER    (2) Final Total Internal Energy     =   -1.54 kcal/mol
DOCKED: USER    (3) Torsional Free Energy           =   +1.79 kcal/mol
DOCKED: USER    (4) Unbound System's Energy  [=(2)] =   -1.54 kcal/mol
DOCKED: USER    
DOCKED: USER    
DOCKED: USER    NEWDPF move ligand.pdbqt
DOCKED: USER    NEWDPF about 0.293000 0.181000 0.279000
DOCKED: USER    NEWDPF tran0 24.351534 -18.330252 -2.847569
DOCKED: USER    NEWDPF quaternion0 0.239799 -0.790328 0.365359 -0.429409
DOCKED: USER    NEWDPF axisangle0 0.265525 -0.875117 0.404557 -129.139931
DOCKED: USER    NEWDPF quat0 0.265525 -0.875117 0.404557 -129.139931
DOCKED: USER    NEWDPF dihe0 8.14 116.59 58.14 167.47 148.35 -137.51 
DOCKED: USER  keepresnum = 1 
DOCKED: USER  
DOCKED: REMARK  Name = 
DOCKED: REMARK  6 active torsions:
DOCKED: REMARK  status: ('A' for Active; 'I' for Inactive)
DOCKED: REMARK    1  A    between atoms: S_2  and  N_3
DOCKED: REMARK    2  A    between atoms: S_2  and  C_10
DOCKED: REMARK    3  A    between atoms: N_3  and  C_4
DOCKED: REMARK    4  A    between atoms: C_12  and  C_13
DOCKED: REMARK    5  A    between atoms: C_14  and  C_15
DOCKED: REMARK    6  A    between atoms: N_16  and  O_17
DOCKED: REMARK                            x       y       z     vdW  Elec       q    Type
DOCKED: REMARK                         _______ _______ _______ _____ _____    ______ ____
DOCKED: USER                              x       y       z     vdW  Elec       q    Type
DOCKED: USER                           _______ _______ _______ _____ _____    ______ ____
DOCKED: ROOT
DOCKED: ATOM      1  C   UNL     1      25.671 -16.346  -2.403 -0.49 -0.00    +0.000 A 
DOCKED: ATOM      2  C   UNL     1      24.585 -17.213  -2.224 -0.37 -0.00    +0.000 A 
DOCKED: ATOM      3  C   UNL     1      24.542 -18.094  -1.129 -0.66 -0.00    +0.000 A 
DOCKED: ATOM      4  C   UNL     1      25.594 -18.065  -0.192 -0.60 -0.00    +0.000 A 
DOCKED: ATOM      5  C   UNL     1      26.672 -17.192  -0.366 -0.49 -0.00    +0.000 A 
DOCKED: ATOM      6  C   UNL     1      26.714 -16.337  -1.469 -0.39 -0.00    +0.000 A 
DOCKED: ENDROOT
DOCKED: BRANCH   1   8
DOCKED: ATOM      7  O   UNL     1      24.644 -14.233  -3.712 -0.98 -0.00    +0.000 OA
DOCKED: ATOM      8  S   UNL     1      25.722 -15.276  -3.801 -0.71 -0.00    +0.000 S 
DOCKED: ATOM      9  O   UNL     1      25.512 -16.094  -5.043 -0.91 -0.00    +0.000 OA
DOCKED: BRANCH   8  10
DOCKED: ATOM     10  N   UNL     1      27.267 -14.486  -3.892 -0.29 -0.00    +0.000 N 
DOCKED: ATOM     11  H   UNL     1      27.508 -13.859  -3.172 +0.00 -0.00    +0.000 HD
DOCKED: BRANCH  10  12
DOCKED: ATOM     12  C   UNL     1      28.213 -14.694  -4.955 -0.31 -0.00    +0.000 A 
DOCKED: ATOM     13  C   UNL     1      28.419 -13.735  -5.968 -0.27 -0.00    +0.000 A 
DOCKED: ATOM     14  C   UNL     1      29.354 -13.968  -6.981 -0.28 -0.00    +0.000 A 
DOCKED: ATOM     15  C   UNL     1      30.088 -15.156  -6.999 -0.28 -0.00    +0.000 A 
DOCKED: ATOM     16  C   UNL     1      29.886 -16.117  -6.005 -0.30 -0.00    +0.000 A 
DOCKED: ATOM     17  C   UNL     1      28.953 -15.888  -4.989 -0.30 -0.00    +0.000 A 
DOCKED: ENDBRANCH  10  12
DOCKED: ENDBRANCH   8  10
DOCKED: ENDBRANCH   1   8
DOCKED: BRANCH   3  18
DOCKED: ATOM     18  C   UNL     1      23.370 -18.993  -0.989 -0.80 -0.00    +0.000 C 
DOCKED: ATOM     19  C   UNL     1      22.098 -18.565  -0.996 -0.82 -0.00    +0.000 C 
DOCKED: BRANCH  19  20
DOCKED: ATOM     20  C   UNL     1      20.937 -19.465  -0.851 -0.86 -0.00    +0.000 C 
DOCKED: ATOM     21  N   UNL     1      20.549 -20.018   0.414 -0.69 -0.00    +0.000 N 
DOCKED: ATOM     22  O   UNL     1      20.253 -19.733  -1.874 -1.85 -0.00    +0.000 OA
DOCKED: ATOM     23  H   UNL     1      21.011 -19.736   1.236 -0.49 -0.00    +0.000 HD
DOCKED: BRANCH  21  24
DOCKED: ATOM     24  O   UNL     1      19.547 -20.929   0.480 -0.76 -0.00    +0.000 OA
DOCKED: ATOM     25  H   UNL     1      19.290 -21.191  -0.417 -0.39 -0.00    +0.000 HD
DOCKED: ENDBRANCH  21  24
DOCKED: ENDBRANCH  19  20
DOCKED: ENDBRANCH   3  18
DOCKED: TORSDOF 6
DOCKED: TER
DOCKED: ENDMDL
________________________________________________________________________________


	BEGINNING GENETIC ALGORITHM DOCKING 32 of 100
Run: 32 Seed: 1289671987 1791013582 [ Run 32 of 100 GA/GALS ]
Beginning LAMARCKIAN GENETIC ALGORITHM (LGA), with a maximum of 2500000 energy evaluations.

Final-Value: -14.225


	FINAL GENETIC ALGORITHM DOCKED STATE
	_______________________________________________


Detailed state:  trans 25.516 -15.955 0.315 quatxyzw 0.349100 -0.152428 -0.844960 -0.375417 center 0.293 0.181 0.279 ntor 6 177.9797 -132.7696 -70.6844 2.7547 28.0204 -17.7624
State:	 25.516 -15.955   0.315   0.377 -0.164 -0.912 -135.900    177.98 -132.77  -70.68    2.75   28.02  -17.76

DOCKED: MODEL       32
DOCKED: USER    Run = 32
DOCKED: USER    DPF = ligand_dock.biased.dpf
DOCKED: USER  
DOCKED: USER    Estimated Free Energy of Binding    =  -11.30 kcal/mol  [=(1)+(2)+(3)-(4)]
DOCKED: USER    Estimated Inhibition Constant, Ki   =    5.22 nM (nanomolar)  [Temperature = 298.15 K]
DOCKED: USER    
DOCKED: USER    (1) Final Intermolecular Energy     =  -13.09 kcal/mol
DOCKED: USER        vdW + Hbond + desolv Energy     =  -13.09 kcal/mol
DOCKED: USER        Electrostatic Energy            =   +0.00 kcal/mol
DOCKED: USER    (2) Final Total Internal Energy     =   -1.14 kcal/mol
DOCKED: USER    (3) Torsional Free Energy           =   +1.79 kcal/mol
DOCKED: USER    (4) Unbound System's Energy  [=(2)] =   -1.14 kcal/mol
DOCKED: USER    
DOCKED: USER    
DOCKED: USER    NEWDPF move ligand.pdbqt
DOCKED: USER    NEWDPF about 0.293000 0.181000 0.279000
DOCKED: USER    NEWDPF tran0 25.516144 -15.955434 0.314960
DOCKED: USER    NEWDPF quaternion0 0.349100 -0.152428 -0.844960 -0.375417
DOCKED: USER    NEWDPF axisangle0 0.376650 -0.164457 -0.911641 -135.899798
DOCKED: USER    NEWDPF quat0 0.376650 -0.164457 -0.911641 -135.899798
DOCKED: USER    NEWDPF dihe0 177.98 -132.77 -70.68 2.75 28.02 -17.76 
DOCKED: USER  keepresnum = 1 
DOCKED: USER  
DOCKED: REMARK  Name = 
DOCKED: REMARK  6 active torsions:
DOCKED: REMARK  status: ('A' for Active; 'I' for Inactive)
DOCKED: REMARK    1  A    between atoms: S_2  and  N_3
DOCKED: REMARK    2  A    between atoms: S_2  and  C_10
DOCKED: REMARK    3  A    between atoms: N_3  and  C_4
DOCKED: REMARK    4  A    between atoms: C_12  and  C_13
DOCKED: REMARK    5  A    between atoms: C_14  and  C_15
DOCKED: REMARK    6  A    between atoms: N_16  and  O_17
DOCKED: REMARK                            x       y       z     vdW  Elec       q    Type
DOCKED: REMARK                         _______ _______ _______ _____ _____    ______ ____
DOCKED: USER                              x       y       z     vdW  Elec       q    Type
DOCKED: USER                           _______ _______ _______ _____ _____    ______ ____
DOCKED: ROOT
DOCKED: ATOM      1  C   UNL     1      27.475 -15.724  -1.094 -0.29 -0.00    +0.000 A 
DOCKED: ATOM      2  C   UNL     1      26.372 -16.401  -0.558 -0.42 -0.00    +0.000 A 
DOCKED: ATOM      3  C   UNL     1      25.183 -16.535  -1.297 -0.53 -0.00    +0.000 A 
DOCKED: ATOM      4  C   UNL     1      25.132 -16.008  -2.604 -0.45 -0.00    +0.000 A 
DOCKED: ATOM      5  C   UNL     1      26.238 -15.343  -3.141 -0.44 -0.00    +0.000 A 
DOCKED: ATOM      6  C   UNL     1      27.405 -15.197  -2.389 -0.25 -0.00    +0.000 A 
DOCKED: ENDROOT
DOCKED: BRANCH   1   8
DOCKED: ATOM      7  O   UNL     1      29.922 -14.637  -0.838 -0.09 -0.00    +0.000 OA
DOCKED: ATOM      8  S   UNL     1      28.942 -15.536  -0.137 -0.27 -0.00    +0.000 S 
DOCKED: ATOM      9  O   UNL     1      29.569 -16.887   0.056 -0.20 -0.00    +0.000 OA
DOCKED: BRANCH   8  10
DOCKED: ATOM     10  N   UNL     1      28.559 -14.856   1.414 -0.19 -0.00    +0.000 N 
DOCKED: ATOM     11  H   UNL     1      28.915 -15.304   2.216 -1.82 -0.00    +0.000 HD
DOCKED: BRANCH  10  12
DOCKED: ATOM     12  C   UNL     1      27.753 -13.678   1.599 -0.25 -0.00    +0.000 A 
DOCKED: ATOM     13  C   UNL     1      28.014 -12.749   2.625 -0.23 -0.00    +0.000 A 
DOCKED: ATOM     14  C   UNL     1      27.213 -11.612   2.767 -0.26 +0.00    +0.000 A 
DOCKED: ATOM     15  C   UNL     1      26.145 -11.391   1.896 -0.32 +0.00    +0.000 A 
DOCKED: ATOM     16  C   UNL     1      25.872 -12.310   0.880 -0.29 +0.00    +0.000 A 
DOCKED: ATOM     17  C   UNL     1      26.671 -13.449   0.733 -0.28 -0.00    +0.000 A 
DOCKED: ENDBRANCH  10  12
DOCKED: ENDBRANCH   8  10
DOCKED: ENDBRANCH   1   8
DOCKED: BRANCH   3  18
DOCKED: ATOM     18  C   UNL     1      24.043 -17.258  -0.680 -0.70 -0.00    +0.000 C 
DOCKED: ATOM     19  C   UNL     1      22.911 -17.558  -1.335 -0.48 -0.00    +0.000 C 
DOCKED: BRANCH  19  20
DOCKED: ATOM     20  C   UNL     1      21.778 -18.273  -0.713 -0.86 -0.00    +0.000 C 
DOCKED: ATOM     21  N   UNL     1      21.944 -19.520  -0.025 -0.49 -0.00    +0.000 N 
DOCKED: ATOM     22  O   UNL     1      20.634 -17.750  -0.771 -2.26 -0.00    +0.000 OA
DOCKED: ATOM     23  H   UNL     1      22.846 -19.887   0.117 -0.46 -0.00    +0.000 HD
DOCKED: BRANCH  21  24
DOCKED: ATOM     24  O   UNL     1      20.860 -20.195   0.429 -0.69 -0.00    +0.000 OA
DOCKED: ATOM     25  H   UNL     1      21.146 -21.026   0.838 -0.60 -0.00    +0.000 HD
DOCKED: ENDBRANCH  21  24
DOCKED: ENDBRANCH  19  20
DOCKED: ENDBRANCH   3  18
DOCKED: TORSDOF 6
DOCKED: TER
DOCKED: ENDMDL
________________________________________________________________________________


	BEGINNING GENETIC ALGORITHM DOCKING 33 of 100
Run: 33 Seed: 1489373410 685767632 [ Run 33 of 100 GA/GALS ]
Beginning LAMARCKIAN GENETIC ALGORITHM (LGA), with a maximum of 2500000 energy evaluations.

Final-Value: -15.400


	FINAL GENETIC ALGORITHM DOCKED STATE
	_______________________________________________


Detailed state:  trans 24.031 -17.715 -2.583 quatxyzw -0.172660 0.737698 -0.245893 0.604588 center 0.293 0.181 0.279 ntor 6 -3.5083 134.1573 -67.8667 -179.8591 -136.4339 -174.3269
State:	 24.031 -17.715  -2.583  -0.217  0.926 -0.309 105.602     -3.51  134.16  -67.87 -179.86 -136.43 -174.33

DOCKED: MODEL       33
DOCKED: USER    Run = 33
DOCKED: USER    DPF = ligand_dock.biased.dpf
DOCKED: USER  
DOCKED: USER    Estimated Free Energy of Binding    =  -12.07 kcal/mol  [=(1)+(2)+(3)-(4)]
DOCKED: USER    Estimated Inhibition Constant, Ki   =    1.41 nM (nanomolar)  [Temperature = 298.15 K]
DOCKED: USER    
DOCKED: USER    (1) Final Intermolecular Energy     =  -13.86 kcal/mol
DOCKED: USER        vdW + Hbond + desolv Energy     =  -13.86 kcal/mol
DOCKED: USER        Electrostatic Energy            =   +0.00 kcal/mol
DOCKED: USER    (2) Final Total Internal Energy     =   -1.54 kcal/mol
DOCKED: USER    (3) Torsional Free Energy           =   +1.79 kcal/mol
DOCKED: USER    (4) Unbound System's Energy  [=(2)] =   -1.54 kcal/mol
DOCKED: USER    
DOCKED: USER    
DOCKED: USER    NEWDPF move ligand.pdbqt
DOCKED: USER    NEWDPF about 0.293000 0.181000 0.279000
DOCKED: USER    NEWDPF tran0 24.031222 -17.714878 -2.582513
DOCKED: USER    NEWDPF quaternion0 -0.172660 0.737698 -0.245893 0.604588
DOCKED: USER    NEWDPF axisangle0 -0.216763 0.926130 -0.308701 105.601564
DOCKED: USER    NEWDPF quat0 -0.216763 0.926130 -0.308701 105.601564
DOCKED: USER    NEWDPF dihe0 -3.51 134.16 -67.87 -179.86 -136.43 -174.33 
DOCKED: USER  keepresnum = 1 
DOCKED: USER  
DOCKED: REMARK  Name = 
DOCKED: REMARK  6 active torsions:
DOCKED: REMARK  status: ('A' for Active; 'I' for Inactive)
DOCKED: REMARK    1  A    between atoms: S_2  and  N_3
DOCKED: REMARK    2  A    between atoms: S_2  and  C_10
DOCKED: REMARK    3  A    between atoms: N_3  and  C_4
DOCKED: REMARK    4  A    between atoms: C_12  and  C_13
DOCKED: REMARK    5  A    between atoms: C_14  and  C_15
DOCKED: REMARK    6  A    between atoms: N_16  and  O_17
DOCKED: REMARK                            x       y       z     vdW  Elec       q    Type
DOCKED: REMARK                         _______ _______ _______ _____ _____    ______ ____
DOCKED: USER                              x       y       z     vdW  Elec       q    Type
DOCKED: USER                           _______ _______ _______ _____ _____    ______ ____
DOCKED: ROOT
DOCKED: ATOM      1  C   UNL     1      25.962 -16.252  -2.674 -0.43 -0.00    +0.000 A 
DOCKED: ATOM      2  C   UNL     1      24.781 -16.760  -2.116 -0.49 -0.00    +0.000 A 
DOCKED: ATOM      3  C   UNL     1      24.824 -17.650  -1.029 -0.64 -0.00    +0.000 A 
DOCKED: ATOM      4  C   UNL     1      26.078 -17.997  -0.485 -0.57 -0.00    +0.000 A 
DOCKED: ATOM      5  C   UNL     1      27.254 -17.481  -1.035 -0.41 -0.00    +0.000 A 
DOCKED: ATOM      6  C   UNL     1      27.199 -16.614  -2.128 -0.30 -0.00    +0.000 A 
DOCKED: ENDROOT
DOCKED: BRANCH   1   8
DOCKED: ATOM      7  O   UNL     1      24.623 -14.352  -4.027 -1.00 -0.00    +0.000 OA
DOCKED: ATOM      8  S   UNL     1      25.886 -15.166  -4.058 -0.74 -0.00    +0.000 S 
DOCKED: ATOM      9  O   UNL     1      25.911 -15.985  -5.316 -1.12 +0.00    +0.000 OA
DOCKED: BRANCH   8  10
DOCKED: ATOM     10  N   UNL     1      27.251 -14.092  -4.049 -0.27 -0.00    +0.000 N 
DOCKED: ATOM     11  H   UNL     1      27.431 -13.579  -3.228 +0.00 -0.00    +0.000 HD
DOCKED: BRANCH  10  12
DOCKED: ATOM     12  C   UNL     1      28.134 -13.906  -5.170 -0.25 -0.00    +0.000 A 
DOCKED: ATOM     13  C   UNL     1      28.348 -12.639  -5.748 -0.17 -0.00    +0.000 A 
DOCKED: ATOM     14  C   UNL     1      29.220 -12.496  -6.832 -0.16 -0.00    +0.000 A 
DOCKED: ATOM     15  C   UNL     1      29.883 -13.610  -7.352 -0.22 -0.00    +0.000 A 
DOCKED: ATOM     16  C   UNL     1      29.671 -14.872  -6.792 -0.30 -0.00    +0.000 A 
DOCKED: ATOM     17  C   UNL     1      28.800 -15.020  -5.708 -0.34 -0.00    +0.000 A 
DOCKED: ENDBRANCH  10  12
DOCKED: ENDBRANCH   8  10
DOCKED: ENDBRANCH   1   8
DOCKED: BRANCH   3  18
DOCKED: ATOM     18  C   UNL     1      23.544 -18.161  -0.480 -0.80 -0.00    +0.000 C 
DOCKED: ATOM     19  C   UNL     1      22.396 -18.189  -1.174 -0.69 -0.00    +0.000 C 
DOCKED: BRANCH  19  20
DOCKED: ATOM     20  C   UNL     1      21.123 -18.694  -0.619 -0.84 -0.00    +0.000 C 
DOCKED: ATOM     21  N   UNL     1      21.027 -19.959   0.049 -0.65 -0.00    +0.000 N 
DOCKED: ATOM     22  O   UNL     1      20.097 -17.971  -0.716 -2.05 -0.00    +0.000 OA
DOCKED: ATOM     23  H   UNL     1      21.840 -20.486   0.222 -0.59 -0.00    +0.000 HD
DOCKED: BRANCH  21  24
DOCKED: ATOM     24  O   UNL     1      19.818 -20.431   0.440 -0.79 -0.00    +0.000 OA
DOCKED: ATOM     25  H   UNL     1      19.135 -19.772   0.244 -0.02 -0.00    +0.000 HD
DOCKED: ENDBRANCH  21  24
DOCKED: ENDBRANCH  19  20
DOCKED: ENDBRANCH   3  18
DOCKED: TORSDOF 6
DOCKED: TER
DOCKED: ENDMDL
________________________________________________________________________________


	BEGINNING GENETIC ALGORITHM DOCKING 34 of 100
Run: 34 Seed: 1870098710 698164207 [ Run 34 of 100 GA/GALS ]
Beginning LAMARCKIAN GENETIC ALGORITHM (LGA), with a maximum of 2500000 energy evaluations.

Final-Value: -14.838


	FINAL GENETIC ALGORITHM DOCKED STATE
	_______________________________________________


Detailed state:  trans 24.344 -17.859 -2.934 quatxyzw 0.185624 -0.842866 0.236569 -0.446269 center 0.293 0.181 0.279 ntor 6 44.1715 -3.1998 57.1444 -119.5446 102.0124 -79.5907
State:	 24.344 -17.859  -2.934   0.207 -0.942  0.264 -126.991     44.17   -3.20   57.14 -119.54  102.01  -79.59

DOCKED: MODEL       34
DOCKED: USER    Run = 34
DOCKED: USER    DPF = ligand_dock.biased.dpf
DOCKED: USER  
DOCKED: USER    Estimated Free Energy of Binding    =  -11.88 kcal/mol  [=(1)+(2)+(3)-(4)]
DOCKED: USER    Estimated Inhibition Constant, Ki   =    1.95 nM (nanomolar)  [Temperature = 298.15 K]
DOCKED: USER    
DOCKED: USER    (1) Final Intermolecular Energy     =  -13.67 kcal/mol
DOCKED: USER        vdW + Hbond + desolv Energy     =  -13.67 kcal/mol
DOCKED: USER        Electrostatic Energy            =   +0.00 kcal/mol
DOCKED: USER    (2) Final Total Internal Energy     =   -1.17 kcal/mol
DOCKED: USER    (3) Torsional Free Energy           =   +1.79 kcal/mol
DOCKED: USER    (4) Unbound System's Energy  [=(2)] =   -1.17 kcal/mol
DOCKED: USER    
DOCKED: USER    
DOCKED: USER    NEWDPF move ligand.pdbqt
DOCKED: USER    NEWDPF about 0.293000 0.181000 0.279000
DOCKED: USER    NEWDPF tran0 24.344433 -17.859436 -2.933982
DOCKED: USER    NEWDPF quaternion0 0.185624 -0.842866 0.236569 -0.446269
DOCKED: USER    NEWDPF axisangle0 0.207425 -0.941856 0.264353 -126.990942
DOCKED: USER    NEWDPF quat0 0.207425 -0.941856 0.264353 -126.990942
DOCKED: USER    NEWDPF dihe0 44.17 -3.20 57.14 -119.54 102.01 -79.59 
DOCKED: USER  keepresnum = 1 
DOCKED: USER  
DOCKED: REMARK  Name = 
DOCKED: REMARK  6 active torsions:
DOCKED: REMARK  status: ('A' for Active; 'I' for Inactive)
DOCKED: REMARK    1  A    between atoms: S_2  and  N_3
DOCKED: REMARK    2  A    between atoms: S_2  and  C_10
DOCKED: REMARK    3  A    between atoms: N_3  and  C_4
DOCKED: REMARK    4  A    between atoms: C_12  and  C_13
DOCKED: REMARK    5  A    between atoms: C_14  and  C_15
DOCKED: REMARK    6  A    between atoms: N_16  and  O_17
DOCKED: REMARK                            x       y       z     vdW  Elec       q    Type
DOCKED: REMARK                         _______ _______ _______ _____ _____    ______ ____
DOCKED: USER                              x       y       z     vdW  Elec       q    Type
DOCKED: USER                           _______ _______ _______ _____ _____    ______ ____
DOCKED: ROOT
DOCKED: ATOM      1  C   UNL     1      26.079 -16.351  -2.164 -0.45 -0.00    +0.000 A 
DOCKED: ATOM      2  C   UNL     1      24.819 -16.962  -2.121 -0.51 -0.00    +0.000 A 
DOCKED: ATOM      3  C   UNL     1      24.553 -17.996  -1.207 -0.65 -0.00    +0.000 A 
DOCKED: ATOM      4  C   UNL     1      25.566 -18.386  -0.308 -0.58 -0.00    +0.000 A 
DOCKED: ATOM      5  C   UNL     1      26.820 -17.768  -0.345 -0.50 -0.00    +0.000 A 
DOCKED: ATOM      6  C   UNL     1      27.078 -16.757  -1.272 -0.40 -0.00    +0.000 A 
DOCKED: ENDROOT
DOCKED: BRANCH   1   8
DOCKED: ATOM      7  O   UNL     1      26.901 -13.839  -2.658 -0.25 -0.00    +0.000 OA
DOCKED: ATOM      8  S   UNL     1      26.402 -15.082  -3.341 -0.58 -0.00    +0.000 S 
DOCKED: ATOM      9  O   UNL     1      25.128 -14.763  -4.069 -0.96 -0.00    +0.000 OA
DOCKED: BRANCH   8  10
DOCKED: ATOM     10  N   UNL     1      27.595 -15.617  -4.484 -0.38 -0.00    +0.000 N 
DOCKED: ATOM     11  H   UNL     1      27.876 -16.560  -4.452 +0.01 -0.00    +0.000 HD
DOCKED: BRANCH  10  12
DOCKED: ATOM     12  C   UNL     1      28.197 -14.765  -5.475 -0.35 -0.00    +0.000 A 
DOCKED: ATOM     13  C   UNL     1      27.655 -13.506  -5.805 -0.19 -0.00    +0.000 A 
DOCKED: ATOM     14  C   UNL     1      28.273 -12.702  -6.768 -0.21 -0.00    +0.000 A 
DOCKED: ATOM     15  C   UNL     1      29.431 -13.143  -7.413 -0.23 -0.00    +0.000 A 
DOCKED: ATOM     16  C   UNL     1      29.972 -14.393  -7.099 -0.26 -0.00    +0.000 A 
DOCKED: ATOM     17  C   UNL     1      29.357 -15.200  -6.137 -0.33 -0.00    +0.000 A 
DOCKED: ENDBRANCH  10  12
DOCKED: ENDBRANCH   8  10
DOCKED: ENDBRANCH   1   8
DOCKED: BRANCH   3  18
DOCKED: ATOM     18  C   UNL     1      23.202 -18.611  -1.206 -0.80 -0.00    +0.000 C 
DOCKED: ATOM     19  C   UNL     1      22.239 -18.290  -0.329 -0.84 -0.00    +0.000 C 
DOCKED: BRANCH  19  20
DOCKED: ATOM     20  C   UNL     1      20.899 -18.909  -0.330 -0.80 -0.00    +0.000 C 
DOCKED: ATOM     21  N   UNL     1      20.668 -20.237   0.160 -0.66 -0.00    +0.000 N 
DOCKED: ATOM     22  O   UNL     1      19.925 -18.233  -0.755 -1.91 -0.00    +0.000 OA
DOCKED: ATOM     23  H   UNL     1      21.400 -20.737   0.589 -0.60 -0.00    +0.000 HD
DOCKED: BRANCH  21  24
DOCKED: ATOM     24  O   UNL     1      19.444 -20.805   0.034 -0.76 -0.00    +0.000 OA
DOCKED: ATOM     25  H   UNL     1      19.101 -20.637  -0.857 -0.48 -0.00    +0.000 HD
DOCKED: ENDBRANCH  21  24
DOCKED: ENDBRANCH  19  20
DOCKED: ENDBRANCH   3  18
DOCKED: TORSDOF 6
DOCKED: TER
DOCKED: ENDMDL
________________________________________________________________________________


	BEGINNING GENETIC ALGORITHM DOCKING 35 of 100
Run: 35 Seed: 920742333 1250892441 [ Run 35 of 100 GA/GALS ]
Beginning LAMARCKIAN GENETIC ALGORITHM (LGA), with a maximum of 2500000 energy evaluations.

Final-Value: -15.701


	FINAL GENETIC ALGORITHM DOCKED STATE
	_______________________________________________


Detailed state:  trans 24.226 -17.852 -2.698 quatxyzw 0.198565 -0.748044 0.297600 -0.558960 center 0.293 0.181 0.279 ntor 6 2.5762 133.3819 -41.8705 160.0624 -169.2059 -160.0493
State:	 24.226 -17.852  -2.698   0.239 -0.902  0.359 -112.032      2.58  133.38  -41.87  160.06 -169.21 -160.05

DOCKED: MODEL       35
DOCKED: USER    Run = 35
DOCKED: USER    DPF = ligand_dock.biased.dpf
DOCKED: USER  
DOCKED: USER    Estimated Free Energy of Binding    =  -12.32 kcal/mol  [=(1)+(2)+(3)-(4)]
DOCKED: USER    Estimated Inhibition Constant, Ki   =  933.30 pM (picomolar)  [Temperature = 298.15 K]
DOCKED: USER    
DOCKED: USER    (1) Final Intermolecular Energy     =  -14.11 kcal/mol
DOCKED: USER        vdW + Hbond + desolv Energy     =  -14.11 kcal/mol
DOCKED: USER        Electrostatic Energy            =   +0.00 kcal/mol
DOCKED: USER    (2) Final Total Internal Energy     =   -1.59 kcal/mol
DOCKED: USER    (3) Torsional Free Energy           =   +1.79 kcal/mol
DOCKED: USER    (4) Unbound System's Energy  [=(2)] =   -1.59 kcal/mol
DOCKED: USER    
DOCKED: USER    
DOCKED: USER    NEWDPF move ligand.pdbqt
DOCKED: USER    NEWDPF about 0.293000 0.181000 0.279000
DOCKED: USER    NEWDPF tran0 24.225611 -17.851999 -2.698097
DOCKED: USER    NEWDPF quaternion0 0.198565 -0.748044 0.297600 -0.558960
DOCKED: USER    NEWDPF axisangle0 0.239468 -0.902133 0.358902 -112.032197
DOCKED: USER    NEWDPF quat0 0.239468 -0.902133 0.358902 -112.032197
DOCKED: USER    NEWDPF dihe0 2.58 133.38 -41.87 160.06 -169.21 -160.05 
DOCKED: USER  keepresnum = 1 
DOCKED: USER  
DOCKED: REMARK  Name = 
DOCKED: REMARK  6 active torsions:
DOCKED: REMARK  status: ('A' for Active; 'I' for Inactive)
DOCKED: REMARK    1  A    between atoms: S_2  and  N_3
DOCKED: REMARK    2  A    between atoms: S_2  and  C_10
DOCKED: REMARK    3  A    between atoms: N_3  and  C_4
DOCKED: REMARK    4  A    between atoms: C_12  and  C_13
DOCKED: REMARK    5  A    between atoms: C_14  and  C_15
DOCKED: REMARK    6  A    between atoms: N_16  and  O_17
DOCKED: REMARK                            x       y       z     vdW  Elec       q    Type
DOCKED: REMARK                         _______ _______ _______ _____ _____    ______ ____
DOCKED: USER                              x       y       z     vdW  Elec       q    Type
DOCKED: USER                           _______ _______ _______ _____ _____    ______ ____
DOCKED: ROOT
DOCKED: ATOM      1  C   UNL     1      25.970 -16.169  -2.671 -0.44 -0.00    +0.000 A 
DOCKED: ATOM      2  C   UNL     1      24.814 -16.805  -2.199 -0.48 -0.00    +0.000 A 
DOCKED: ATOM      3  C   UNL     1      24.869 -17.663  -1.087 -0.63 -0.00    +0.000 A 
DOCKED: ATOM      4  C   UNL     1      26.103 -17.846  -0.430 -0.57 -0.00    +0.000 A 
DOCKED: ATOM      5  C   UNL     1      27.253 -17.203  -0.895 -0.42 -0.00    +0.000 A 
DOCKED: ATOM      6  C   UNL     1      27.190 -16.370  -2.013 -0.34 -0.00    +0.000 A 
DOCKED: ENDROOT
DOCKED: BRANCH   1   8
DOCKED: ATOM      7  O   UNL     1      24.694 -14.215  -4.006 -1.07 -0.00    +0.000 OA
DOCKED: ATOM      8  S   UNL     1      25.886 -15.127  -4.087 -0.74 -0.00    +0.000 S 
DOCKED: ATOM      9  O   UNL     1      25.763 -15.986  -5.313 -1.10 +0.00    +0.000 OA
DOCKED: BRANCH   8  10
DOCKED: ATOM     10  N   UNL     1      27.328 -14.165  -4.207 -0.28 -0.00    +0.000 N 
DOCKED: ATOM     11  H   UNL     1      27.445 -13.427  -3.566 +0.00 -0.00    +0.000 HD
DOCKED: BRANCH  10  12
DOCKED: ATOM     12  C   UNL     1      28.359 -14.381  -5.187 -0.29 -0.00    +0.000 A 
DOCKED: ATOM     13  C   UNL     1      28.744 -13.378  -6.099 -0.22 -0.00    +0.000 A 
DOCKED: ATOM     14  C   UNL     1      29.756 -13.623  -7.031 -0.22 -0.00    +0.000 A 
DOCKED: ATOM     15  C   UNL     1      30.391 -14.867  -7.069 -0.25 -0.00    +0.000 A 
DOCKED: ATOM     16  C   UNL     1      30.011 -15.871  -6.175 -0.30 -0.00    +0.000 A 
DOCKED: ATOM     17  C   UNL     1      29.000 -15.631  -5.240 -0.31 -0.00    +0.000 A 
DOCKED: ENDBRANCH  10  12
DOCKED: ENDBRANCH   8  10
DOCKED: ENDBRANCH   1   8
DOCKED: BRANCH   3  18
DOCKED: ATOM     18  C   UNL     1      23.615 -18.313  -0.631 -0.81 -0.00    +0.000 C 
DOCKED: ATOM     19  C   UNL     1      22.397 -17.978  -1.083 -0.73 -0.00    +0.000 C 
DOCKED: BRANCH  19  20
DOCKED: ATOM     20  C   UNL     1      21.153 -18.626  -0.622 -0.84 -0.00    +0.000 C 
DOCKED: ATOM     21  N   UNL     1      21.139 -19.945  -0.057 -0.62 -0.00    +0.000 N 
DOCKED: ATOM     22  O   UNL     1      20.074 -17.983  -0.706 -2.04 -0.00    +0.000 OA
DOCKED: ATOM     23  H   UNL     1      21.987 -20.417   0.109 -0.57 -0.00    +0.000 HD
DOCKED: BRANCH  21  24
DOCKED: ATOM     24  O   UNL     1      19.961 -20.542   0.246 -0.80 -0.00    +0.000 OA
DOCKED: ATOM     25  H   UNL     1      19.229 -19.964  -0.016 -0.03 -0.00    +0.000 HD
DOCKED: ENDBRANCH  21  24
DOCKED: ENDBRANCH  19  20
DOCKED: ENDBRANCH   3  18
DOCKED: TORSDOF 6
DOCKED: TER
DOCKED: ENDMDL
________________________________________________________________________________


	BEGINNING GENETIC ALGORITHM DOCKING 36 of 100
Run: 36 Seed: 255470731 1984029670 [ Run 36 of 100 GA/GALS ]
Beginning LAMARCKIAN GENETIC ALGORITHM (LGA), with a maximum of 2500000 energy evaluations.

Final-Value: -15.809


	FINAL GENETIC ALGORITHM DOCKED STATE
	_______________________________________________


Detailed state:  trans 24.279 -18.006 -2.792 quatxyzw 0.212701 -0.771230 0.319783 -0.507643 center 0.293 0.181 0.279 ntor 6 32.0473 118.1067 -17.2494 163.5778 163.7095 -150.0068
State:	 24.279 -18.006  -2.792   0.247 -0.895  0.371 -118.986     32.05  118.11  -17.25  163.58  163.71 -150.01

DOCKED: MODEL       36
DOCKED: USER    Run = 36
DOCKED: USER    DPF = ligand_dock.biased.dpf
DOCKED: USER  
DOCKED: USER    Estimated Free Energy of Binding    =  -12.62 kcal/mol  [=(1)+(2)+(3)-(4)]
DOCKED: USER    Estimated Inhibition Constant, Ki   =  558.35 pM (picomolar)  [Temperature = 298.15 K]
DOCKED: USER    
DOCKED: USER    (1) Final Intermolecular Energy     =  -14.41 kcal/mol
DOCKED: USER        vdW + Hbond + desolv Energy     =  -14.41 kcal/mol
DOCKED: USER        Electrostatic Energy            =   +0.00 kcal/mol
DOCKED: USER    (2) Final Total Internal Energy     =   -1.40 kcal/mol
DOCKED: USER    (3) Torsional Free Energy           =   +1.79 kcal/mol
DOCKED: USER    (4) Unbound System's Energy  [=(2)] =   -1.40 kcal/mol
DOCKED: USER    
DOCKED: USER    
DOCKED: USER    NEWDPF move ligand.pdbqt
DOCKED: USER    NEWDPF about 0.293000 0.181000 0.279000
DOCKED: USER    NEWDPF tran0 24.278645 -18.005671 -2.792461
DOCKED: USER    NEWDPF quaternion0 0.212701 -0.771230 0.319783 -0.507643
DOCKED: USER    NEWDPF axisangle0 0.246877 -0.895147 0.371165 -118.986113
DOCKED: USER    NEWDPF quat0 0.246877 -0.895147 0.371165 -118.986113
DOCKED: USER    NEWDPF dihe0 32.05 118.11 -17.25 163.58 163.71 -150.01 
DOCKED: USER  keepresnum = 1 
DOCKED: USER  
DOCKED: REMARK  Name = 
DOCKED: REMARK  6 active torsions:
DOCKED: REMARK  status: ('A' for Active; 'I' for Inactive)
DOCKED: REMARK    1  A    between atoms: S_2  and  N_3
DOCKED: REMARK    2  A    between atoms: S_2  and  C_10
DOCKED: REMARK    3  A    between atoms: N_3  and  C_4
DOCKED: REMARK    4  A    between atoms: C_12  and  C_13
DOCKED: REMARK    5  A    between atoms: C_14  and  C_15
DOCKED: REMARK    6  A    between atoms: N_16  and  O_17
DOCKED: REMARK                            x       y       z     vdW  Elec       q    Type
DOCKED: REMARK                         _______ _______ _______ _____ _____    ______ ____
DOCKED: USER                              x       y       z     vdW  Elec       q    Type
DOCKED: USER                           _______ _______ _______ _____ _____    ______ ____
DOCKED: ROOT
DOCKED: ATOM      1  C   UNL     1      25.893 -16.212  -2.562 -0.46 -0.00    +0.000 A 
DOCKED: ATOM      2  C   UNL     1      24.740 -16.932  -2.222 -0.46 -0.00    +0.000 A 
DOCKED: ATOM      3  C   UNL     1      24.739 -17.807  -1.121 -0.65 -0.00    +0.000 A 
DOCKED: ATOM      4  C   UNL     1      25.909 -17.921  -0.342 -0.59 -0.00    +0.000 A 
DOCKED: ATOM      5  C   UNL     1      27.054 -17.194  -0.678 -0.45 -0.00    +0.000 A 
DOCKED: ATOM      6  C   UNL     1      27.050 -16.345  -1.785 -0.36 -0.00    +0.000 A 
DOCKED: ENDROOT
DOCKED: BRANCH   1   8
DOCKED: ATOM      7  O   UNL     1      24.761 -14.153  -3.871 -1.05 -0.00    +0.000 OA
DOCKED: ATOM      8  S   UNL     1      25.884 -15.149  -3.966 -0.73 -0.00    +0.000 S 
DOCKED: ATOM      9  O   UNL     1      25.696 -15.982  -5.202 -1.09 +0.00    +0.000 OA
DOCKED: BRANCH   8  10
DOCKED: ATOM     10  N   UNL     1      27.391 -14.293  -4.077 -0.27 -0.00    +0.000 N 
DOCKED: ATOM     11  H   UNL     1      27.586 -13.610  -3.395 +0.00 -0.00    +0.000 HD
DOCKED: BRANCH  10  12
DOCKED: ATOM     12  C   UNL     1      28.371 -14.523  -5.105 -0.29 -0.00    +0.000 A 
DOCKED: ATOM     13  C   UNL     1      28.577 -13.608  -6.157 -0.26 -0.00    +0.000 A 
DOCKED: ATOM     14  C   UNL     1      29.545 -13.861  -7.134 -0.26 -0.00    +0.000 A 
DOCKED: ATOM     15  C   UNL     1      30.312 -15.027  -7.077 -0.27 -0.00    +0.000 A 
DOCKED: ATOM     16  C   UNL     1      30.110 -15.945  -6.043 -0.28 -0.00    +0.000 A 
DOCKED: ATOM     17  C   UNL     1      29.144 -15.695  -5.064 -0.29 -0.00    +0.000 A 
DOCKED: ENDBRANCH  10  12
DOCKED: ENDBRANCH   8  10
DOCKED: ENDBRANCH   1   8
DOCKED: BRANCH   3  18
DOCKED: ATOM     18  C   UNL     1      23.493 -18.548  -0.806 -0.82 -0.00    +0.000 C 
DOCKED: ATOM     19  C   UNL     1      22.264 -18.022  -0.928 -0.77 -0.00    +0.000 C 
DOCKED: BRANCH  19  20
DOCKED: ATOM     20  C   UNL     1      21.028 -18.764  -0.608 -0.84 -0.00    +0.000 C 
DOCKED: ATOM     21  N   UNL     1      21.048 -20.111  -0.115 -0.62 -0.00    +0.000 N 
DOCKED: ATOM     22  O   UNL     1      19.922 -18.178  -0.750 -1.90 -0.00    +0.000 OA
DOCKED: ATOM     23  H   UNL     1      21.906 -20.543   0.098 -0.58 -0.00    +0.000 HD
DOCKED: BRANCH  21  24
DOCKED: ATOM     24  O   UNL     1      19.887 -20.790   0.056 -0.79 -0.00    +0.000 OA
DOCKED: ATOM     25  H   UNL     1      19.244 -20.501  -0.609 -0.33 -0.00    +0.000 HD
DOCKED: ENDBRANCH  21  24
DOCKED: ENDBRANCH  19  20
DOCKED: ENDBRANCH   3  18
DOCKED: TORSDOF 6
DOCKED: TER
DOCKED: ENDMDL
________________________________________________________________________________


	BEGINNING GENETIC ALGORITHM DOCKING 37 of 100
Run: 37 Seed: 1473054769 2084304313 [ Run 37 of 100 GA/GALS ]
Beginning LAMARCKIAN GENETIC ALGORITHM (LGA), with a maximum of 2500000 energy evaluations.

Final-Value: -15.725


	FINAL GENETIC ALGORITHM DOCKED STATE
	_______________________________________________


Detailed state:  trans 24.328 -18.416 -2.739 quatxyzw 0.220526 -0.780414 0.367158 -0.455541 center 0.293 0.181 0.279 ntor 6 2.0246 -70.5837 29.4451 138.7206 175.0781 -137.6133
State:	 24.328 -18.416  -2.739   0.248 -0.877  0.412 -125.801      2.02  -70.58   29.45  138.72  175.08 -137.61

DOCKED: MODEL       37
DOCKED: USER    Run = 37
DOCKED: USER    DPF = ligand_dock.biased.dpf
DOCKED: USER  
DOCKED: USER    Estimated Free Energy of Binding    =  -12.30 kcal/mol  [=(1)+(2)+(3)-(4)]
DOCKED: USER    Estimated Inhibition Constant, Ki   =  962.43 pM (picomolar)  [Temperature = 298.15 K]
DOCKED: USER    
DOCKED: USER    (1) Final Intermolecular Energy     =  -14.09 kcal/mol
DOCKED: USER        vdW + Hbond + desolv Energy     =  -14.09 kcal/mol
DOCKED: USER        Electrostatic Energy            =   +0.00 kcal/mol
DOCKED: USER    (2) Final Total Internal Energy     =   -1.63 kcal/mol
DOCKED: USER    (3) Torsional Free Energy           =   +1.79 kcal/mol
DOCKED: USER    (4) Unbound System's Energy  [=(2)] =   -1.63 kcal/mol
DOCKED: USER    
DOCKED: USER    
DOCKED: USER    NEWDPF move ligand.pdbqt
DOCKED: USER    NEWDPF about 0.293000 0.181000 0.279000
DOCKED: USER    NEWDPF tran0 24.327995 -18.415607 -2.739036
DOCKED: USER    NEWDPF quaternion0 0.220526 -0.780414 0.367158 -0.455541
DOCKED: USER    NEWDPF axisangle0 0.247723 -0.876658 0.412438 -125.800541
DOCKED: USER    NEWDPF quat0 0.247723 -0.876658 0.412438 -125.800541
DOCKED: USER    NEWDPF dihe0 2.02 -70.58 29.45 138.72 175.08 -137.61 
DOCKED: USER  keepresnum = 1 
DOCKED: USER  
DOCKED: REMARK  Name = 
DOCKED: REMARK  6 active torsions:
DOCKED: REMARK  status: ('A' for Active; 'I' for Inactive)
DOCKED: REMARK    1  A    between atoms: S_2  and  N_3
DOCKED: REMARK    2  A    between atoms: S_2  and  C_10
DOCKED: REMARK    3  A    between atoms: N_3  and  C_4
DOCKED: REMARK    4  A    between atoms: C_12  and  C_13
DOCKED: REMARK    5  A    between atoms: C_14  and  C_15
DOCKED: REMARK    6  A    between atoms: N_16  and  O_17
DOCKED: REMARK                            x       y       z     vdW  Elec       q    Type
DOCKED: REMARK                         _______ _______ _______ _____ _____    ______ ____
DOCKED: USER                              x       y       z     vdW  Elec       q    Type
DOCKED: USER                           _______ _______ _______ _____ _____    ______ ____
DOCKED: ROOT
DOCKED: ATOM      1  C   UNL     1      25.746 -16.475  -2.419 -0.46 -0.00    +0.000 A 
DOCKED: ATOM      2  C   UNL     1      24.631 -17.287  -2.169 -0.44 -0.00    +0.000 A 
DOCKED: ATOM      3  C   UNL     1      24.589 -18.122  -1.039 -0.66 -0.00    +0.000 A 
DOCKED: ATOM      4  C   UNL     1      25.675 -18.103  -0.140 -0.59 -0.00    +0.000 A 
DOCKED: ATOM      5  C   UNL     1      26.782 -17.286  -0.385 -0.48 -0.00    +0.000 A 
DOCKED: ATOM      6  C   UNL     1      26.820 -16.477  -1.522 -0.39 -0.00    +0.000 A 
DOCKED: ENDROOT
DOCKED: BRANCH   1   8
DOCKED: ATOM      7  O   UNL     1      24.761 -14.373  -3.777 -0.99 -0.00    +0.000 OA
DOCKED: ATOM      8  S   UNL     1      25.793 -15.463  -3.859 -0.71 -0.00    +0.000 S 
DOCKED: ATOM      9  O   UNL     1      25.506 -16.319  -5.060 -0.82 -0.00    +0.000 OA
DOCKED: BRANCH   8  10
DOCKED: ATOM     10  N   UNL     1      27.364 -14.744  -4.032 -0.31 -0.00    +0.000 N 
DOCKED: ATOM     11  H   UNL     1      27.504 -13.844  -3.659 +0.00 -0.00    +0.000 HD
DOCKED: BRANCH  10  12
DOCKED: ATOM     12  C   UNL     1      28.473 -15.385  -4.689 -0.31 -0.00    +0.000 A 
DOCKED: ATOM     13  C   UNL     1      29.288 -16.325  -4.029 -0.24 -0.00    +0.000 A 
DOCKED: ATOM     14  C   UNL     1      30.352 -16.933  -4.702 -0.23 -0.00    +0.000 A 
DOCKED: ATOM     15  C   UNL     1      30.617 -16.609  -6.035 -0.26 -0.00    +0.000 A 
DOCKED: ATOM     16  C   UNL     1      29.819 -15.672  -6.697 -0.29 -0.00    +0.000 A 
DOCKED: ATOM     17  C   UNL     1      28.754 -15.062  -6.027 -0.35 -0.00    +0.000 A 
DOCKED: ENDBRANCH  10  12
DOCKED: ENDBRANCH   8  10
DOCKED: ENDBRANCH   1   8
DOCKED: BRANCH   3  18
DOCKED: ATOM     18  C   UNL     1      23.386 -18.963  -0.823 -0.80 -0.00    +0.000 C 
DOCKED: ATOM     19  C   UNL     1      22.167 -18.651  -1.290 -0.70 -0.00    +0.000 C 
DOCKED: BRANCH  19  20
DOCKED: ATOM     20  C   UNL     1      20.972 -19.490  -1.067 -0.83 -0.00    +0.000 C 
DOCKED: ATOM     21  N   UNL     1      20.630 -20.008   0.225 -0.70 -0.00    +0.000 N 
DOCKED: ATOM     22  O   UNL     1      20.219 -19.735  -2.046 -1.87 -0.00    +0.000 OA
DOCKED: ATOM     23  H   UNL     1      21.152 -19.740   1.016 -0.46 -0.00    +0.000 HD
DOCKED: BRANCH  21  24
DOCKED: ATOM     24  O   UNL     1      19.590 -20.866   0.360 -0.77 -0.00    +0.000 OA
DOCKED: ATOM     25  H   UNL     1      19.208 -21.050  -0.511 -0.41 -0.00    +0.000 HD
DOCKED: ENDBRANCH  21  24
DOCKED: ENDBRANCH  19  20
DOCKED: ENDBRANCH   3  18
DOCKED: TORSDOF 6
DOCKED: TER
DOCKED: ENDMDL
________________________________________________________________________________


	BEGINNING GENETIC ALGORITHM DOCKING 38 of 100
Run: 38 Seed: 1565011918 1952452957 [ Run 38 of 100 GA/GALS ]
Beginning LAMARCKIAN GENETIC ALGORITHM (LGA), with a maximum of 2500000 energy evaluations.

Final-Value: -14.871


	FINAL GENETIC ALGORITHM DOCKED STATE
	_______________________________________________


Detailed state:  trans 23.624 -17.251 -2.689 quatxyzw 0.121353 -0.852257 0.118097 -0.494959 center 0.293 0.181 0.279 ntor 6 -15.3757 83.3414 -95.8291 69.0953 -20.2037 143.9880
State:	 23.624 -17.251  -2.689   0.140 -0.981  0.136 -120.666    -15.38   83.34  -95.83   69.10  -20.20  143.99

DOCKED: MODEL       38
DOCKED: USER    Run = 38
DOCKED: USER    DPF = ligand_dock.biased.dpf
DOCKED: USER  
DOCKED: USER    Estimated Free Energy of Binding    =  -11.30 kcal/mol  [=(1)+(2)+(3)-(4)]
DOCKED: USER    Estimated Inhibition Constant, Ki   =    5.18 nM (nanomolar)  [Temperature = 298.15 K]
DOCKED: USER    
DOCKED: USER    (1) Final Intermolecular Energy     =  -13.09 kcal/mol
DOCKED: USER        vdW + Hbond + desolv Energy     =  -13.09 kcal/mol
DOCKED: USER        Electrostatic Energy            =   +0.00 kcal/mol
DOCKED: USER    (2) Final Total Internal Energy     =   -1.78 kcal/mol
DOCKED: USER    (3) Torsional Free Energy           =   +1.79 kcal/mol
DOCKED: USER    (4) Unbound System's Energy  [=(2)] =   -1.78 kcal/mol
DOCKED: USER    
DOCKED: USER    
DOCKED: USER    NEWDPF move ligand.pdbqt
DOCKED: USER    NEWDPF about 0.293000 0.181000 0.279000
DOCKED: USER    NEWDPF tran0 23.624063 -17.251364 -2.688685
DOCKED: USER    NEWDPF quaternion0 0.121353 -0.852257 0.118097 -0.494959
DOCKED: USER    NEWDPF axisangle0 0.139660 -0.980828 0.135913 -120.665946
DOCKED: USER    NEWDPF quat0 0.139660 -0.980828 0.135913 -120.665946
DOCKED: USER    NEWDPF dihe0 -15.38 83.34 -95.83 69.10 -20.20 143.99 
DOCKED: USER  keepresnum = 1 
DOCKED: USER  
DOCKED: REMARK  Name = 
DOCKED: REMARK  6 active torsions:
DOCKED: REMARK  status: ('A' for Active; 'I' for Inactive)
DOCKED: REMARK    1  A    between atoms: S_2  and  N_3
DOCKED: REMARK    2  A    between atoms: S_2  and  C_10
DOCKED: REMARK    3  A    between atoms: N_3  and  C_4
DOCKED: REMARK    4  A    between atoms: C_12  and  C_13
DOCKED: REMARK    5  A    between atoms: C_14  and  C_15
DOCKED: REMARK    6  A    between atoms: N_16  and  O_17
DOCKED: REMARK                            x       y       z     vdW  Elec       q    Type
DOCKED: REMARK                         _______ _______ _______ _____ _____    ______ ____
DOCKED: USER                              x       y       z     vdW  Elec       q    Type
DOCKED: USER                           _______ _______ _______ _____ _____    ______ ____
DOCKED: ROOT
DOCKED: ATOM      1  C   UNL     1      25.724 -16.309  -1.929 -0.49 -0.00    +0.000 A 
DOCKED: ATOM      2  C   UNL     1      24.359 -16.610  -1.829 -0.45 -0.00    +0.000 A 
DOCKED: ATOM      3  C   UNL     1      23.915 -17.670  -1.020 -0.68 -0.00    +0.000 A 
DOCKED: ATOM      4  C   UNL     1      24.864 -18.405  -0.280 -0.59 -0.00    +0.000 A 
DOCKED: ATOM      5  C   UNL     1      26.224 -18.096  -0.373 -0.57 -0.00    +0.000 A 
DOCKED: ATOM      6  C   UNL     1      26.655 -17.055  -1.196 -0.46 -0.00    +0.000 A 
DOCKED: ENDROOT
DOCKED: BRANCH   1   8
DOCKED: ATOM      7  O   UNL     1      25.141 -14.529  -3.858 -0.93 -0.00    +0.000 OA
DOCKED: ATOM      8  S   UNL     1      26.263 -14.999  -2.976 -0.56 -0.00    +0.000 S 
DOCKED: ATOM      9  O   UNL     1      27.386 -15.501  -3.838 -0.40 -0.00    +0.000 OA
DOCKED: BRANCH   8  10
DOCKED: ATOM     10  N   UNL     1      26.829 -13.665  -2.019 -0.22 -0.00    +0.000 N 
DOCKED: ATOM     11  H   UNL     1      26.926 -12.789  -2.459 -0.00 -0.00    +0.000 HD
DOCKED: BRANCH  10  12
DOCKED: ATOM     12  C   UNL     1      27.166 -13.763  -0.624 -0.21 -0.00    +0.000 A 
DOCKED: ATOM     13  C   UNL     1      28.322 -14.435  -0.181 -0.17 -0.00    +0.000 A 
DOCKED: ATOM     14  C   UNL     1      28.621 -14.502   1.183 -0.19 -0.00    +0.000 A 
DOCKED: ATOM     15  C   UNL     1      27.771 -13.906   2.118 -0.28 -0.00    +0.000 A 
DOCKED: ATOM     16  C   UNL     1      26.618 -13.244   1.691 -0.26 -0.00    +0.000 A 
DOCKED: ATOM     17  C   UNL     1      26.316 -13.174   0.327 -0.27 -0.00    +0.000 A 
DOCKED: ENDBRANCH  10  12
DOCKED: ENDBRANCH   8  10
DOCKED: ENDBRANCH   1   8
DOCKED: BRANCH   3  18
DOCKED: ATOM     18  C   UNL     1      22.458 -17.948  -0.953 -0.77 -0.00    +0.000 C 
DOCKED: ATOM     19  C   UNL     1      21.936 -19.183  -0.968 -0.80 -0.00    +0.000 C 
DOCKED: BRANCH  19  20
DOCKED: ATOM     20  C   UNL     1      20.485 -19.453  -0.907 -0.90 -0.00    +0.000 C 
DOCKED: ATOM     21  N   UNL     1      19.742 -19.373   0.317 -0.72 -0.00    +0.000 N 
DOCKED: ATOM     22  O   UNL     1      19.881 -19.737  -1.975 -1.89 -0.00    +0.000 OA
DOCKED: ATOM     23  H   UNL     1      20.180 -19.052   1.138 -0.19 -0.00    +0.000 HD
DOCKED: BRANCH  21  24
DOCKED: ATOM     24  O   UNL     1      18.437 -19.739   0.346 -0.74 -0.00    +0.000 OA
DOCKED: ATOM     25  H   UNL     1      18.098 -19.794  -0.561 -0.38 -0.00    +0.000 HD
DOCKED: ENDBRANCH  21  24
DOCKED: ENDBRANCH  19  20
DOCKED: ENDBRANCH   3  18
DOCKED: TORSDOF 6
DOCKED: TER
DOCKED: ENDMDL
________________________________________________________________________________


	BEGINNING GENETIC ALGORITHM DOCKING 39 of 100
Run: 39 Seed: 964263056 426119563 [ Run 39 of 100 GA/GALS ]
Beginning LAMARCKIAN GENETIC ALGORITHM (LGA), with a maximum of 2500000 energy evaluations.

Final-Value: -15.832


	FINAL GENETIC ALGORITHM DOCKED STATE
	_______________________________________________


Detailed state:  trans 24.764 -15.179 -1.208 quatxyzw 0.397319 -0.752060 -0.390119 -0.352634 center 0.293 0.181 0.279 ntor 6 -6.5285 166.9040 111.8237 -91.2234 79.4781 154.6960
State:	 24.764 -15.179  -1.208   0.425 -0.804 -0.417 -138.703     -6.53  166.90  111.82  -91.22   79.48  154.70

DOCKED: MODEL       39
DOCKED: USER    Run = 39
DOCKED: USER    DPF = ligand_dock.biased.dpf
DOCKED: USER  
DOCKED: USER    Estimated Free Energy of Binding    =  -12.62 kcal/mol  [=(1)+(2)+(3)-(4)]
DOCKED: USER    Estimated Inhibition Constant, Ki   =  556.96 pM (picomolar)  [Temperature = 298.15 K]
DOCKED: USER    
DOCKED: USER    (1) Final Intermolecular Energy     =  -14.41 kcal/mol
DOCKED: USER        vdW + Hbond + desolv Energy     =  -14.41 kcal/mol
DOCKED: USER        Electrostatic Energy            =   +0.00 kcal/mol
DOCKED: USER    (2) Final Total Internal Energy     =   -1.42 kcal/mol
DOCKED: USER    (3) Torsional Free Energy           =   +1.79 kcal/mol
DOCKED: USER    (4) Unbound System's Energy  [=(2)] =   -1.42 kcal/mol
DOCKED: USER    
DOCKED: USER    
DOCKED: USER    NEWDPF move ligand.pdbqt
DOCKED: USER    NEWDPF about 0.293000 0.181000 0.279000
DOCKED: USER    NEWDPF tran0 24.763751 -15.179114 -1.207735
DOCKED: USER    NEWDPF quaternion0 0.397319 -0.752060 -0.390119 -0.352634
DOCKED: USER    NEWDPF axisangle0 0.424595 -0.803688 -0.416900 -138.702925
DOCKED: USER    NEWDPF quat0 0.424595 -0.803688 -0.416900 -138.702925
DOCKED: USER    NEWDPF dihe0 -6.53 166.90 111.82 -91.22 79.48 154.70 
DOCKED: USER  keepresnum = 1 
DOCKED: USER  
DOCKED: REMARK  Name = 
DOCKED: REMARK  6 active torsions:
DOCKED: REMARK  status: ('A' for Active; 'I' for Inactive)
DOCKED: REMARK    1  A    between atoms: S_2  and  N_3
DOCKED: REMARK    2  A    between atoms: S_2  and  C_10
DOCKED: REMARK    3  A    between atoms: N_3  and  C_4
DOCKED: REMARK    4  A    between atoms: C_12  and  C_13
DOCKED: REMARK    5  A    between atoms: C_14  and  C_15
DOCKED: REMARK    6  A    between atoms: N_16  and  O_17
DOCKED: REMARK                            x       y       z     vdW  Elec       q    Type
DOCKED: REMARK                         _______ _______ _______ _____ _____    ______ ____
DOCKED: USER                              x       y       z     vdW  Elec       q    Type
DOCKED: USER                           _______ _______ _______ _____ _____    ______ ____
DOCKED: ROOT
DOCKED: ATOM      1  C   UNL     1      26.905 -15.477  -0.111 -0.29 -0.00    +0.000 A 
DOCKED: ATOM      2  C   UNL     1      25.546 -15.736  -0.330 +0.01 -0.00    +0.000 A 
DOCKED: ATOM      3  C   UNL     1      25.137 -16.876  -1.045 -0.56 -0.00    +0.000 A 
DOCKED: ATOM      4  C   UNL     1      26.120 -17.775  -1.508 -0.22 -0.00    +0.000 A 
DOCKED: ATOM      5  C   UNL     1      27.475 -17.521  -1.280 -0.26 -0.00    +0.000 A 
DOCKED: ATOM      6  C   UNL     1      27.868 -16.375  -0.587 -0.32 -0.00    +0.000 A 
DOCKED: ENDROOT
DOCKED: BRANCH   1   8
DOCKED: ATOM      7  O   UNL     1      26.196 -13.213   1.155 -0.41 -0.00    +0.000 OA
DOCKED: ATOM      8  S   UNL     1      27.396 -14.025   0.756 -0.36 -0.00    +0.000 S 
DOCKED: ATOM      9  O   UNL     1      28.270 -13.198  -0.143 -0.12 -0.00    +0.000 OA
DOCKED: BRANCH   8  10
DOCKED: ATOM     10  N   UNL     1      28.288 -14.455   2.183 -0.28 -0.00    +0.000 N 
DOCKED: ATOM     11  H   UNL     1      28.884 -15.237   2.137 -1.77 -0.00    +0.000 HD
DOCKED: BRANCH  10  12
DOCKED: ATOM     12  C   UNL     1      28.208 -13.737   3.427 -0.34 -0.00    +0.000 A 
DOCKED: ATOM     13  C   UNL     1      28.502 -14.349   4.662 -0.49 -0.00    +0.000 A 
DOCKED: ATOM     14  C   UNL     1      28.420 -13.617   5.850 -0.35 -0.00    +0.000 A 
DOCKED: ATOM     15  C   UNL     1      28.042 -12.273   5.822 -0.37 +0.00    +0.000 A 
DOCKED: ATOM     16  C   UNL     1      27.739 -11.658   4.604 -0.31 +0.00    +0.000 A 
DOCKED: ATOM     17  C   UNL     1      27.820 -12.387   3.413 -0.27 -0.00    +0.000 A 
DOCKED: ENDBRANCH  10  12
DOCKED: ENDBRANCH   8  10
DOCKED: ENDBRANCH   1   8
DOCKED: BRANCH   3  18
DOCKED: ATOM     18  C   UNL     1      23.685 -17.100  -1.251 -0.65 -0.00    +0.000 C 
DOCKED: ATOM     19  C   UNL     1      23.038 -18.203  -0.844 -0.82 -0.00    +0.000 C 
DOCKED: BRANCH  19  20
DOCKED: ATOM     20  C   UNL     1      21.593 -18.422  -1.058 -0.76 -0.00    +0.000 C 
DOCKED: ATOM     21  N   UNL     1      21.077 -19.635  -1.622 -0.70 -0.00    +0.000 N 
DOCKED: ATOM     22  O   UNL     1      20.790 -17.517  -0.707 -2.10 +0.00    +0.000 OA
DOCKED: ATOM     23  H   UNL     1      21.684 -20.389  -1.804 -0.42 -0.00    +0.000 HD
DOCKED: BRANCH  21  24
DOCKED: ATOM     24  O   UNL     1      19.756 -19.746  -1.905 -1.80 -0.00    +0.000 OA
DOCKED: ATOM     25  H   UNL     1      19.289 -18.964  -1.573 -0.44 -0.00    +0.000 HD
DOCKED: ENDBRANCH  21  24
DOCKED: ENDBRANCH  19  20
DOCKED: ENDBRANCH   3  18
DOCKED: TORSDOF 6
DOCKED: TER
DOCKED: ENDMDL
________________________________________________________________________________


	BEGINNING GENETIC ALGORITHM DOCKING 40 of 100
Run: 40 Seed: 1452255630 1964340320 [ Run 40 of 100 GA/GALS ]
Beginning LAMARCKIAN GENETIC ALGORITHM (LGA), with a maximum of 2500000 energy evaluations.

Final-Value: -15.004


	FINAL GENETIC ALGORITHM DOCKED STATE
	_______________________________________________


Detailed state:  trans 24.302 -17.897 -2.971 quatxyzw -0.214408 0.818425 -0.257269 0.466929 center 0.293 0.181 0.279 ntor 6 28.8029 -17.1814 32.3362 24.4128 125.4337 -179.8006
State:	 24.302 -17.897  -2.971  -0.242  0.926 -0.291 124.330     28.80  -17.18   32.34   24.41  125.43 -179.80

DOCKED: MODEL       40
DOCKED: USER    Run = 40
DOCKED: USER    DPF = ligand_dock.biased.dpf
DOCKED: USER  
DOCKED: USER    Estimated Free Energy of Binding    =  -11.68 kcal/mol  [=(1)+(2)+(3)-(4)]
DOCKED: USER    Estimated Inhibition Constant, Ki   =    2.75 nM (nanomolar)  [Temperature = 298.15 K]
DOCKED: USER    
DOCKED: USER    (1) Final Intermolecular Energy     =  -13.47 kcal/mol
DOCKED: USER        vdW + Hbond + desolv Energy     =  -13.47 kcal/mol
DOCKED: USER        Electrostatic Energy            =   +0.00 kcal/mol
DOCKED: USER    (2) Final Total Internal Energy     =   -1.54 kcal/mol
DOCKED: USER    (3) Torsional Free Energy           =   +1.79 kcal/mol
DOCKED: USER    (4) Unbound System's Energy  [=(2)] =   -1.54 kcal/mol
DOCKED: USER    
DOCKED: USER    
DOCKED: USER    NEWDPF move ligand.pdbqt
DOCKED: USER    NEWDPF about 0.293000 0.181000 0.279000
DOCKED: USER    NEWDPF tran0 24.301533 -17.896625 -2.970710
DOCKED: USER    NEWDPF quaternion0 -0.214408 0.818425 -0.257269 0.466929
DOCKED: USER    NEWDPF axisangle0 -0.242462 0.925511 -0.290931 124.329709
DOCKED: USER    NEWDPF quat0 -0.242462 0.925511 -0.290931 124.329709
DOCKED: USER    NEWDPF dihe0 28.80 -17.18 32.34 24.41 125.43 -179.80 
DOCKED: USER  keepresnum = 1 
DOCKED: USER  
DOCKED: REMARK  Name = 
DOCKED: REMARK  6 active torsions:
DOCKED: REMARK  status: ('A' for Active; 'I' for Inactive)
DOCKED: REMARK    1  A    between atoms: S_2  and  N_3
DOCKED: REMARK    2  A    between atoms: S_2  and  C_10
DOCKED: REMARK    3  A    between atoms: N_3  and  C_4
DOCKED: REMARK    4  A    between atoms: C_12  and  C_13
DOCKED: REMARK    5  A    between atoms: C_14  and  C_15
DOCKED: REMARK    6  A    between atoms: N_16  and  O_17
DOCKED: REMARK                            x       y       z     vdW  Elec       q    Type
DOCKED: REMARK                         _______ _______ _______ _____ _____    ______ ____
DOCKED: USER                              x       y       z     vdW  Elec       q    Type
DOCKED: USER                           _______ _______ _______ _____ _____    ______ ____
DOCKED: ROOT
DOCKED: ATOM      1  C   UNL     1      25.975 -16.255  -2.353 -0.46 -0.00    +0.000 A 
DOCKED: ATOM      2  C   UNL     1      24.764 -16.946  -2.213 -0.48 -0.00    +0.000 A 
DOCKED: ATOM      3  C   UNL     1      24.624 -17.967  -1.257 -0.63 -0.00    +0.000 A 
DOCKED: ATOM      4  C   UNL     1      25.715 -18.262  -0.414 -0.60 -0.00    +0.000 A 
DOCKED: ATOM      5  C   UNL     1      26.920 -17.565  -0.547 -0.48 -0.00    +0.000 A 
DOCKED: ATOM      6  C   UNL     1      27.052 -16.568  -1.515 -0.38 -0.00    +0.000 A 
DOCKED: ENDROOT
DOCKED: BRANCH   1   8
DOCKED: ATOM      7  O   UNL     1      24.798 -14.419  -3.926 -1.01 -0.00    +0.000 OA
DOCKED: ATOM      8  S   UNL     1      26.139 -15.004  -3.581 -0.64 -0.00    +0.000 S 
DOCKED: ATOM      9  O   UNL     1      26.740 -15.614  -4.814 -0.94 -0.00    +0.000 OA
DOCKED: BRANCH   8  10
DOCKED: ATOM     10  N   UNL     1      27.178 -13.737  -3.006 -0.21 -0.00    +0.000 N 
DOCKED: ATOM     11  H   UNL     1      27.690 -13.221  -3.671 +0.00 -0.00    +0.000 HD
DOCKED: BRANCH  10  12
DOCKED: ATOM     12  C   UNL     1      27.337 -13.396  -1.617 -0.16 -0.00    +0.000 A 
DOCKED: ATOM     13  C   UNL     1      26.306 -13.596  -0.677 -0.14 -0.00    +0.000 A 
DOCKED: ATOM     14  C   UNL     1      26.499 -13.260   0.666 -0.29 -0.00    +0.000 A 
DOCKED: ATOM     15  C   UNL     1      27.716 -12.718   1.086 -0.18 -0.00    +0.000 A 
DOCKED: ATOM     16  C   UNL     1      28.742 -12.507   0.161 -0.07 -0.00    +0.000 A 
DOCKED: ATOM     17  C   UNL     1      28.553 -12.842  -1.183 -0.07 -0.00    +0.000 A 
DOCKED: ENDBRANCH  10  12
DOCKED: ENDBRANCH   8  10
DOCKED: ENDBRANCH   1   8
DOCKED: BRANCH   3  18
DOCKED: ATOM     18  C   UNL     1      23.321 -18.668  -1.154 -0.81 -0.00    +0.000 C 
DOCKED: ATOM     19  C   UNL     1      22.235 -18.138  -0.572 -0.84 -0.00    +0.000 C 
DOCKED: BRANCH  19  20
DOCKED: ATOM     20  C   UNL     1      20.942 -18.844  -0.469 -0.81 -0.00    +0.000 C 
DOCKED: ATOM     21  N   UNL     1      20.836 -20.178   0.045 -0.64 -0.00    +0.000 N 
DOCKED: ATOM     22  O   UNL     1      19.896 -18.237  -0.822 -1.87 -0.00    +0.000 OA
DOCKED: ATOM     23  H   UNL     1      21.630 -20.625   0.420 -0.60 -0.00    +0.000 HD
DOCKED: BRANCH  21  24
DOCKED: ATOM     24  O   UNL     1      19.647 -20.827   0.015 -0.76 -0.00    +0.000 OA
DOCKED: ATOM     25  H   UNL     1      19.121 -20.502  -0.733 -0.41 -0.00    +0.000 HD
DOCKED: ENDBRANCH  21  24
DOCKED: ENDBRANCH  19  20
DOCKED: ENDBRANCH   3  18
DOCKED: TORSDOF 6
DOCKED: TER
DOCKED: ENDMDL
________________________________________________________________________________


	BEGINNING GENETIC ALGORITHM DOCKING 41 of 100
Run: 41 Seed: 796697296 1446070541 [ Run 41 of 100 GA/GALS ]
Beginning LAMARCKIAN GENETIC ALGORITHM (LGA), with a maximum of 2500000 energy evaluations.

Final-Value: -15.412


	FINAL GENETIC ALGORITHM DOCKED STATE
	_______________________________________________


Detailed state:  trans 24.166 -17.755 -2.661 quatxyzw -0.184214 0.736550 -0.260606 0.596359 center 0.293 0.181 0.279 ntor 6 -10.5538 138.0736 -54.0179 171.7272 -150.4982 -171.0544
State:	 24.166 -17.755  -2.661  -0.229  0.918 -0.325 106.781    -10.55  138.07  -54.02  171.73 -150.50 -171.05

DOCKED: MODEL       41
DOCKED: USER    Run = 41
DOCKED: USER    DPF = ligand_dock.biased.dpf
DOCKED: USER  
DOCKED: USER    Estimated Free Energy of Binding    =  -12.07 kcal/mol  [=(1)+(2)+(3)-(4)]
DOCKED: USER    Estimated Inhibition Constant, Ki   =    1.43 nM (nanomolar)  [Temperature = 298.15 K]
DOCKED: USER    
DOCKED: USER    (1) Final Intermolecular Energy     =  -13.86 kcal/mol
DOCKED: USER        vdW + Hbond + desolv Energy     =  -13.86 kcal/mol
DOCKED: USER        Electrostatic Energy            =   +0.00 kcal/mol
DOCKED: USER    (2) Final Total Internal Energy     =   -1.56 kcal/mol
DOCKED: USER    (3) Torsional Free Energy           =   +1.79 kcal/mol
DOCKED: USER    (4) Unbound System's Energy  [=(2)] =   -1.56 kcal/mol
DOCKED: USER    
DOCKED: USER    
DOCKED: USER    NEWDPF move ligand.pdbqt
DOCKED: USER    NEWDPF about 0.293000 0.181000 0.279000
DOCKED: USER    NEWDPF tran0 24.166085 -17.754809 -2.660571
DOCKED: USER    NEWDPF quaternion0 -0.184214 0.736550 -0.260606 0.596359
DOCKED: USER    NEWDPF axisangle0 -0.229488 0.917570 -0.324654 106.780918
DOCKED: USER    NEWDPF quat0 -0.229488 0.917570 -0.324654 106.780918
DOCKED: USER    NEWDPF dihe0 -10.55 138.07 -54.02 171.73 -150.50 -171.05 
DOCKED: USER  keepresnum = 1 
DOCKED: USER  
DOCKED: REMARK  Name = 
DOCKED: REMARK  6 active torsions:
DOCKED: REMARK  status: ('A' for Active; 'I' for Inactive)
DOCKED: REMARK    1  A    between atoms: S_2  and  N_3
DOCKED: REMARK    2  A    between atoms: S_2  and  C_10
DOCKED: REMARK    3  A    between atoms: N_3  and  C_4
DOCKED: REMARK    4  A    between atoms: C_12  and  C_13
DOCKED: REMARK    5  A    between atoms: C_14  and  C_15
DOCKED: REMARK    6  A    between atoms: N_16  and  O_17
DOCKED: REMARK                            x       y       z     vdW  Elec       q    Type
DOCKED: REMARK                         _______ _______ _______ _____ _____    ______ ____
DOCKED: USER                              x       y       z     vdW  Elec       q    Type
DOCKED: USER                           _______ _______ _______ _____ _____    ______ ____
DOCKED: ROOT
DOCKED: ATOM      1  C   UNL     1      26.039 -16.218  -2.741 -0.41 -0.00    +0.000 A 
DOCKED: ATOM      2  C   UNL     1      24.873 -16.769  -2.192 -0.49 -0.00    +0.000 A 
DOCKED: ATOM      3  C   UNL     1      24.940 -17.651  -1.100 -0.63 -0.00    +0.000 A 
DOCKED: ATOM      4  C   UNL     1      26.200 -17.945  -0.541 -0.56 -0.00    +0.000 A 
DOCKED: ATOM      5  C   UNL     1      27.361 -17.386  -1.082 -0.40 -0.00    +0.000 A 
DOCKED: ATOM      6  C   UNL     1      27.283 -16.528  -2.180 -0.30 -0.00    +0.000 A 
DOCKED: ENDROOT
DOCKED: BRANCH   1   8
DOCKED: ATOM      7  O   UNL     1      24.677 -14.322  -4.076 -1.05 -0.00    +0.000 OA
DOCKED: ATOM      8  S   UNL     1      25.935 -15.142  -4.132 -0.73 -0.00    +0.000 S 
DOCKED: ATOM      9  O   UNL     1      25.923 -15.972  -5.383 -1.12 +0.00    +0.000 OA
DOCKED: BRANCH   8  10
DOCKED: ATOM     10  N   UNL     1      27.305 -14.076  -4.166 -0.27 -0.00    +0.000 N 
DOCKED: ATOM     11  H   UNL     1      27.436 -13.466  -3.404 +0.00 -0.00    +0.000 HD
DOCKED: BRANCH  10  12
DOCKED: ATOM     12  C   UNL     1      28.261 -14.031  -5.241 -0.26 -0.00    +0.000 A 
DOCKED: ATOM     13  C   UNL     1      28.583 -12.829  -5.902 -0.18 -0.00    +0.000 A 
DOCKED: ATOM     14  C   UNL     1      29.523 -12.823  -6.937 -0.17 -0.00    +0.000 A 
DOCKED: ATOM     15  C   UNL     1      30.147 -14.010  -7.326 -0.22 -0.00    +0.000 A 
DOCKED: ATOM     16  C   UNL     1      29.829 -15.209  -6.683 -0.30 -0.00    +0.000 A 
DOCKED: ATOM     17  C   UNL     1      28.890 -15.220  -5.647 -0.34 -0.00    +0.000 A 
DOCKED: ENDBRANCH  10  12
DOCKED: ENDBRANCH   8  10
DOCKED: ENDBRANCH   1   8
DOCKED: BRANCH   3  18
DOCKED: ATOM     18  C   UNL     1      23.675 -18.208  -0.561 -0.81 -0.00    +0.000 C 
DOCKED: ATOM     19  C   UNL     1      22.480 -18.045  -1.148 -0.69 -0.00    +0.000 C 
DOCKED: BRANCH  19  20
DOCKED: ATOM     20  C   UNL     1      21.224 -18.598  -0.603 -0.83 -0.00    +0.000 C 
DOCKED: ATOM     21  N   UNL     1      21.172 -19.865   0.066 -0.60 -0.00    +0.000 N 
DOCKED: ATOM     22  O   UNL     1      20.171 -17.916  -0.711 -2.12 -0.00    +0.000 OA
DOCKED: ATOM     23  H   UNL     1      22.003 -20.360   0.247 -0.57 -0.00    +0.000 HD
DOCKED: BRANCH  21  24
DOCKED: ATOM     24  O   UNL     1      19.979 -20.384   0.448 -0.79 -0.00    +0.000 OA
DOCKED: ATOM     25  H   UNL     1      19.288 -19.711   0.349 -0.02 -0.00    +0.000 HD
DOCKED: ENDBRANCH  21  24
DOCKED: ENDBRANCH  19  20
DOCKED: ENDBRANCH   3  18
DOCKED: TORSDOF 6
DOCKED: TER
DOCKED: ENDMDL
________________________________________________________________________________


	BEGINNING GENETIC ALGORITHM DOCKING 42 of 100
Run: 42 Seed: 1100741314 2038974135 [ Run 42 of 100 GA/GALS ]
Beginning LAMARCKIAN GENETIC ALGORITHM (LGA), with a maximum of 2500000 energy evaluations.

Final-Value: -15.873


	FINAL GENETIC ALGORITHM DOCKED STATE
	_______________________________________________


Detailed state:  trans 24.213 -17.907 -2.665 quatxyzw 0.203806 -0.752444 0.308360 -0.545166 center 0.293 0.181 0.279 ntor 6 12.3756 127.6897 -41.9977 149.5043 -170.6518 -150.7228
State:	 24.213 -17.907  -2.665   0.243 -0.898  0.368 -113.928     12.38  127.69  -42.00  149.50 -170.65 -150.72

DOCKED: MODEL       42
DOCKED: USER    Run = 42
DOCKED: USER    DPF = ligand_dock.biased.dpf
DOCKED: USER  
DOCKED: USER    Estimated Free Energy of Binding    =  -12.50 kcal/mol  [=(1)+(2)+(3)-(4)]
DOCKED: USER    Estimated Inhibition Constant, Ki   =  691.64 pM (picomolar)  [Temperature = 298.15 K]
DOCKED: USER    
DOCKED: USER    (1) Final Intermolecular Energy     =  -14.29 kcal/mol
DOCKED: USER        vdW + Hbond + desolv Energy     =  -14.29 kcal/mol
DOCKED: USER        Electrostatic Energy            =   +0.00 kcal/mol
DOCKED: USER    (2) Final Total Internal Energy     =   -1.59 kcal/mol
DOCKED: USER    (3) Torsional Free Energy           =   +1.79 kcal/mol
DOCKED: USER    (4) Unbound System's Energy  [=(2)] =   -1.59 kcal/mol
DOCKED: USER    
DOCKED: USER    
DOCKED: USER    NEWDPF move ligand.pdbqt
DOCKED: USER    NEWDPF about 0.293000 0.181000 0.279000
DOCKED: USER    NEWDPF tran0 24.213152 -17.907112 -2.664890
DOCKED: USER    NEWDPF quaternion0 0.203806 -0.752444 0.308360 -0.545166
DOCKED: USER    NEWDPF axisangle0 0.243110 -0.897552 0.367828 -113.928001
DOCKED: USER    NEWDPF quat0 0.243110 -0.897552 0.367828 -113.928001
DOCKED: USER    NEWDPF dihe0 12.38 127.69 -42.00 149.50 -170.65 -150.72 
DOCKED: USER  keepresnum = 1 
DOCKED: USER  
DOCKED: REMARK  Name = 
DOCKED: REMARK  6 active torsions:
DOCKED: REMARK  status: ('A' for Active; 'I' for Inactive)
DOCKED: REMARK    1  A    between atoms: S_2  and  N_3
DOCKED: REMARK    2  A    between atoms: S_2  and  C_10
DOCKED: REMARK    3  A    between atoms: N_3  and  C_4
DOCKED: REMARK    4  A    between atoms: C_12  and  C_13
DOCKED: REMARK    5  A    between atoms: C_14  and  C_15
DOCKED: REMARK    6  A    between atoms: N_16  and  O_17
DOCKED: REMARK                            x       y       z     vdW  Elec       q    Type
DOCKED: REMARK                         _______ _______ _______ _____ _____    ______ ____
DOCKED: USER                              x       y       z     vdW  Elec       q    Type
DOCKED: USER                           _______ _______ _______ _____ _____    ______ ____
DOCKED: ROOT
DOCKED: ATOM      1  C   UNL     1      25.912 -16.179  -2.595 -0.46 -0.00    +0.000 A 
DOCKED: ATOM      2  C   UNL     1      24.760 -16.844  -2.153 -0.49 -0.00    +0.000 A 
DOCKED: ATOM      3  C   UNL     1      24.808 -17.698  -1.038 -0.64 -0.00    +0.000 A 
DOCKED: ATOM      4  C   UNL     1      26.028 -17.848  -0.347 -0.58 -0.00    +0.000 A 
DOCKED: ATOM      5  C   UNL     1      27.173 -17.175  -0.783 -0.44 -0.00    +0.000 A 
DOCKED: ATOM      6  C   UNL     1      27.118 -16.346  -1.905 -0.35 -0.00    +0.000 A 
DOCKED: ENDROOT
DOCKED: BRANCH   1   8
DOCKED: ATOM      7  O   UNL     1      24.756 -14.109  -3.865 -1.06 -0.00    +0.000 OA
DOCKED: ATOM      8  S   UNL     1      25.838 -15.141  -4.016 -0.73 -0.00    +0.000 S 
DOCKED: ATOM      9  O   UNL     1      25.541 -15.990  -5.219 -1.06 -0.00    +0.000 OA
DOCKED: BRANCH   8  10
DOCKED: ATOM     10  N   UNL     1      27.360 -14.337  -4.247 -0.30 -0.00    +0.000 N 
DOCKED: ATOM     11  H   UNL     1      27.531 -13.514  -3.733 +0.00 -0.00    +0.000 HD
DOCKED: BRANCH  10  12
DOCKED: ATOM     12  C   UNL     1      28.385 -14.799  -5.145 -0.32 -0.00    +0.000 A 
DOCKED: ATOM     13  C   UNL     1      28.789 -14.047  -6.266 -0.30 -0.00    +0.000 A 
DOCKED: ATOM     14  C   UNL     1      29.795 -14.526  -7.111 -0.28 -0.00    +0.000 A 
DOCKED: ATOM     15  C   UNL     1      30.403 -15.756  -6.853 -0.28 -0.00    +0.000 A 
DOCKED: ATOM     16  C   UNL     1      30.005 -16.513  -5.749 -0.30 -0.00    +0.000 A 
DOCKED: ATOM     17  C   UNL     1      29.000 -16.038  -4.900 -0.28 -0.00    +0.000 A 
DOCKED: ENDBRANCH  10  12
DOCKED: ENDBRANCH   8  10
DOCKED: ENDBRANCH   1   8
DOCKED: BRANCH   3  18
DOCKED: ATOM     18  C   UNL     1      23.560 -18.381  -0.614 -0.81 -0.00    +0.000 C 
DOCKED: ATOM     19  C   UNL     1      22.343 -18.060  -1.078 -0.74 -0.00    +0.000 C 
DOCKED: BRANCH  19  20
DOCKED: ATOM     20  C   UNL     1      21.104 -18.740  -0.649 -0.85 -0.00    +0.000 C 
DOCKED: ATOM     21  N   UNL     1      21.106 -20.070  -0.112 -0.60 -0.00    +0.000 N 
DOCKED: ATOM     22  O   UNL     1      20.015 -18.114  -0.735 -1.98 -0.00    +0.000 OA
DOCKED: ATOM     23  H   UNL     1      21.960 -20.530   0.057 -0.58 -0.00    +0.000 HD
DOCKED: BRANCH  21  24
DOCKED: ATOM     24  O   UNL     1      19.936 -20.695   0.162 -0.79 -0.00    +0.000 OA
DOCKED: ATOM     25  H   UNL     1      19.204 -20.198  -0.236 -0.09 -0.00    +0.000 HD
DOCKED: ENDBRANCH  21  24
DOCKED: ENDBRANCH  19  20
DOCKED: ENDBRANCH   3  18
DOCKED: TORSDOF 6
DOCKED: TER
DOCKED: ENDMDL
________________________________________________________________________________


	BEGINNING GENETIC ALGORITHM DOCKING 43 of 100
Run: 43 Seed: 1776939594 520567612 [ Run 43 of 100 GA/GALS ]
Beginning LAMARCKIAN GENETIC ALGORITHM (LGA), with a maximum of 2500000 energy evaluations.

Final-Value: -15.062


	FINAL GENETIC ALGORITHM DOCKED STATE
	_______________________________________________


Detailed state:  trans 24.423 -17.661 -2.651 quatxyzw 0.201669 -0.754637 0.260887 -0.567266 center 0.293 0.181 0.279 ntor 6 3.4885 179.4764 -37.8386 -88.5546 -163.8263 169.1533
State:	 24.423 -17.661  -2.651   0.245 -0.916  0.317 -110.880      3.49  179.48  -37.84  -88.55 -163.83  169.15

DOCKED: MODEL       43
DOCKED: USER    Run = 43
DOCKED: USER    DPF = ligand_dock.biased.dpf
DOCKED: USER  
DOCKED: USER    Estimated Free Energy of Binding    =  -11.86 kcal/mol  [=(1)+(2)+(3)-(4)]
DOCKED: USER    Estimated Inhibition Constant, Ki   =    2.02 nM (nanomolar)  [Temperature = 298.15 K]
DOCKED: USER    
DOCKED: USER    (1) Final Intermolecular Energy     =  -13.65 kcal/mol
DOCKED: USER        vdW + Hbond + desolv Energy     =  -13.65 kcal/mol
DOCKED: USER        Electrostatic Energy            =   +0.00 kcal/mol
DOCKED: USER    (2) Final Total Internal Energy     =   -1.41 kcal/mol
DOCKED: USER    (3) Torsional Free Energy           =   +1.79 kcal/mol
DOCKED: USER    (4) Unbound System's Energy  [=(2)] =   -1.41 kcal/mol
DOCKED: USER    
DOCKED: USER    
DOCKED: USER    NEWDPF move ligand.pdbqt
DOCKED: USER    NEWDPF about 0.293000 0.181000 0.279000
DOCKED: USER    NEWDPF tran0 24.422544 -17.660600 -2.651015
DOCKED: USER    NEWDPF quaternion0 0.201669 -0.754637 0.260887 -0.567266
DOCKED: USER    NEWDPF axisangle0 0.244882 -0.916339 0.316789 -110.880446
DOCKED: USER    NEWDPF quat0 0.244882 -0.916339 0.316789 -110.880446
DOCKED: USER    NEWDPF dihe0 3.49 179.48 -37.84 -88.55 -163.83 169.15 
DOCKED: USER  keepresnum = 1 
DOCKED: USER  
DOCKED: REMARK  Name = 
DOCKED: REMARK  6 active torsions:
DOCKED: REMARK  status: ('A' for Active; 'I' for Inactive)
DOCKED: REMARK    1  A    between atoms: S_2  and  N_3
DOCKED: REMARK    2  A    between atoms: S_2  and  C_10
DOCKED: REMARK    3  A    between atoms: N_3  and  C_4
DOCKED: REMARK    4  A    between atoms: C_12  and  C_13
DOCKED: REMARK    5  A    between atoms: C_14  and  C_15
DOCKED: REMARK    6  A    between atoms: N_16  and  O_17
DOCKED: REMARK                            x       y       z     vdW  Elec       q    Type
DOCKED: REMARK                         _______ _______ _______ _____ _____    ______ ____
DOCKED: USER                              x       y       z     vdW  Elec       q    Type
DOCKED: USER                           _______ _______ _______ _____ _____    ______ ____
DOCKED: ROOT
DOCKED: ATOM      1  C   UNL     1      26.241 -16.060  -2.565 -0.43 -0.00    +0.000 A 
DOCKED: ATOM      2  C   UNL     1      25.067 -16.672  -2.105 -0.53 -0.00    +0.000 A 
DOCKED: ATOM      3  C   UNL     1      25.106 -17.596  -1.047 -0.62 -0.00    +0.000 A 
DOCKED: ATOM      4  C   UNL     1      26.343 -17.871  -0.430 -0.55 -0.00    +0.000 A 
DOCKED: ATOM      5  C   UNL     1      27.512 -17.251  -0.883 -0.40 -0.00    +0.000 A 
DOCKED: ATOM      6  C   UNL     1      27.463 -16.352  -1.948 -0.32 -0.00    +0.000 A 
DOCKED: ENDROOT
DOCKED: BRANCH   1   8
DOCKED: ATOM      7  O   UNL     1      24.757 -14.517  -4.193 -1.03 -0.00    +0.000 OA
DOCKED: ATOM      8  S   UNL     1      26.175 -14.932  -3.916 -0.66 -0.00    +0.000 S 
DOCKED: ATOM      9  O   UNL     1      26.735 -15.606  -5.136 -1.11 +0.00    +0.000 OA
DOCKED: BRANCH   8  10
DOCKED: ATOM     10  N   UNL     1      27.119 -13.518  -3.560 -0.23 -0.00    +0.000 N 
DOCKED: ATOM     11  H   UNL     1      27.970 -13.640  -3.080 +0.01 -0.00    +0.000 HD
DOCKED: BRANCH  10  12
DOCKED: ATOM     12  C   UNL     1      26.732 -12.181  -3.925 -0.21 -0.00    +0.000 A 
DOCKED: ATOM     13  C   UNL     1      27.388 -11.047  -3.405 -0.10 -0.00    +0.000 A 
DOCKED: ATOM     14  C   UNL     1      26.989  -9.764  -3.789 -0.10 -0.00    +0.000 A 
DOCKED: ATOM     15  C   UNL     1      25.933  -9.595  -4.688 -0.18 -0.00    +0.000 A 
DOCKED: ATOM     16  C   UNL     1      25.271 -10.712  -5.202 -0.33 -0.00    +0.000 A 
DOCKED: ATOM     17  C   UNL     1      25.667 -11.998  -4.822 -0.30 -0.00    +0.000 A 
DOCKED: ENDBRANCH  10  12
DOCKED: ENDBRANCH   8  10
DOCKED: ENDBRANCH   1   8
DOCKED: BRANCH   3  18
DOCKED: ATOM     18  C   UNL     1      23.834 -18.217  -0.601 -0.80 -0.00    +0.000 C 
DOCKED: ATOM     19  C   UNL     1      22.630 -17.873  -1.083 -0.74 -0.00    +0.000 C 
DOCKED: BRANCH  19  20
DOCKED: ATOM     20  C   UNL     1      21.367 -18.492  -0.632 -0.84 -0.00    +0.000 C 
DOCKED: ATOM     21  N   UNL     1      21.331 -19.761   0.036 -0.62 -0.00    +0.000 N 
DOCKED: ATOM     22  O   UNL     1      20.291 -17.867  -0.820 -2.21 -0.00    +0.000 OA
DOCKED: ATOM     23  H   UNL     1      22.172 -20.211   0.281 -0.54 -0.00    +0.000 HD
DOCKED: BRANCH  21  24
DOCKED: ATOM     24  O   UNL     1      20.143 -20.342   0.329 -0.80 -0.00    +0.000 OA
DOCKED: ATOM     25  H   UNL     1      19.422 -19.800  -0.027 -0.02 -0.00    +0.000 HD
DOCKED: ENDBRANCH  21  24
DOCKED: ENDBRANCH  19  20
DOCKED: ENDBRANCH   3  18
DOCKED: TORSDOF 6
DOCKED: TER
DOCKED: ENDMDL
________________________________________________________________________________


	BEGINNING GENETIC ALGORITHM DOCKING 44 of 100
Run: 44 Seed: 1163426051 809126098 [ Run 44 of 100 GA/GALS ]
Beginning LAMARCKIAN GENETIC ALGORITHM (LGA), with a maximum of 2500000 energy evaluations.

Final-Value: -15.014


	FINAL GENETIC ALGORITHM DOCKED STATE
	_______________________________________________


Detailed state:  trans 24.351 -17.853 -2.712 quatxyzw 0.214505 -0.781553 0.228827 -0.539260 center 0.293 0.181 0.279 ntor 6 76.3295 -3.3313 -23.8569 21.1870 179.9441 167.1825
State:	 24.351 -17.853  -2.712   0.255 -0.928  0.272 -114.733     76.33   -3.33  -23.86   21.19  179.94  167.18

DOCKED: MODEL       44
DOCKED: USER    Run = 44
DOCKED: USER    DPF = ligand_dock.biased.dpf
DOCKED: USER  
DOCKED: USER    Estimated Free Energy of Binding    =  -11.95 kcal/mol  [=(1)+(2)+(3)-(4)]
DOCKED: USER    Estimated Inhibition Constant, Ki   =    1.73 nM (nanomolar)  [Temperature = 298.15 K]
DOCKED: USER    
DOCKED: USER    (1) Final Intermolecular Energy     =  -13.74 kcal/mol
DOCKED: USER        vdW + Hbond + desolv Energy     =  -13.74 kcal/mol
DOCKED: USER        Electrostatic Energy            =   +0.00 kcal/mol
DOCKED: USER    (2) Final Total Internal Energy     =   -1.27 kcal/mol
DOCKED: USER    (3) Torsional Free Energy           =   +1.79 kcal/mol
DOCKED: USER    (4) Unbound System's Energy  [=(2)] =   -1.27 kcal/mol
DOCKED: USER    
DOCKED: USER    
DOCKED: USER    NEWDPF move ligand.pdbqt
DOCKED: USER    NEWDPF about 0.293000 0.181000 0.279000
DOCKED: USER    NEWDPF tran0 24.350590 -17.852808 -2.712091
DOCKED: USER    NEWDPF quaternion0 0.214505 -0.781553 0.228827 -0.539260
DOCKED: USER    NEWDPF axisangle0 0.254715 -0.928056 0.271721 -114.733500
DOCKED: USER    NEWDPF quat0 0.254715 -0.928056 0.271721 -114.733500
DOCKED: USER    NEWDPF dihe0 76.33 -3.33 -23.86 21.19 179.94 167.18 
DOCKED: USER  keepresnum = 1 
DOCKED: USER  
DOCKED: REMARK  Name = 
DOCKED: REMARK  6 active torsions:
DOCKED: REMARK  status: ('A' for Active; 'I' for Inactive)
DOCKED: REMARK    1  A    between atoms: S_2  and  N_3
DOCKED: REMARK    2  A    between atoms: S_2  and  C_10
DOCKED: REMARK    3  A    between atoms: N_3  and  C_4
DOCKED: REMARK    4  A    between atoms: C_12  and  C_13
DOCKED: REMARK    5  A    between atoms: C_14  and  C_15
DOCKED: REMARK    6  A    between atoms: N_16  and  O_17
DOCKED: REMARK                            x       y       z     vdW  Elec       q    Type
DOCKED: REMARK                         _______ _______ _______ _____ _____    ______ ____
DOCKED: USER                              x       y       z     vdW  Elec       q    Type
DOCKED: USER                           _______ _______ _______ _____ _____    ______ ____
DOCKED: ROOT
DOCKED: ATOM      1  C   UNL     1      26.179 -16.294  -2.389 -0.43 -0.00    +0.000 A 
DOCKED: ATOM      2  C   UNL     1      24.976 -16.926  -2.048 -0.53 -0.00    +0.000 A 
DOCKED: ATOM      3  C   UNL     1      24.947 -17.940  -1.075 -0.63 -0.00    +0.000 A 
DOCKED: ATOM      4  C   UNL     1      26.147 -18.287  -0.420 -0.56 -0.00    +0.000 A 
DOCKED: ATOM      5  C   UNL     1      27.344 -17.649  -0.755 -0.40 -0.00    +0.000 A 
DOCKED: ATOM      6  C   UNL     1      27.363 -16.658  -1.738 -0.35 -0.00    +0.000 A 
DOCKED: ENDROOT
DOCKED: BRANCH   1   8
DOCKED: ATOM      7  O   UNL     1      24.799 -14.626  -3.984 -0.96 -0.00    +0.000 OA
DOCKED: ATOM      8  S   UNL     1      26.198 -15.051  -3.637 -0.64 -0.00    +0.000 S 
DOCKED: ATOM      9  O   UNL     1      26.859 -15.609  -4.864 -0.95 +0.00    +0.000 OA
DOCKED: BRANCH   8  10
DOCKED: ATOM     10  N   UNL     1      27.091 -13.667  -3.086 -0.22 -0.00    +0.000 N 
DOCKED: ATOM     11  H   UNL     1      27.579 -13.136  -3.756 +0.00 -0.00    +0.000 HD
DOCKED: BRANCH  10  12
DOCKED: ATOM     12  C   UNL     1      27.160 -13.251  -1.710 -0.16 -0.00    +0.000 A 
DOCKED: ATOM     13  C   UNL     1      26.267 -13.742  -0.737 -0.18 -0.00    +0.000 A 
DOCKED: ATOM     14  C   UNL     1      26.370 -13.321   0.592 -0.29 -0.00    +0.000 A 
DOCKED: ATOM     15  C   UNL     1      27.357 -12.405   0.964 -0.20 -0.00    +0.000 A 
DOCKED: ATOM     16  C   UNL     1      28.242 -11.906   0.005 -0.08 -0.00    +0.000 A 
DOCKED: ATOM     17  C   UNL     1      28.143 -12.324  -1.325 -0.08 -0.00    +0.000 A 
DOCKED: ENDBRANCH  10  12
DOCKED: ENDBRANCH   8  10
DOCKED: ENDBRANCH   1   8
DOCKED: BRANCH   3  18
DOCKED: ATOM     18  C   UNL     1      23.647 -18.578  -0.754 -0.82 -0.00    +0.000 C 
DOCKED: ATOM     19  C   UNL     1      22.458 -18.007  -0.999 -0.77 -0.00    +0.000 C 
DOCKED: BRANCH  19  20
DOCKED: ATOM     20  C   UNL     1      21.167 -18.646  -0.672 -0.85 -0.00    +0.000 C 
DOCKED: ATOM     21  N   UNL     1      21.081 -19.985  -0.167 -0.64 -0.00    +0.000 N 
DOCKED: ATOM     22  O   UNL     1      20.111 -17.976  -0.820 -2.05 -0.00    +0.000 OA
DOCKED: ATOM     23  H   UNL     1      21.902 -20.482   0.050 -0.58 -0.00    +0.000 HD
DOCKED: BRANCH  21  24
DOCKED: ATOM     24  O   UNL     1      19.870 -20.568   0.010 -0.82 -0.00    +0.000 OA
DOCKED: ATOM     25  H   UNL     1      19.515 -20.843  -0.850 -0.54 -0.00    +0.000 HD
DOCKED: ENDBRANCH  21  24
DOCKED: ENDBRANCH  19  20
DOCKED: ENDBRANCH   3  18
DOCKED: TORSDOF 6
DOCKED: TER
DOCKED: ENDMDL
________________________________________________________________________________


	BEGINNING GENETIC ALGORITHM DOCKING 45 of 100
Run: 45 Seed: 536486429 599485595 [ Run 45 of 100 GA/GALS ]
Beginning LAMARCKIAN GENETIC ALGORITHM (LGA), with a maximum of 2500000 energy evaluations.

Final-Value: -15.380


	FINAL GENETIC ALGORITHM DOCKED STATE
	_______________________________________________


Detailed state:  trans 23.971 -17.317 -2.832 quatxyzw 0.074436 -0.799927 0.221108 -0.552890 center 0.293 0.181 0.279 ntor 6 3.8670 -70.8971 -174.5343 155.3633 -32.3005 -152.0913
State:	 23.971 -17.317  -2.832   0.089 -0.960  0.265 -112.869      3.87  -70.90 -174.53  155.36  -32.30 -152.09

DOCKED: MODEL       45
DOCKED: USER    Run = 45
DOCKED: USER    DPF = ligand_dock.biased.dpf
DOCKED: USER  
DOCKED: USER    Estimated Free Energy of Binding    =  -12.05 kcal/mol  [=(1)+(2)+(3)-(4)]
DOCKED: USER    Estimated Inhibition Constant, Ki   =    1.47 nM (nanomolar)  [Temperature = 298.15 K]
DOCKED: USER    
DOCKED: USER    (1) Final Intermolecular Energy     =  -13.84 kcal/mol
DOCKED: USER        vdW + Hbond + desolv Energy     =  -13.84 kcal/mol
DOCKED: USER        Electrostatic Energy            =   +0.00 kcal/mol
DOCKED: USER    (2) Final Total Internal Energy     =   -1.54 kcal/mol
DOCKED: USER    (3) Torsional Free Energy           =   +1.79 kcal/mol
DOCKED: USER    (4) Unbound System's Energy  [=(2)] =   -1.54 kcal/mol
DOCKED: USER    
DOCKED: USER    
DOCKED: USER    NEWDPF move ligand.pdbqt
DOCKED: USER    NEWDPF about 0.293000 0.181000 0.279000
DOCKED: USER    NEWDPF tran0 23.970701 -17.316731 -2.831890
DOCKED: USER    NEWDPF quaternion0 0.074436 -0.799927 0.221108 -0.552890
DOCKED: USER    NEWDPF axisangle0 0.089332 -0.960003 0.265355 -112.868996
DOCKED: USER    NEWDPF quat0 0.089332 -0.960003 0.265355 -112.868996
DOCKED: USER    NEWDPF dihe0 3.87 -70.90 -174.53 155.36 -32.30 -152.09 
DOCKED: USER  keepresnum = 1 
DOCKED: USER  
DOCKED: REMARK  Name = 
DOCKED: REMARK  6 active torsions:
DOCKED: REMARK  status: ('A' for Active; 'I' for Inactive)
DOCKED: REMARK    1  A    between atoms: S_2  and  N_3
DOCKED: REMARK    2  A    between atoms: S_2  and  C_10
DOCKED: REMARK    3  A    between atoms: N_3  and  C_4
DOCKED: REMARK    4  A    between atoms: C_12  and  C_13
DOCKED: REMARK    5  A    between atoms: C_14  and  C_15
DOCKED: REMARK    6  A    between atoms: N_16  and  O_17
DOCKED: REMARK                            x       y       z     vdW  Elec       q    Type
DOCKED: REMARK                         _______ _______ _______ _____ _____    ______ ____
DOCKED: USER                              x       y       z     vdW  Elec       q    Type
DOCKED: USER                           _______ _______ _______ _____ _____    ______ ____
DOCKED: ROOT
DOCKED: ATOM      1  C   UNL     1      26.108 -16.202  -2.575 -0.43 -0.00    +0.000 A 
DOCKED: ATOM      2  C   UNL     1      24.774 -16.478  -2.247 -0.42 -0.00    +0.000 A 
DOCKED: ATOM      3  C   UNL     1      24.459 -17.307  -1.156 -0.63 -0.00    +0.000 A 
DOCKED: ATOM      4  C   UNL     1      25.509 -17.830  -0.375 -0.61 -0.00    +0.000 A 
DOCKED: ATOM      5  C   UNL     1      26.839 -17.545  -0.697 -0.49 -0.00    +0.000 A 
DOCKED: ATOM      6  C   UNL     1      27.139 -16.737  -1.795 -0.36 -0.00    +0.000 A 
DOCKED: ENDROOT
DOCKED: BRANCH   1   8
DOCKED: ATOM      7  O   UNL     1      25.736 -13.885  -3.889 -0.53 -0.00    +0.000 OA
DOCKED: ATOM      8  S   UNL     1      26.481 -15.188  -3.966 -0.64 -0.00    +0.000 S 
DOCKED: ATOM      9  O   UNL     1      26.071 -15.914  -5.215 -1.11 +0.00    +0.000 OA
DOCKED: BRANCH   8  10
DOCKED: ATOM     10  N   UNL     1      28.186 -14.863  -4.027 -0.24 -0.00    +0.000 N 
DOCKED: ATOM     11  H   UNL     1      28.550 -14.186  -3.412 +0.01 -0.00    +0.000 HD
DOCKED: BRANCH  10  12
DOCKED: ATOM     12  C   UNL     1      29.097 -15.523  -4.924 -0.28 -0.00    +0.000 A 
DOCKED: ATOM     13  C   UNL     1      29.643 -16.790  -4.635 -0.26 -0.00    +0.000 A 
DOCKED: ATOM     14  C   UNL     1      30.519 -17.403  -5.535 -0.28 -0.00    +0.000 A 
DOCKED: ATOM     15  C   UNL     1      30.864 -16.762  -6.727 -0.28 -0.00    +0.000 A 
DOCKED: ATOM     16  C   UNL     1      30.335 -15.503  -7.020 -0.28 -0.00    +0.000 A 
DOCKED: ATOM     17  C   UNL     1      29.458 -14.885  -6.123 -0.30 -0.00    +0.000 A 
DOCKED: ENDBRANCH  10  12
DOCKED: ENDBRANCH   8  10
DOCKED: ENDBRANCH   1   8
DOCKED: BRANCH   3  18
DOCKED: ATOM     18  C   UNL     1      23.030 -17.570  -0.855 -0.76 -0.00    +0.000 C 
DOCKED: ATOM     19  C   UNL     1      22.508 -18.800  -0.736 -0.84 -0.00    +0.000 C 
DOCKED: BRANCH  19  20
DOCKED: ATOM     20  C   UNL     1      21.084 -19.054  -0.442 -0.86 -0.00    +0.000 C 
DOCKED: ATOM     21  N   UNL     1      20.632 -20.274   0.162 -0.66 -0.00    +0.000 N 
DOCKED: ATOM     22  O   UNL     1      20.245 -18.154  -0.710 -2.16 -0.00    +0.000 OA
DOCKED: ATOM     23  H   UNL     1      21.286 -20.941   0.471 -0.57 -0.00    +0.000 HD
DOCKED: BRANCH  21  24
DOCKED: ATOM     24  O   UNL     1      19.305 -20.509   0.309 -0.80 -0.00    +0.000 OA
DOCKED: ATOM     25  H   UNL     1      18.802 -19.787  -0.099 -0.07 -0.00    +0.000 HD
DOCKED: ENDBRANCH  21  24
DOCKED: ENDBRANCH  19  20
DOCKED: ENDBRANCH   3  18
DOCKED: TORSDOF 6
DOCKED: TER
DOCKED: ENDMDL
________________________________________________________________________________


	BEGINNING GENETIC ALGORITHM DOCKING 46 of 100
Run: 46 Seed: 1777552938 542997623 [ Run 46 of 100 GA/GALS ]
Beginning LAMARCKIAN GENETIC ALGORITHM (LGA), with a maximum of 2500000 energy evaluations.

Final-Value: -15.840


	FINAL GENETIC ALGORITHM DOCKED STATE
	_______________________________________________


Detailed state:  trans 24.025 -17.592 -2.544 quatxyzw 0.158746 -0.736115 0.271040 -0.599560 center 0.293 0.181 0.279 ntor 6 -10.5593 127.3837 -83.5285 158.5843 -125.7769 -163.3407
State:	 24.025 -17.592  -2.544   0.198 -0.920  0.339 -106.323    -10.56  127.38  -83.53  158.58 -125.78 -163.34

DOCKED: MODEL       46
DOCKED: USER    Run = 46
DOCKED: USER    DPF = ligand_dock.biased.dpf
DOCKED: USER  
DOCKED: USER    Estimated Free Energy of Binding    =  -12.47 kcal/mol  [=(1)+(2)+(3)-(4)]
DOCKED: USER    Estimated Inhibition Constant, Ki   =  728.86 pM (picomolar)  [Temperature = 298.15 K]
DOCKED: USER    
DOCKED: USER    (1) Final Intermolecular Energy     =  -14.26 kcal/mol
DOCKED: USER        vdW + Hbond + desolv Energy     =  -14.26 kcal/mol
DOCKED: USER        Electrostatic Energy            =   +0.00 kcal/mol
DOCKED: USER    (2) Final Total Internal Energy     =   -1.58 kcal/mol
DOCKED: USER    (3) Torsional Free Energy           =   +1.79 kcal/mol
DOCKED: USER    (4) Unbound System's Energy  [=(2)] =   -1.58 kcal/mol
DOCKED: USER    
DOCKED: USER    
DOCKED: USER    NEWDPF move ligand.pdbqt
DOCKED: USER    NEWDPF about 0.293000 0.181000 0.279000
DOCKED: USER    NEWDPF tran0 24.024579 -17.591563 -2.544176
DOCKED: USER    NEWDPF quaternion0 0.158746 -0.736115 0.271040 -0.599560
DOCKED: USER    NEWDPF axisangle0 0.198350 -0.919764 0.338661 -106.323241
DOCKED: USER    NEWDPF quat0 0.198350 -0.919764 0.338661 -106.323241
DOCKED: USER    NEWDPF dihe0 -10.56 127.38 -83.53 158.58 -125.78 -163.34 
DOCKED: USER  keepresnum = 1 
DOCKED: USER  
DOCKED: REMARK  Name = 
DOCKED: REMARK  6 active torsions:
DOCKED: REMARK  status: ('A' for Active; 'I' for Inactive)
DOCKED: REMARK    1  A    between atoms: S_2  and  N_3
DOCKED: REMARK    2  A    between atoms: S_2  and  C_10
DOCKED: REMARK    3  A    between atoms: N_3  and  C_4
DOCKED: REMARK    4  A    between atoms: C_12  and  C_13
DOCKED: REMARK    5  A    between atoms: C_14  and  C_15
DOCKED: REMARK    6  A    between atoms: N_16  and  O_17
DOCKED: REMARK                            x       y       z     vdW  Elec       q    Type
DOCKED: REMARK                         _______ _______ _______ _____ _____    ______ ____
DOCKED: USER                              x       y       z     vdW  Elec       q    Type
DOCKED: USER                           _______ _______ _______ _____ _____    ______ ____
DOCKED: ROOT
DOCKED: ATOM      1  C   UNL     1      25.939 -16.110  -2.673 -0.45 -0.00    +0.000 A 
DOCKED: ATOM      2  C   UNL     1      24.752 -16.603  -2.114 -0.48 -0.00    +0.000 A 
DOCKED: ATOM      3  C   UNL     1      24.783 -17.434  -0.981 -0.63 -0.00    +0.000 A 
DOCKED: ATOM      4  C   UNL     1      26.029 -17.735  -0.392 -0.57 -0.00    +0.000 A 
DOCKED: ATOM      5  C   UNL     1      27.211 -17.233  -0.945 -0.43 -0.00    +0.000 A 
DOCKED: ATOM      6  C   UNL     1      27.168 -16.426  -2.083 -0.33 -0.00    +0.000 A 
DOCKED: ENDROOT
DOCKED: BRANCH   1   8
DOCKED: ATOM      7  O   UNL     1      24.748 -14.113  -4.025 -1.10 -0.00    +0.000 OA
DOCKED: ATOM      8  S   UNL     1      25.879 -15.099  -4.114 -0.74 -0.00    +0.000 S 
DOCKED: ATOM      9  O   UNL     1      25.669 -15.980  -5.313 -1.08 +0.00    +0.000 OA
DOCKED: BRANCH   8  10
DOCKED: ATOM     10  N   UNL     1      27.373 -14.232  -4.297 -0.29 -0.00    +0.000 N 
DOCKED: ATOM     11  H   UNL     1      27.544 -13.473  -3.694 +0.00 -0.00    +0.000 HD
DOCKED: BRANCH  10  12
DOCKED: ATOM     12  C   UNL     1      28.375 -14.557  -5.279 -0.31 -0.00    +0.000 A 
DOCKED: ATOM     13  C   UNL     1      28.716 -13.668  -6.318 -0.27 -0.00    +0.000 A 
DOCKED: ATOM     14  C   UNL     1      29.700 -14.015  -7.248 -0.26 -0.00    +0.000 A 
DOCKED: ATOM     15  C   UNL     1      30.350 -15.247  -7.157 -0.27 -0.00    +0.000 A 
DOCKED: ATOM     16  C   UNL     1      30.014 -16.139  -6.135 -0.31 -0.00    +0.000 A 
DOCKED: ATOM     17  C   UNL     1      29.030 -15.797  -5.202 -0.31 -0.00    +0.000 A 
DOCKED: ENDBRANCH  10  12
DOCKED: ENDBRANCH   8  10
DOCKED: ENDBRANCH   1   8
DOCKED: BRANCH   3  18
DOCKED: ATOM     18  C   UNL     1      23.498 -17.932  -0.432 -0.78 -0.00    +0.000 C 
DOCKED: ATOM     19  C   UNL     1      22.424 -18.208  -1.187 -0.70 -0.00    +0.000 C 
DOCKED: BRANCH  19  20
DOCKED: ATOM     20  C   UNL     1      21.145 -18.698  -0.633 -0.85 -0.00    +0.000 C 
DOCKED: ATOM     21  N   UNL     1      21.027 -19.976   0.007 -0.65 -0.00    +0.000 N 
DOCKED: ATOM     22  O   UNL     1      20.134 -17.952  -0.706 -2.09 -0.00    +0.000 OA
DOCKED: ATOM     23  H   UNL     1      21.831 -20.523   0.163 -0.58 -0.00    +0.000 HD
DOCKED: BRANCH  21  24
DOCKED: ATOM     24  O   UNL     1      19.812 -20.431   0.397 -0.79 -0.00    +0.000 OA
DOCKED: ATOM     25  H   UNL     1      19.161 -19.716   0.326 -0.02 -0.00    +0.000 HD
DOCKED: ENDBRANCH  21  24
DOCKED: ENDBRANCH  19  20
DOCKED: ENDBRANCH   3  18
DOCKED: TORSDOF 6
DOCKED: TER
DOCKED: ENDMDL
________________________________________________________________________________


	BEGINNING GENETIC ALGORITHM DOCKING 47 of 100
Run: 47 Seed: 1427176049 1713728769 [ Run 47 of 100 GA/GALS ]
Beginning LAMARCKIAN GENETIC ALGORITHM (LGA), with a maximum of 2500000 energy evaluations.

Final-Value: -15.612


	FINAL GENETIC ALGORITHM DOCKED STATE
	_______________________________________________


Detailed state:  trans 23.667 -17.422 -2.591 quatxyzw 0.117181 -0.754768 0.213951 -0.608948 center 0.293 0.181 0.279 ntor 6 -4.7047 -64.7923 -125.4098 174.1661 -76.8944 -172.4463
State:	 23.667 -17.422  -2.591   0.148 -0.952  0.270 -104.973     -4.70  -64.79 -125.41  174.17  -76.89 -172.45

DOCKED: MODEL       47
DOCKED: USER    Run = 47
DOCKED: USER    DPF = ligand_dock.biased.dpf
DOCKED: USER  
DOCKED: USER    Estimated Free Energy of Binding    =  -12.30 kcal/mol  [=(1)+(2)+(3)-(4)]
DOCKED: USER    Estimated Inhibition Constant, Ki   =  960.48 pM (picomolar)  [Temperature = 298.15 K]
DOCKED: USER    
DOCKED: USER    (1) Final Intermolecular Energy     =  -14.09 kcal/mol
DOCKED: USER        vdW + Hbond + desolv Energy     =  -14.09 kcal/mol
DOCKED: USER        Electrostatic Energy            =   +0.00 kcal/mol
DOCKED: USER    (2) Final Total Internal Energy     =   -1.52 kcal/mol
DOCKED: USER    (3) Torsional Free Energy           =   +1.79 kcal/mol
DOCKED: USER    (4) Unbound System's Energy  [=(2)] =   -1.52 kcal/mol
DOCKED: USER    
DOCKED: USER    
DOCKED: USER    NEWDPF move ligand.pdbqt
DOCKED: USER    NEWDPF about 0.293000 0.181000 0.279000
DOCKED: USER    NEWDPF tran0 23.667143 -17.421605 -2.590950
DOCKED: USER    NEWDPF quaternion0 0.117181 -0.754768 0.213951 -0.608948
DOCKED: USER    NEWDPF axisangle0 0.147730 -0.951537 0.269729 -104.972984
DOCKED: USER    NEWDPF quat0 0.147730 -0.951537 0.269729 -104.972984
DOCKED: USER    NEWDPF dihe0 -4.70 -64.79 -125.41 174.17 -76.89 -172.45 
DOCKED: USER  keepresnum = 1 
DOCKED: USER  
DOCKED: REMARK  Name = 
DOCKED: REMARK  6 active torsions:
DOCKED: REMARK  status: ('A' for Active; 'I' for Inactive)
DOCKED: REMARK    1  A    between atoms: S_2  and  N_3
DOCKED: REMARK    2  A    between atoms: S_2  and  C_10
DOCKED: REMARK    3  A    between atoms: N_3  and  C_4
DOCKED: REMARK    4  A    between atoms: C_12  and  C_13
DOCKED: REMARK    5  A    between atoms: C_14  and  C_15
DOCKED: REMARK    6  A    between atoms: N_16  and  O_17
DOCKED: REMARK                            x       y       z     vdW  Elec       q    Type
DOCKED: REMARK                         _______ _______ _______ _____ _____    ______ ____
DOCKED: USER                              x       y       z     vdW  Elec       q    Type
DOCKED: USER                           _______ _______ _______ _____ _____    ______ ____
DOCKED: ROOT
DOCKED: ATOM      1  C   UNL     1      25.772 -16.219  -2.638 -0.46 -0.00    +0.000 A 
DOCKED: ATOM      2  C   UNL     1      24.519 -16.563  -2.112 -0.31 -0.00    +0.000 A 
DOCKED: ATOM      3  C   UNL     1      24.416 -17.436  -1.015 -0.64 -0.00    +0.000 A 
DOCKED: ATOM      4  C   UNL     1      25.598 -17.932  -0.427 -0.61 -0.00    +0.000 A 
DOCKED: ATOM      5  C   UNL     1      26.846 -17.579  -0.946 -0.45 -0.00    +0.000 A 
DOCKED: ATOM      6  C   UNL     1      26.935 -16.729  -2.050 -0.33 -0.00    +0.000 A 
DOCKED: ENDROOT
DOCKED: BRANCH   1   8
DOCKED: ATOM      7  O   UNL     1      24.754 -14.155  -4.028 -1.10 -0.00    +0.000 OA
DOCKED: ATOM      8  S   UNL     1      25.877 -15.153  -4.036 -0.74 -0.00    +0.000 S 
DOCKED: ATOM      9  O   UNL     1      25.787 -15.984  -5.284 -1.11 +0.00    +0.000 OA
DOCKED: BRANCH   8  10
DOCKED: ATOM     10  N   UNL     1      27.391 -14.302  -4.024 -0.27 -0.00    +0.000 N 
DOCKED: ATOM     11  H   UNL     1      27.599 -13.740  -3.243 +0.00 -0.00    +0.000 HD
DOCKED: BRANCH  10  12
DOCKED: ATOM     12  C   UNL     1      28.358 -14.369  -5.088 -0.28 -0.00    +0.000 A 
DOCKED: ATOM     13  C   UNL     1      29.199 -15.486  -5.262 -0.29 -0.00    +0.000 A 
DOCKED: ATOM     14  C   UNL     1      30.121 -15.519  -6.312 -0.28 -0.00    +0.000 A 
DOCKED: ATOM     15  C   UNL     1      30.219 -14.441  -7.195 -0.24 -0.00    +0.000 A 
DOCKED: ATOM     16  C   UNL     1      29.396 -13.325  -7.026 -0.23 -0.00    +0.000 A 
DOCKED: ATOM     17  C   UNL     1      28.471 -13.288  -5.978 -0.23 -0.00    +0.000 A 
DOCKED: ENDBRANCH  10  12
DOCKED: ENDBRANCH   8  10
DOCKED: ENDBRANCH   1   8
DOCKED: BRANCH   3  18
DOCKED: ATOM     18  C   UNL     1      23.065 -17.770  -0.500 -0.79 -0.00    +0.000 C 
DOCKED: ATOM     19  C   UNL     1      22.271 -18.704  -1.045 -0.83 -0.00    +0.000 C 
DOCKED: BRANCH  19  20
DOCKED: ATOM     20  C   UNL     1      20.925 -19.028  -0.531 -0.87 -0.00    +0.000 C 
DOCKED: ATOM     21  N   UNL     1      20.649 -20.241   0.183 -0.66 -0.00    +0.000 N 
DOCKED: ATOM     22  O   UNL     1      19.999 -18.194  -0.707 -1.97 -0.00    +0.000 OA
DOCKED: ATOM     23  H   UNL     1      21.384 -20.852   0.417 -0.61 -0.00    +0.000 HD
DOCKED: BRANCH  21  24
DOCKED: ATOM     24  O   UNL     1      19.377 -20.547   0.536 -0.78 -0.00    +0.000 OA
DOCKED: ATOM     25  H   UNL     1      18.790 -19.813   0.298 -0.03 -0.00    +0.000 HD
DOCKED: ENDBRANCH  21  24
DOCKED: ENDBRANCH  19  20
DOCKED: ENDBRANCH   3  18
DOCKED: TORSDOF 6
DOCKED: TER
DOCKED: ENDMDL
________________________________________________________________________________


	BEGINNING GENETIC ALGORITHM DOCKING 48 of 100
Run: 48 Seed: 442810377 459509508 [ Run 48 of 100 GA/GALS ]
Beginning LAMARCKIAN GENETIC ALGORITHM (LGA), with a maximum of 2500000 energy evaluations.

Final-Value: -15.739


	FINAL GENETIC ALGORITHM DOCKED STATE
	_______________________________________________


Detailed state:  trans 23.927 -17.392 -2.629 quatxyzw -0.121700 0.739400 -0.243308 0.615856 center 0.293 0.181 0.279 ntor 6 -8.1957 130.9689 -114.9513 161.7088 -90.4665 -170.1458
State:	 23.927 -17.392  -2.629  -0.154  0.938 -0.309 103.972     -8.20  130.97 -114.95  161.71  -90.47 -170.15

DOCKED: MODEL       48
DOCKED: USER    Run = 48
DOCKED: USER    DPF = ligand_dock.biased.dpf
DOCKED: USER  
DOCKED: USER    Estimated Free Energy of Binding    =  -12.39 kcal/mol  [=(1)+(2)+(3)-(4)]
DOCKED: USER    Estimated Inhibition Constant, Ki   =  827.91 pM (picomolar)  [Temperature = 298.15 K]
DOCKED: USER    
DOCKED: USER    (1) Final Intermolecular Energy     =  -14.18 kcal/mol
DOCKED: USER        vdW + Hbond + desolv Energy     =  -14.18 kcal/mol
DOCKED: USER        Electrostatic Energy            =   +0.00 kcal/mol
DOCKED: USER    (2) Final Total Internal Energy     =   -1.56 kcal/mol
DOCKED: USER    (3) Torsional Free Energy           =   +1.79 kcal/mol
DOCKED: USER    (4) Unbound System's Energy  [=(2)] =   -1.56 kcal/mol
DOCKED: USER    
DOCKED: USER    
DOCKED: USER    NEWDPF move ligand.pdbqt
DOCKED: USER    NEWDPF about 0.293000 0.181000 0.279000
DOCKED: USER    NEWDPF tran0 23.926876 -17.391955 -2.628728
DOCKED: USER    NEWDPF quaternion0 -0.121700 0.739400 -0.243308 0.615856
DOCKED: USER    NEWDPF axisangle0 -0.154469 0.938493 -0.308821 103.971734
DOCKED: USER    NEWDPF quat0 -0.154469 0.938493 -0.308821 103.971734
DOCKED: USER    NEWDPF dihe0 -8.20 130.97 -114.95 161.71 -90.47 -170.15 
DOCKED: USER  keepresnum = 1 
DOCKED: USER  
DOCKED: REMARK  Name = 
DOCKED: REMARK  6 active torsions:
DOCKED: REMARK  status: ('A' for Active; 'I' for Inactive)
DOCKED: REMARK    1  A    between atoms: S_2  and  N_3
DOCKED: REMARK    2  A    between atoms: S_2  and  C_10
DOCKED: REMARK    3  A    between atoms: N_3  and  C_4
DOCKED: REMARK    4  A    between atoms: C_12  and  C_13
DOCKED: REMARK    5  A    between atoms: C_14  and  C_15
DOCKED: REMARK    6  A    between atoms: N_16  and  O_17
DOCKED: REMARK                            x       y       z     vdW  Elec       q    Type
DOCKED: REMARK                         _______ _______ _______ _____ _____    ______ ____
DOCKED: USER                              x       y       z     vdW  Elec       q    Type
DOCKED: USER                           _______ _______ _______ _____ _____    ______ ____
DOCKED: ROOT
DOCKED: ATOM      1  C   UNL     1      25.975 -16.105  -2.785 -0.44 -0.00    +0.000 A 
DOCKED: ATOM      2  C   UNL     1      24.751 -16.476  -2.212 -0.44 -0.00    +0.000 A 
DOCKED: ATOM      3  C   UNL     1      24.712 -17.299  -1.073 -0.62 -0.00    +0.000 A 
DOCKED: ATOM      4  C   UNL     1      25.927 -17.716  -0.493 -0.57 -0.00    +0.000 A 
DOCKED: ATOM      5  C   UNL     1      27.147 -17.336  -1.059 -0.42 -0.00    +0.000 A 
DOCKED: ATOM      6  C   UNL     1      27.173 -16.536  -2.203 -0.31 -0.00    +0.000 A 
DOCKED: ENDROOT
DOCKED: BRANCH   1   8
DOCKED: ATOM      7  O   UNL     1      24.868 -14.116  -4.217 -1.06 -0.00    +0.000 OA
DOCKED: ATOM      8  S   UNL     1      26.001 -15.103  -4.233 -0.72 -0.00    +0.000 S 
DOCKED: ATOM      9  O   UNL     1      25.862 -15.990  -5.436 -1.12 +0.00    +0.000 OA
DOCKED: BRANCH   8  10
DOCKED: ATOM     10  N   UNL     1      27.504 -14.237  -4.332 -0.28 -0.00    +0.000 N 
DOCKED: ATOM     11  H   UNL     1      27.659 -13.505  -3.693 +0.00 -0.00    +0.000 HD
DOCKED: BRANCH  10  12
DOCKED: ATOM     12  C   UNL     1      28.535 -14.526  -5.294 -0.29 -0.00    +0.000 A 
DOCKED: ATOM     13  C   UNL     1      28.964 -13.571  -6.237 -0.24 -0.00    +0.000 A 
DOCKED: ATOM     14  C   UNL     1      29.975 -13.886  -7.150 -0.23 -0.00    +0.000 A 
DOCKED: ATOM     15  C   UNL     1      30.564 -15.152  -7.137 -0.25 -0.00    +0.000 A 
DOCKED: ATOM     16  C   UNL     1      30.140 -16.109  -6.212 -0.30 -0.00    +0.000 A 
DOCKED: ATOM     17  C   UNL     1      29.130 -15.799  -5.296 -0.31 -0.00    +0.000 A 
DOCKED: ENDBRANCH  10  12
DOCKED: ENDBRANCH   8  10
DOCKED: ENDBRANCH   1   8
DOCKED: BRANCH   3  18
DOCKED: ATOM     18  C   UNL     1      23.389 -17.666  -0.509 -0.76 -0.00    +0.000 C 
DOCKED: ATOM     19  C   UNL     1      22.511 -18.467  -1.132 -0.79 -0.00    +0.000 C 
DOCKED: BRANCH  19  20
DOCKED: ATOM     20  C   UNL     1      21.194 -18.823  -0.568 -0.85 -0.00    +0.000 C 
DOCKED: ATOM     21  N   UNL     1      20.974 -20.043   0.153 -0.61 -0.00    +0.000 N 
DOCKED: ATOM     22  O   UNL     1      20.242 -18.011  -0.706 -2.18 -0.00    +0.000 OA
DOCKED: ATOM     23  H   UNL     1      21.732 -20.637   0.358 -0.59 -0.00    +0.000 HD
DOCKED: BRANCH  21  24
DOCKED: ATOM     24  O   UNL     1      19.724 -20.381   0.553 -0.78 -0.00    +0.000 OA
DOCKED: ATOM     25  H   UNL     1      19.121 -19.639   0.390 -0.03 -0.00    +0.000 HD
DOCKED: ENDBRANCH  21  24
DOCKED: ENDBRANCH  19  20
DOCKED: ENDBRANCH   3  18
DOCKED: TORSDOF 6
DOCKED: TER
DOCKED: ENDMDL
________________________________________________________________________________


	BEGINNING GENETIC ALGORITHM DOCKING 49 of 100
Run: 49 Seed: 1783181770 449788264 [ Run 49 of 100 GA/GALS ]
Beginning LAMARCKIAN GENETIC ALGORITHM (LGA), with a maximum of 2500000 energy evaluations.

Final-Value: -15.350


	FINAL GENETIC ALGORITHM DOCKED STATE
	_______________________________________________


Detailed state:  trans 25.010 -15.790 -1.305 quatxyzw 0.273244 -0.827897 -0.290909 -0.394077 center 0.293 0.181 0.279 ntor 6 -5.2863 -35.9933 149.5939 -73.8452 22.7837 147.8816
State:	 25.010 -15.790  -1.305   0.297 -0.901 -0.317 -133.583     -5.29  -35.99  149.59  -73.85   22.78  147.88

DOCKED: MODEL       49
DOCKED: USER    Run = 49
DOCKED: USER    DPF = ligand_dock.biased.dpf
DOCKED: USER  
DOCKED: USER    Estimated Free Energy of Binding    =  -12.10 kcal/mol  [=(1)+(2)+(3)-(4)]
DOCKED: USER    Estimated Inhibition Constant, Ki   =    1.36 nM (nanomolar)  [Temperature = 298.15 K]
DOCKED: USER    
DOCKED: USER    (1) Final Intermolecular Energy     =  -13.88 kcal/mol
DOCKED: USER        vdW + Hbond + desolv Energy     =  -13.88 kcal/mol
DOCKED: USER        Electrostatic Energy            =   +0.00 kcal/mol
DOCKED: USER    (2) Final Total Internal Energy     =   -1.46 kcal/mol
DOCKED: USER    (3) Torsional Free Energy           =   +1.79 kcal/mol
DOCKED: USER    (4) Unbound System's Energy  [=(2)] =   -1.46 kcal/mol
DOCKED: USER    
DOCKED: USER    
DOCKED: USER    NEWDPF move ligand.pdbqt
DOCKED: USER    NEWDPF about 0.293000 0.181000 0.279000
DOCKED: USER    NEWDPF tran0 25.009696 -15.790190 -1.305381
DOCKED: USER    NEWDPF quaternion0 0.273244 -0.827897 -0.290909 -0.394077
DOCKED: USER    NEWDPF axisangle0 0.297303 -0.900791 -0.316522 -133.583217
DOCKED: USER    NEWDPF quat0 0.297303 -0.900791 -0.316522 -133.583217
DOCKED: USER    NEWDPF dihe0 -5.29 -35.99 149.59 -73.85 22.78 147.88 
DOCKED: USER  keepresnum = 1 
DOCKED: USER  
DOCKED: REMARK  Name = 
DOCKED: REMARK  6 active torsions:
DOCKED: REMARK  status: ('A' for Active; 'I' for Inactive)
DOCKED: REMARK    1  A    between atoms: S_2  and  N_3
DOCKED: REMARK    2  A    between atoms: S_2  and  C_10
DOCKED: REMARK    3  A    between atoms: N_3  and  C_4
DOCKED: REMARK    4  A    between atoms: C_12  and  C_13
DOCKED: REMARK    5  A    between atoms: C_14  and  C_15
DOCKED: REMARK    6  A    between atoms: N_16  and  O_17
DOCKED: REMARK                            x       y       z     vdW  Elec       q    Type
DOCKED: REMARK                         _______ _______ _______ _____ _____    ______ ____
DOCKED: USER                              x       y       z     vdW  Elec       q    Type
DOCKED: USER                           _______ _______ _______ _____ _____    ______ ____
DOCKED: ROOT
DOCKED: ATOM      1  C   UNL     1      27.142 -16.030  -0.177 -0.34 -0.00    +0.000 A 
DOCKED: ATOM      2  C   UNL     1      25.750 -16.144  -0.296 -0.09 -0.00    +0.000 A 
DOCKED: ATOM      3  C   UNL     1      25.154 -17.380  -0.600 -0.58 -0.00    +0.000 A 
DOCKED: ATOM      4  C   UNL     1      25.978 -18.514  -0.748 -0.41 -0.00    +0.000 A 
DOCKED: ATOM      5  C   UNL     1      27.365 -18.401  -0.618 +0.01 -0.00    +0.000 A 
DOCKED: ATOM      6  C   UNL     1      27.947 -17.164  -0.337 -0.28 -0.00    +0.000 A 
DOCKED: ENDROOT
DOCKED: BRANCH   1   8
DOCKED: ATOM      7  O   UNL     1      26.837 -13.375   0.121 -0.29 -0.00    +0.000 OA
DOCKED: ATOM      8  S   UNL     1      27.871 -14.465   0.169 -0.31 -0.00    +0.000 S 
DOCKED: ATOM      9  O   UNL     1      28.926 -14.186  -0.863 -0.11 -0.00    +0.000 OA
DOCKED: BRANCH   8  10
DOCKED: ATOM     10  N   UNL     1      28.603 -14.483   1.744 -0.24 -0.00    +0.000 N 
DOCKED: ATOM     11  H   UNL     1      29.250 -15.198   1.945 -1.62 -0.00    +0.000 HD
DOCKED: BRANCH  10  12
DOCKED: ATOM     12  C   UNL     1      28.320 -13.517   2.772 -0.26 -0.00    +0.000 A 
DOCKED: ATOM     13  C   UNL     1      28.314 -12.132   2.513 -0.17 -0.00    +0.000 A 
DOCKED: ATOM     14  C   UNL     1      28.026 -11.223   3.535 -0.23 +0.00    +0.000 A 
DOCKED: ATOM     15  C   UNL     1      27.747 -11.682   4.824 -0.33 +0.00    +0.000 A 
DOCKED: ATOM     16  C   UNL     1      27.758 -13.053   5.095 -0.44 -0.00    +0.000 A 
DOCKED: ATOM     17  C   UNL     1      28.044 -13.965   4.075 -0.46 -0.00    +0.000 A 
DOCKED: ENDBRANCH  10  12
DOCKED: ENDBRANCH   8  10
DOCKED: ENDBRANCH   1   8
DOCKED: BRANCH   3  18
DOCKED: ATOM     18  C   UNL     1      23.676 -17.443  -0.719 -0.75 -0.00    +0.000 C 
DOCKED: ATOM     19  C   UNL     1      22.998 -18.572  -0.979 -0.82 -0.00    +0.000 C 
DOCKED: BRANCH  19  20
DOCKED: ATOM     20  C   UNL     1      21.527 -18.627  -1.101 -0.78 -0.00    +0.000 C 
DOCKED: ATOM     21  N   UNL     1      20.844 -19.774  -1.623 -0.72 -0.00    +0.000 N 
DOCKED: ATOM     22  O   UNL     1      20.855 -17.638  -0.707 -2.15 -0.00    +0.000 OA
DOCKED: ATOM     23  H   UNL     1      21.349 -20.592  -1.837 -0.32 -0.00    +0.000 HD
DOCKED: BRANCH  21  24
DOCKED: ATOM     24  O   UNL     1      19.504 -19.735  -1.822 -1.67 -0.00    +0.000 OA
DOCKED: ATOM     25  H   UNL     1      19.152 -18.897  -1.486 -0.55 -0.00    +0.000 HD
DOCKED: ENDBRANCH  21  24
DOCKED: ENDBRANCH  19  20
DOCKED: ENDBRANCH   3  18
DOCKED: TORSDOF 6
DOCKED: TER
DOCKED: ENDMDL
________________________________________________________________________________


	BEGINNING GENETIC ALGORITHM DOCKING 50 of 100
Run: 50 Seed: 2093440381 568916494 [ Run 50 of 100 GA/GALS ]
Beginning LAMARCKIAN GENETIC ALGORITHM (LGA), with a maximum of 2500000 energy evaluations.

Final-Value: -15.868


	FINAL GENETIC ALGORITHM DOCKED STATE
	_______________________________________________


Detailed state:  trans 24.222 -17.936 -2.687 quatxyzw -0.206978 0.756822 -0.307510 0.538348 center 0.293 0.181 0.279 ntor 6 60.6327 -52.3340 -38.1818 154.1661 -172.3005 -150.2571
State:	 24.222 -17.936  -2.687  -0.246  0.898 -0.365 114.857     60.63  -52.33  -38.18  154.17 -172.30 -150.26

DOCKED: MODEL       50
DOCKED: USER    Run = 50
DOCKED: USER    DPF = ligand_dock.biased.dpf
DOCKED: USER  
DOCKED: USER    Estimated Free Energy of Binding    =  -12.88 kcal/mol  [=(1)+(2)+(3)-(4)]
DOCKED: USER    Estimated Inhibition Constant, Ki   =  362.48 pM (picomolar)  [Temperature = 298.15 K]
DOCKED: USER    
DOCKED: USER    (1) Final Intermolecular Energy     =  -14.67 kcal/mol
DOCKED: USER        vdW + Hbond + desolv Energy     =  -14.67 kcal/mol
DOCKED: USER        Electrostatic Energy            =   +0.00 kcal/mol
DOCKED: USER    (2) Final Total Internal Energy     =   -1.20 kcal/mol
DOCKED: USER    (3) Torsional Free Energy           =   +1.79 kcal/mol
DOCKED: USER    (4) Unbound System's Energy  [=(2)] =   -1.20 kcal/mol
DOCKED: USER    
DOCKED: USER    
DOCKED: USER    NEWDPF move ligand.pdbqt
DOCKED: USER    NEWDPF about 0.293000 0.181000 0.279000
DOCKED: USER    NEWDPF tran0 24.222493 -17.936500 -2.686799
DOCKED: USER    NEWDPF quaternion0 -0.206978 0.756822 -0.307510 0.538348
DOCKED: USER    NEWDPF axisangle0 -0.245607 0.898067 -0.364900 114.857450
DOCKED: USER    NEWDPF quat0 -0.245607 0.898067 -0.364900 114.857450
DOCKED: USER    NEWDPF dihe0 60.63 -52.33 -38.18 154.17 -172.30 -150.26 
DOCKED: USER  keepresnum = 1 
DOCKED: USER  
DOCKED: REMARK  Name = 
DOCKED: REMARK  6 active torsions:
DOCKED: REMARK  status: ('A' for Active; 'I' for Inactive)
DOCKED: REMARK    1  A    between atoms: S_2  and  N_3
DOCKED: REMARK    2  A    between atoms: S_2  and  C_10
DOCKED: REMARK    3  A    between atoms: N_3  and  C_4
DOCKED: REMARK    4  A    between atoms: C_12  and  C_13
DOCKED: REMARK    5  A    between atoms: C_14  and  C_15
DOCKED: REMARK    6  A    between atoms: N_16  and  O_17
DOCKED: REMARK                            x       y       z     vdW  Elec       q    Type
DOCKED: REMARK                         _______ _______ _______ _____ _____    ______ ____
DOCKED: USER                              x       y       z     vdW  Elec       q    Type
DOCKED: USER                           _______ _______ _______ _____ _____    ______ ____
DOCKED: ROOT
DOCKED: ATOM      1  C   UNL     1      25.909 -16.199  -2.578 -0.46 -0.00    +0.000 A 
DOCKED: ATOM      2  C   UNL     1      24.756 -16.875  -2.157 -0.49 -0.00    +0.000 A 
DOCKED: ATOM      3  C   UNL     1      24.795 -17.741  -1.050 -0.64 -0.00    +0.000 A 
DOCKED: ATOM      4  C   UNL     1      26.007 -17.889  -0.346 -0.58 -0.00    +0.000 A 
DOCKED: ATOM      5  C   UNL     1      27.154 -17.205  -0.760 -0.44 -0.00    +0.000 A 
DOCKED: ATOM      6  C   UNL     1      27.108 -16.365  -1.874 -0.35 -0.00    +0.000 A 
DOCKED: ENDROOT
DOCKED: BRANCH   1   8
DOCKED: ATOM      7  O   UNL     1      24.764 -14.116  -3.836 -1.04 -0.00    +0.000 OA
DOCKED: ATOM      8  S   UNL     1      25.847 -15.147  -3.989 -0.73 -0.00    +0.000 S 
DOCKED: ATOM      9  O   UNL     1      25.559 -15.984  -5.203 -1.06 -0.00    +0.000 OA
DOCKED: BRANCH   8  10
DOCKED: ATOM     10  N   UNL     1      27.371 -14.341  -4.200 -0.29 -0.00    +0.000 N 
DOCKED: ATOM     11  H   UNL     1      27.566 -13.564  -3.626 +0.00 -0.00    +0.000 HD
DOCKED: BRANCH  10  12
DOCKED: ATOM     12  C   UNL     1      28.364 -14.738  -5.163 -0.32 -0.00    +0.000 A 
DOCKED: ATOM     13  C   UNL     1      29.013 -15.987  -5.092 -0.30 -0.00    +0.000 A 
DOCKED: ATOM     14  C   UNL     1      29.967 -16.341  -6.051 -0.31 -0.00    +0.000 A 
DOCKED: ATOM     15  C   UNL     1      30.286 -15.458  -7.084 -0.27 -0.00    +0.000 A 
DOCKED: ATOM     16  C   UNL     1      29.654 -14.215  -7.159 -0.27 -0.00    +0.000 A 
DOCKED: ATOM     17  C   UNL     1      28.699 -13.855  -6.203 -0.28 -0.00    +0.000 A 
DOCKED: ENDBRANCH  10  12
DOCKED: ENDBRANCH   8  10
DOCKED: ENDBRANCH   1   8
DOCKED: BRANCH   3  18
DOCKED: ATOM     18  C   UNL     1      23.546 -18.435  -0.649 -0.82 -0.00    +0.000 C 
DOCKED: ATOM     19  C   UNL     1      22.329 -18.097  -1.102 -0.72 -0.00    +0.000 C 
DOCKED: BRANCH  19  20
DOCKED: ATOM     20  C   UNL     1      21.090 -18.789  -0.695 -0.87 -0.00    +0.000 C 
DOCKED: ATOM     21  N   UNL     1      21.098 -20.107  -0.130 -0.59 -0.00    +0.000 N 
DOCKED: ATOM     22  O   UNL     1      19.993 -18.184  -0.828 -1.94 -0.00    +0.000 OA
DOCKED: ATOM     23  H   UNL     1      21.954 -20.548   0.075 -0.57 -0.00    +0.000 HD
DOCKED: BRANCH  21  24
DOCKED: ATOM     24  O   UNL     1      19.930 -20.746   0.122 -0.79 -0.00    +0.000 OA
DOCKED: ATOM     25  H   UNL     1      19.439 -20.858  -0.706 -0.52 -0.00    +0.000 HD
DOCKED: ENDBRANCH  21  24
DOCKED: ENDBRANCH  19  20
DOCKED: ENDBRANCH   3  18
DOCKED: TORSDOF 6
DOCKED: TER
DOCKED: ENDMDL
________________________________________________________________________________


	BEGINNING GENETIC ALGORITHM DOCKING 51 of 100
Run: 51 Seed: 511382787 2096422891 [ Run 51 of 100 GA/GALS ]
Beginning LAMARCKIAN GENETIC ALGORITHM (LGA), with a maximum of 2500000 energy evaluations.

Final-Value: -14.978


	FINAL GENETIC ALGORITHM DOCKED STATE
	_______________________________________________


Detailed state:  trans 23.525 -17.359 -2.420 quatxyzw -0.106304 0.781138 -0.153520 0.595781 center 0.293 0.181 0.279 ntor 6 1.8030 -42.4089 -132.8648 31.0356 -57.6051 170.4017
State:	 23.525 -17.359  -2.420  -0.132  0.973 -0.191 106.863      1.80  -42.41 -132.86   31.04  -57.61  170.40

DOCKED: MODEL       51
DOCKED: USER    Run = 51
DOCKED: USER    DPF = ligand_dock.biased.dpf
DOCKED: USER  
DOCKED: USER    Estimated Free Energy of Binding    =  -11.39 kcal/mol  [=(1)+(2)+(3)-(4)]
DOCKED: USER    Estimated Inhibition Constant, Ki   =    4.47 nM (nanomolar)  [Temperature = 298.15 K]
DOCKED: USER    
DOCKED: USER    (1) Final Intermolecular Energy     =  -13.18 kcal/mol
DOCKED: USER        vdW + Hbond + desolv Energy     =  -13.18 kcal/mol
DOCKED: USER        Electrostatic Energy            =   +0.00 kcal/mol
DOCKED: USER    (2) Final Total Internal Energy     =   -1.80 kcal/mol
DOCKED: USER    (3) Torsional Free Energy           =   +1.79 kcal/mol
DOCKED: USER    (4) Unbound System's Energy  [=(2)] =   -1.80 kcal/mol
DOCKED: USER    
DOCKED: USER    
DOCKED: USER    NEWDPF move ligand.pdbqt
DOCKED: USER    NEWDPF about 0.293000 0.181000 0.279000
DOCKED: USER    NEWDPF tran0 23.524996 -17.359145 -2.420215
DOCKED: USER    NEWDPF quaternion0 -0.106304 0.781138 -0.153520 0.595781
DOCKED: USER    NEWDPF axisangle0 -0.132359 0.972596 -0.191148 106.863382
DOCKED: USER    NEWDPF quat0 -0.132359 0.972596 -0.191148 106.863382
DOCKED: USER    NEWDPF dihe0 1.80 -42.41 -132.86 31.04 -57.61 170.40 
DOCKED: USER  keepresnum = 1 
DOCKED: USER  
DOCKED: REMARK  Name = 
DOCKED: REMARK  6 active torsions:
DOCKED: REMARK  status: ('A' for Active; 'I' for Inactive)
DOCKED: REMARK    1  A    between atoms: S_2  and  N_3
DOCKED: REMARK    2  A    between atoms: S_2  and  C_10
DOCKED: REMARK    3  A    between atoms: N_3  and  C_4
DOCKED: REMARK    4  A    between atoms: C_12  and  C_13
DOCKED: REMARK    5  A    between atoms: C_14  and  C_15
DOCKED: REMARK    6  A    between atoms: N_16  and  O_17
DOCKED: REMARK                            x       y       z     vdW  Elec       q    Type
DOCKED: REMARK                         _______ _______ _______ _____ _____    ______ ____
DOCKED: USER                              x       y       z     vdW  Elec       q    Type
DOCKED: USER                           _______ _______ _______ _____ _____    ______ ____
DOCKED: ROOT
DOCKED: ATOM      1  C   UNL     1      25.727 -16.357  -2.274 -0.49 -0.00    +0.000 A 
DOCKED: ATOM      2  C   UNL     1      24.426 -16.630  -1.831 -0.48 -0.00    +0.000 A 
DOCKED: ATOM      3  C   UNL     1      24.195 -17.584  -0.825 -0.66 -0.00    +0.000 A 
DOCKED: ATOM      4  C   UNL     1      25.300 -18.239  -0.242 -0.62 -0.00    +0.000 A 
DOCKED: ATOM      5  C   UNL     1      26.598 -17.957  -0.677 -0.50 -0.00    +0.000 A 
DOCKED: ATOM      6  C   UNL     1      26.813 -17.023  -1.692 -0.37 -0.00    +0.000 A 
DOCKED: ENDROOT
DOCKED: BRANCH   1   8
DOCKED: ATOM      7  O   UNL     1      24.764 -14.343  -3.772 -0.99 -0.00    +0.000 OA
DOCKED: ATOM      8  S   UNL     1      25.992 -15.183  -3.560 -0.68 -0.00    +0.000 S 
DOCKED: ATOM      9  O   UNL     1      26.306 -15.922  -4.830 -0.95 +0.00    +0.000 OA
DOCKED: BRANCH   8  10
DOCKED: ATOM     10  N   UNL     1      27.325 -14.147  -3.157 -0.22 -0.00    +0.000 N 
DOCKED: ATOM     11  H   UNL     1      27.785 -13.678  -3.891 +0.00 -0.00    +0.000 HD
DOCKED: BRANCH  10  12
DOCKED: ATOM     12  C   UNL     1      27.800 -13.933  -1.815 -0.15 -0.00    +0.000 A 
DOCKED: ATOM     13  C   UNL     1      26.943 -13.510  -0.780 -0.20 -0.00    +0.000 A 
DOCKED: ATOM     14  C   UNL     1      27.438 -13.321   0.514 -0.21 -0.00    +0.000 A 
DOCKED: ATOM     15  C   UNL     1      28.789 -13.545   0.788 -0.13 -0.00    +0.000 A 
DOCKED: ATOM     16  C   UNL     1      29.649 -13.957  -0.233 -0.07 -0.00    +0.000 A 
DOCKED: ATOM     17  C   UNL     1      29.158 -14.148  -1.528 -0.07 -0.00    +0.000 A 
DOCKED: ENDBRANCH  10  12
DOCKED: ENDBRANCH   8  10
DOCKED: ENDBRANCH   1   8
DOCKED: BRANCH   3  18
DOCKED: ATOM     18  C   UNL     1      22.797 -17.837  -0.396 -0.80 -0.00    +0.000 C 
DOCKED: ATOM     19  C   UNL     1      22.073 -18.890  -0.804 -0.84 -0.00    +0.000 C 
DOCKED: BRANCH  19  20
DOCKED: ATOM     20  C   UNL     1      20.680 -19.133  -0.377 -0.86 -0.00    +0.000 C 
DOCKED: ATOM     21  N   UNL     1      20.310 -20.262   0.425 -0.70 -0.00    +0.000 N 
DOCKED: ATOM     22  O   UNL     1      19.796 -18.301  -0.712 -1.77 -0.00    +0.000 OA
DOCKED: ATOM     23  H   UNL     1      21.006 -20.862   0.779 -0.59 -0.00    +0.000 HD
DOCKED: BRANCH  21  24
DOCKED: ATOM     24  O   UNL     1      19.005 -20.506   0.696 -0.79 -0.00    +0.000 OA
DOCKED: ATOM     25  H   UNL     1      18.454 -19.843   0.252 -0.05 -0.00    +0.000 HD
DOCKED: ENDBRANCH  21  24
DOCKED: ENDBRANCH  19  20
DOCKED: ENDBRANCH   3  18
DOCKED: TORSDOF 6
DOCKED: TER
DOCKED: ENDMDL
________________________________________________________________________________


	BEGINNING GENETIC ALGORITHM DOCKING 52 of 100
Run: 52 Seed: 1997139507 769084096 [ Run 52 of 100 GA/GALS ]
Beginning LAMARCKIAN GENETIC ALGORITHM (LGA), with a maximum of 2500000 energy evaluations.

Final-Value: -15.291


	FINAL GENETIC ALGORITHM DOCKED STATE
	_______________________________________________


Detailed state:  trans 24.178 -17.987 -2.796 quatxyzw 0.214263 -0.764740 0.270088 -0.544350 center 0.293 0.181 0.279 ntor 6 36.9818 -98.4664 -28.8608 139.9387 178.2488 -160.9862
State:	 24.178 -17.987  -2.796   0.255 -0.912  0.322 -114.039     36.98  -98.47  -28.86  139.94  178.25 -160.99

DOCKED: MODEL       52
DOCKED: USER    Run = 52
DOCKED: USER    DPF = ligand_dock.biased.dpf
DOCKED: USER  
DOCKED: USER    Estimated Free Energy of Binding    =  -12.10 kcal/mol  [=(1)+(2)+(3)-(4)]
DOCKED: USER    Estimated Inhibition Constant, Ki   =    1.36 nM (nanomolar)  [Temperature = 298.15 K]
DOCKED: USER    
DOCKED: USER    (1) Final Intermolecular Energy     =  -13.89 kcal/mol
DOCKED: USER        vdW + Hbond + desolv Energy     =  -13.89 kcal/mol
DOCKED: USER        Electrostatic Energy            =   +0.00 kcal/mol
DOCKED: USER    (2) Final Total Internal Energy     =   -1.40 kcal/mol
DOCKED: USER    (3) Torsional Free Energy           =   +1.79 kcal/mol
DOCKED: USER    (4) Unbound System's Energy  [=(2)] =   -1.40 kcal/mol
DOCKED: USER    
DOCKED: USER    
DOCKED: USER    NEWDPF move ligand.pdbqt
DOCKED: USER    NEWDPF about 0.293000 0.181000 0.279000
DOCKED: USER    NEWDPF tran0 24.178420 -17.987098 -2.795957
DOCKED: USER    NEWDPF quaternion0 0.214263 -0.764740 0.270088 -0.544350
DOCKED: USER    NEWDPF axisangle0 0.255422 -0.911644 0.321971 -114.039451
DOCKED: USER    NEWDPF quat0 0.255422 -0.911644 0.321971 -114.039451
DOCKED: USER    NEWDPF dihe0 36.98 -98.47 -28.86 139.94 178.25 -160.99 
DOCKED: USER  keepresnum = 1 
DOCKED: USER  
DOCKED: REMARK  Name = 
DOCKED: REMARK  6 active torsions:
DOCKED: REMARK  status: ('A' for Active; 'I' for Inactive)
DOCKED: REMARK    1  A    between atoms: S_2  and  N_3
DOCKED: REMARK    2  A    between atoms: S_2  and  C_10
DOCKED: REMARK    3  A    between atoms: N_3  and  C_4
DOCKED: REMARK    4  A    between atoms: C_12  and  C_13
DOCKED: REMARK    5  A    between atoms: C_14  and  C_15
DOCKED: REMARK    6  A    between atoms: N_16  and  O_17
DOCKED: REMARK                            x       y       z     vdW  Elec       q    Type
DOCKED: REMARK                         _______ _______ _______ _____ _____    ______ ____
DOCKED: USER                              x       y       z     vdW  Elec       q    Type
DOCKED: USER                           _______ _______ _______ _____ _____    ______ ____
DOCKED: ROOT
DOCKED: ATOM      1  C   UNL     1      25.930 -16.322  -2.609 -0.44 -0.00    +0.000 A 
DOCKED: ATOM      2  C   UNL     1      24.761 -16.984  -2.209 -0.49 -0.00    +0.000 A 
DOCKED: ATOM      3  C   UNL     1      24.789 -17.922  -1.163 -0.64 -0.00    +0.000 A 
DOCKED: ATOM      4  C   UNL     1      26.009 -18.161  -0.496 -0.57 -0.00    +0.000 A 
DOCKED: ATOM      5  C   UNL     1      27.171 -17.492  -0.889 -0.43 -0.00    +0.000 A 
DOCKED: ATOM      6  C   UNL     1      27.135 -16.578  -1.944 -0.34 -0.00    +0.000 A 
DOCKED: ENDROOT
DOCKED: BRANCH   1   8
DOCKED: ATOM      7  O   UNL     1      24.677 -14.281  -3.832 -1.00 -0.00    +0.000 OA
DOCKED: ATOM      8  S   UNL     1      25.879 -15.176  -3.945 -0.73 -0.00    +0.000 S 
DOCKED: ATOM      9  O   UNL     1      25.801 -15.942  -5.235 -1.10 +0.00    +0.000 OA
DOCKED: BRANCH   8  10
DOCKED: ATOM     10  N   UNL     1      27.315 -14.199  -3.948 -0.27 -0.00    +0.000 N 
DOCKED: ATOM     11  H   UNL     1      27.289 -13.338  -3.471 +0.00 -0.00    +0.000 HD
DOCKED: BRANCH  10  12
DOCKED: ATOM     12  C   UNL     1      28.539 -14.571  -4.606 -0.23 -0.00    +0.000 A 
DOCKED: ATOM     13  C   UNL     1      29.697 -14.923  -3.884 -0.12 -0.00    +0.000 A 
DOCKED: ATOM     14  C   UNL     1      30.866 -15.288  -4.559 -0.08 -0.00    +0.000 A 
DOCKED: ATOM     15  C   UNL     1      30.896 -15.302  -5.955 -0.16 -0.00    +0.000 A 
DOCKED: ATOM     16  C   UNL     1      29.756 -14.947  -6.681 -0.30 -0.00    +0.000 A 
DOCKED: ATOM     17  C   UNL     1      28.584 -14.582  -6.010 -0.34 -0.00    +0.000 A 
DOCKED: ENDBRANCH  10  12
DOCKED: ENDBRANCH   8  10
DOCKED: ENDBRANCH   1   8
DOCKED: BRANCH   3  18
DOCKED: ATOM     18  C   UNL     1      23.524 -18.597  -0.782 -0.83 -0.00    +0.000 C 
DOCKED: ATOM     19  C   UNL     1      22.307 -18.089  -1.028 -0.76 -0.00    +0.000 C 
DOCKED: BRANCH  19  20
DOCKED: ATOM     20  C   UNL     1      21.051 -18.764  -0.642 -0.85 -0.00    +0.000 C 
DOCKED: ATOM     21  N   UNL     1      21.022 -20.117  -0.169 -0.62 -0.00    +0.000 N 
DOCKED: ATOM     22  O   UNL     1      19.975 -18.113  -0.708 -1.95 -0.00    +0.000 OA
DOCKED: ATOM     23  H   UNL     1      21.866 -20.601  -0.015 -0.51 -0.00    +0.000 HD
DOCKED: BRANCH  21  24
DOCKED: ATOM     24  O   UNL     1      19.837 -20.731   0.065 -0.80 -0.00    +0.000 OA
DOCKED: ATOM     25  H   UNL     1      19.193 -20.453  -0.604 -0.31 -0.00    +0.000 HD
DOCKED: ENDBRANCH  21  24
DOCKED: ENDBRANCH  19  20
DOCKED: ENDBRANCH   3  18
DOCKED: TORSDOF 6
DOCKED: TER
DOCKED: ENDMDL
________________________________________________________________________________


	BEGINNING GENETIC ALGORITHM DOCKING 53 of 100
Run: 53 Seed: 1611358120 1632888611 [ Run 53 of 100 GA/GALS ]
Beginning LAMARCKIAN GENETIC ALGORITHM (LGA), with a maximum of 2500000 energy evaluations.

Final-Value: -15.866


	FINAL GENETIC ALGORITHM DOCKED STATE
	_______________________________________________


Detailed state:  trans 23.981 -17.612 -2.535 quatxyzw 0.158406 -0.737559 0.268697 -0.598929 center 0.293 0.181 0.279 ntor 6 1.8886 125.7134 -90.8270 151.0531 -119.0000 -160.9320
State:	 23.981 -17.612  -2.535   0.198 -0.921  0.336 -106.414      1.89  125.71  -90.83  151.05 -119.00 -160.93

DOCKED: MODEL       53
DOCKED: USER    Run = 53
DOCKED: USER    DPF = ligand_dock.biased.dpf
DOCKED: USER  
DOCKED: USER    Estimated Free Energy of Binding    =  -12.48 kcal/mol  [=(1)+(2)+(3)-(4)]
DOCKED: USER    Estimated Inhibition Constant, Ki   =  712.90 pM (picomolar)  [Temperature = 298.15 K]
DOCKED: USER    
DOCKED: USER    (1) Final Intermolecular Energy     =  -14.27 kcal/mol
DOCKED: USER        vdW + Hbond + desolv Energy     =  -14.27 kcal/mol
DOCKED: USER        Electrostatic Energy            =   +0.00 kcal/mol
DOCKED: USER    (2) Final Total Internal Energy     =   -1.60 kcal/mol
DOCKED: USER    (3) Torsional Free Energy           =   +1.79 kcal/mol
DOCKED: USER    (4) Unbound System's Energy  [=(2)] =   -1.60 kcal/mol
DOCKED: USER    
DOCKED: USER    
DOCKED: USER    NEWDPF move ligand.pdbqt
DOCKED: USER    NEWDPF about 0.293000 0.181000 0.279000
DOCKED: USER    NEWDPF tran0 23.980708 -17.611784 -2.534982
DOCKED: USER    NEWDPF quaternion0 0.158406 -0.737559 0.268697 -0.598929
DOCKED: USER    NEWDPF axisangle0 0.197809 -0.921026 0.335534 -106.413516
DOCKED: USER    NEWDPF quat0 0.197809 -0.921026 0.335534 -106.413516
DOCKED: USER    NEWDPF dihe0 1.89 125.71 -90.83 151.05 -119.00 -160.93 
DOCKED: USER  keepresnum = 1 
DOCKED: USER  
DOCKED: REMARK  Name = 
DOCKED: REMARK  6 active torsions:
DOCKED: REMARK  status: ('A' for Active; 'I' for Inactive)
DOCKED: REMARK    1  A    between atoms: S_2  and  N_3
DOCKED: REMARK    2  A    between atoms: S_2  and  C_10
DOCKED: REMARK    3  A    between atoms: N_3  and  C_4
DOCKED: REMARK    4  A    between atoms: C_12  and  C_13
DOCKED: REMARK    5  A    between atoms: C_14  and  C_15
DOCKED: REMARK    6  A    between atoms: N_16  and  O_17
DOCKED: REMARK                            x       y       z     vdW  Elec       q    Type
DOCKED: REMARK                         _______ _______ _______ _____ _____    ______ ____
DOCKED: USER                              x       y       z     vdW  Elec       q    Type
DOCKED: USER                           _______ _______ _______ _____ _____    ______ ____
DOCKED: ROOT
DOCKED: ATOM      1  C   UNL     1      25.900 -16.136  -2.654 -0.46 -0.00    +0.000 A 
DOCKED: ATOM      2  C   UNL     1      24.711 -16.628  -2.099 -0.45 -0.00    +0.000 A 
DOCKED: ATOM      3  C   UNL     1      24.737 -17.463  -0.969 -0.63 -0.00    +0.000 A 
DOCKED: ATOM      4  C   UNL     1      25.980 -17.771  -0.380 -0.58 -0.00    +0.000 A 
DOCKED: ATOM      5  C   UNL     1      27.165 -17.271  -0.928 -0.43 -0.00    +0.000 A 
DOCKED: ATOM      6  C   UNL     1      27.127 -16.459  -2.063 -0.33 -0.00    +0.000 A 
DOCKED: ENDROOT
DOCKED: BRANCH   1   8
DOCKED: ATOM      7  O   UNL     1      24.757 -14.092  -3.975 -1.08 -0.00    +0.000 OA
DOCKED: ATOM      8  S   UNL     1      25.847 -15.119  -4.091 -0.73 -0.00    +0.000 S 
DOCKED: ATOM      9  O   UNL     1      25.577 -15.988  -5.286 -1.06 +0.00    +0.000 OA
DOCKED: BRANCH   8  10
DOCKED: ATOM     10  N   UNL     1      27.368 -14.309  -4.305 -0.30 -0.00    +0.000 N 
DOCKED: ATOM     11  H   UNL     1      27.534 -13.491  -3.783 +0.00 -0.00    +0.000 HD
DOCKED: BRANCH  10  12
DOCKED: ATOM     12  C   UNL     1      28.400 -14.761  -5.201 -0.32 -0.00    +0.000 A 
DOCKED: ATOM     13  C   UNL     1      28.780 -14.018  -6.336 -0.30 -0.00    +0.000 A 
DOCKED: ATOM     14  C   UNL     1      29.793 -14.485  -7.179 -0.27 -0.00    +0.000 A 
DOCKED: ATOM     15  C   UNL     1      30.432 -15.696  -6.904 -0.28 -0.00    +0.000 A 
DOCKED: ATOM     16  C   UNL     1      30.057 -16.445  -5.787 -0.29 -0.00    +0.000 A 
DOCKED: ATOM     17  C   UNL     1      29.045 -15.981  -4.940 -0.29 -0.00    +0.000 A 
DOCKED: ENDBRANCH  10  12
DOCKED: ENDBRANCH   8  10
DOCKED: ENDBRANCH   1   8
DOCKED: BRANCH   3  18
DOCKED: ATOM     18  C   UNL     1      23.448 -17.959  -0.425 -0.79 -0.00    +0.000 C 
DOCKED: ATOM     19  C   UNL     1      22.419 -18.352  -1.191 -0.73 -0.00    +0.000 C 
DOCKED: BRANCH  19  20
DOCKED: ATOM     20  C   UNL     1      21.138 -18.839  -0.642 -0.86 -0.00    +0.000 C 
DOCKED: ATOM     21  N   UNL     1      21.010 -20.124  -0.017 -0.63 -0.00    +0.000 N 
DOCKED: ATOM     22  O   UNL     1      20.131 -18.085  -0.706 -2.08 -0.00    +0.000 OA
DOCKED: ATOM     23  H   UNL     1      21.810 -20.679   0.131 -0.57 -0.00    +0.000 HD
DOCKED: BRANCH  21  24
DOCKED: ATOM     24  O   UNL     1      19.792 -20.575   0.368 -0.79 -0.00    +0.000 OA
DOCKED: ATOM     25  H   UNL     1      19.115 -19.925   0.123 -0.03 -0.00    +0.000 HD
DOCKED: ENDBRANCH  21  24
DOCKED: ENDBRANCH  19  20
DOCKED: ENDBRANCH   3  18
DOCKED: TORSDOF 6
DOCKED: TER
DOCKED: ENDMDL
________________________________________________________________________________


	BEGINNING GENETIC ALGORITHM DOCKING 54 of 100
Run: 54 Seed: 2026470338 1182275889 [ Run 54 of 100 GA/GALS ]
Beginning LAMARCKIAN GENETIC ALGORITHM (LGA), with a maximum of 2500000 energy evaluations.

Final-Value: -15.247


	FINAL GENETIC ALGORITHM DOCKED STATE
	_______________________________________________


Detailed state:  trans 23.640 -17.320 -2.648 quatxyzw 0.102213 -0.759295 0.205478 -0.608935 center 0.293 0.181 0.279 ntor 6 -9.0155 134.0366 -133.8254 -179.9861 -61.5661 180.0000
State:	 23.640 -17.320  -2.648   0.129 -0.957  0.259 -104.975     -9.02  134.04 -133.83 -179.99  -61.57  180.00

DOCKED: MODEL       54
DOCKED: USER    Run = 54
DOCKED: USER    DPF = ligand_dock.biased.dpf
DOCKED: USER  
DOCKED: USER    Estimated Free Energy of Binding    =  -11.96 kcal/mol  [=(1)+(2)+(3)-(4)]
DOCKED: USER    Estimated Inhibition Constant, Ki   =    1.71 nM (nanomolar)  [Temperature = 298.15 K]
DOCKED: USER    
DOCKED: USER    (1) Final Intermolecular Energy     =  -13.75 kcal/mol
DOCKED: USER        vdW + Hbond + desolv Energy     =  -13.75 kcal/mol
DOCKED: USER        Electrostatic Energy            =   +0.00 kcal/mol
DOCKED: USER    (2) Final Total Internal Energy     =   -1.50 kcal/mol
DOCKED: USER    (3) Torsional Free Energy           =   +1.79 kcal/mol
DOCKED: USER    (4) Unbound System's Energy  [=(2)] =   -1.50 kcal/mol
DOCKED: USER    
DOCKED: USER    
DOCKED: USER    NEWDPF move ligand.pdbqt
DOCKED: USER    NEWDPF about 0.293000 0.181000 0.279000
DOCKED: USER    NEWDPF tran0 23.640192 -17.319546 -2.648082
DOCKED: USER    NEWDPF quaternion0 0.102213 -0.759295 0.205478 -0.608935
DOCKED: USER    NEWDPF axisangle0 0.128858 -0.957232 0.259043 -104.974882
DOCKED: USER    NEWDPF quat0 0.128858 -0.957232 0.259043 -104.974882
DOCKED: USER    NEWDPF dihe0 -9.02 134.04 -133.83 -179.99 -61.57 180.00 
DOCKED: USER  keepresnum = 1 
DOCKED: USER  
DOCKED: REMARK  Name = 
DOCKED: REMARK  6 active torsions:
DOCKED: REMARK  status: ('A' for Active; 'I' for Inactive)
DOCKED: REMARK    1  A    between atoms: S_2  and  N_3
DOCKED: REMARK    2  A    between atoms: S_2  and  C_10
DOCKED: REMARK    3  A    between atoms: N_3  and  C_4
DOCKED: REMARK    4  A    between atoms: C_12  and  C_13
DOCKED: REMARK    5  A    between atoms: C_14  and  C_15
DOCKED: REMARK    6  A    between atoms: N_16  and  O_17
DOCKED: REMARK                            x       y       z     vdW  Elec       q    Type
DOCKED: REMARK                         _______ _______ _______ _____ _____    ______ ____
DOCKED: USER                              x       y       z     vdW  Elec       q    Type
DOCKED: USER                           _______ _______ _______ _____ _____    ______ ____
DOCKED: ROOT
DOCKED: ATOM      1  C   UNL     1      25.785 -16.190  -2.678 -0.46 -0.00    +0.000 A 
DOCKED: ATOM      2  C   UNL     1      24.516 -16.489  -2.164 -0.26 -0.00    +0.000 A 
DOCKED: ATOM      3  C   UNL     1      24.372 -17.353  -1.064 -0.64 -0.00    +0.000 A 
DOCKED: ATOM      4  C   UNL     1      25.531 -17.887  -0.463 -0.61 -0.00    +0.000 A 
DOCKED: ATOM      5  C   UNL     1      26.796 -17.579  -0.971 -0.45 -0.00    +0.000 A 
DOCKED: ATOM      6  C   UNL     1      26.924 -16.736  -2.077 -0.32 -0.00    +0.000 A 
DOCKED: ENDROOT
DOCKED: BRANCH   1   8
DOCKED: ATOM      7  O   UNL     1      24.753 -14.217  -4.187 -1.09 -0.00    +0.000 OA
DOCKED: ATOM      8  S   UNL     1      25.940 -15.133  -4.078 -0.73 -0.00    +0.000 S 
DOCKED: ATOM      9  O   UNL     1      26.020 -15.980  -5.316 -1.11 +0.00    +0.000 OA
DOCKED: BRANCH   8  10
DOCKED: ATOM     10  N   UNL     1      27.383 -14.176  -3.946 -0.26 -0.00    +0.000 N 
DOCKED: ATOM     11  H   UNL     1      27.522 -13.660  -3.119 +0.00 -0.00    +0.000 HD
DOCKED: BRANCH  10  12
DOCKED: ATOM     12  C   UNL     1      28.388 -14.092  -4.974 -0.24 -0.00    +0.000 A 
DOCKED: ATOM     13  C   UNL     1      28.765 -12.862  -5.549 -0.15 -0.00    +0.000 A 
DOCKED: ATOM     14  C   UNL     1      29.751 -12.818  -6.539 -0.13 -0.00    +0.000 A 
DOCKED: ATOM     15  C   UNL     1      30.367 -13.996  -6.969 -0.20 -0.00    +0.000 A 
DOCKED: ATOM     16  C   UNL     1      29.995 -15.221  -6.411 -0.28 -0.00    +0.000 A 
DOCKED: ATOM     17  C   UNL     1      29.010 -15.270  -5.420 -0.31 -0.00    +0.000 A 
DOCKED: ENDBRANCH  10  12
DOCKED: ENDBRANCH   8  10
DOCKED: ENDBRANCH   1   8
DOCKED: BRANCH   3  18
DOCKED: ATOM     18  C   UNL     1      23.005 -17.639  -0.562 -0.78 -0.00    +0.000 C 
DOCKED: ATOM     19  C   UNL     1      22.300 -18.728  -0.904 -0.83 -0.00    +0.000 C 
DOCKED: BRANCH  19  20
DOCKED: ATOM     20  C   UNL     1      20.938 -19.004  -0.404 -0.86 -0.00    +0.000 C 
DOCKED: ATOM     21  N   UNL     1      20.642 -20.131   0.433 -0.66 -0.00    +0.000 N 
DOCKED: ATOM     22  O   UNL     1      20.014 -18.204  -0.707 -1.98 -0.00    +0.000 OA
DOCKED: ATOM     23  H   UNL     1      21.372 -20.704   0.760 -0.60 -0.00    +0.000 HD
DOCKED: BRANCH  21  24
DOCKED: ATOM     24  O   UNL     1      19.360 -20.407   0.772 -0.77 -0.00    +0.000 OA
DOCKED: ATOM     25  H   UNL     1      18.787 -19.677   0.492 -0.03 -0.00    +0.000 HD
DOCKED: ENDBRANCH  21  24
DOCKED: ENDBRANCH  19  20
DOCKED: ENDBRANCH   3  18
DOCKED: TORSDOF 6
DOCKED: TER
DOCKED: ENDMDL
________________________________________________________________________________


	BEGINNING GENETIC ALGORITHM DOCKING 55 of 100
Run: 55 Seed: 2130583832 1791221279 [ Run 55 of 100 GA/GALS ]
Beginning LAMARCKIAN GENETIC ALGORITHM (LGA), with a maximum of 2500000 energy evaluations.

Final-Value: -15.741


	FINAL GENETIC ALGORITHM DOCKED STATE
	_______________________________________________


Detailed state:  trans 23.600 -17.481 -2.479 quatxyzw 0.125858 -0.747863 0.217569 -0.614430 center 0.293 0.181 0.279 ntor 6 -11.8025 122.3324 -110.3238 162.7519 -86.6613 -167.2056
State:	 23.600 -17.481  -2.479   0.160 -0.948  0.276 -104.179    -11.80  122.33 -110.32  162.75  -86.66 -167.21

DOCKED: MODEL       55
DOCKED: USER    Run = 55
DOCKED: USER    DPF = ligand_dock.biased.dpf
DOCKED: USER  
DOCKED: USER    Estimated Free Energy of Binding    =  -12.40 kcal/mol  [=(1)+(2)+(3)-(4)]
DOCKED: USER    Estimated Inhibition Constant, Ki   =  808.93 pM (picomolar)  [Temperature = 298.15 K]
DOCKED: USER    
DOCKED: USER    (1) Final Intermolecular Energy     =  -14.19 kcal/mol
DOCKED: USER        vdW + Hbond + desolv Energy     =  -14.19 kcal/mol
DOCKED: USER        Electrostatic Energy            =   +0.00 kcal/mol
DOCKED: USER    (2) Final Total Internal Energy     =   -1.55 kcal/mol
DOCKED: USER    (3) Torsional Free Energy           =   +1.79 kcal/mol
DOCKED: USER    (4) Unbound System's Energy  [=(2)] =   -1.55 kcal/mol
DOCKED: USER    
DOCKED: USER    
DOCKED: USER    NEWDPF move ligand.pdbqt
DOCKED: USER    NEWDPF about 0.293000 0.181000 0.279000
DOCKED: USER    NEWDPF tran0 23.600034 -17.480528 -2.478546
DOCKED: USER    NEWDPF quaternion0 0.125858 -0.747863 0.217569 -0.614430
DOCKED: USER    NEWDPF axisangle0 0.159522 -0.947896 0.275763 -104.178921
DOCKED: USER    NEWDPF quat0 0.159522 -0.947896 0.275763 -104.178921
DOCKED: USER    NEWDPF dihe0 -11.80 122.33 -110.32 162.75 -86.66 -167.21 
DOCKED: USER  keepresnum = 1 
DOCKED: USER  
DOCKED: REMARK  Name = 
DOCKED: REMARK  6 active torsions:
DOCKED: REMARK  status: ('A' for Active; 'I' for Inactive)
DOCKED: REMARK    1  A    between atoms: S_2  and  N_3
DOCKED: REMARK    2  A    between atoms: S_2  and  C_10
DOCKED: REMARK    3  A    between atoms: N_3  and  C_4
DOCKED: REMARK    4  A    between atoms: C_12  and  C_13
DOCKED: REMARK    5  A    between atoms: C_14  and  C_15
DOCKED: REMARK    6  A    between atoms: N_16  and  O_17
DOCKED: REMARK                            x       y       z     vdW  Elec       q    Type
DOCKED: REMARK                         _______ _______ _______ _____ _____    ______ ____
DOCKED: USER                              x       y       z     vdW  Elec       q    Type
DOCKED: USER                           _______ _______ _______ _____ _____    ______ ____
DOCKED: ROOT
DOCKED: ATOM      1  C   UNL     1      25.683 -16.243  -2.566 -0.48 -0.00    +0.000 A 
DOCKED: ATOM      2  C   UNL     1      24.447 -16.609  -2.016 -0.34 -0.00    +0.000 A 
DOCKED: ATOM      3  C   UNL     1      24.379 -17.483  -0.917 -0.65 -0.00    +0.000 A 
DOCKED: ATOM      4  C   UNL     1      25.581 -17.960  -0.354 -0.61 -0.00    +0.000 A 
DOCKED: ATOM      5  C   UNL     1      26.813 -17.586  -0.897 -0.46 -0.00    +0.000 A 
DOCKED: ATOM      6  C   UNL     1      26.866 -16.734  -2.001 -0.35 -0.00    +0.000 A 
DOCKED: ENDROOT
DOCKED: BRANCH   1   8
DOCKED: ATOM      7  O   UNL     1      24.681 -14.115  -3.869 -1.06 -0.00    +0.000 OA
DOCKED: ATOM      8  S   UNL     1      25.743 -15.174  -3.964 -0.72 -0.00    +0.000 S 
DOCKED: ATOM      9  O   UNL     1      25.513 -15.989  -5.204 -1.06 -0.00    +0.000 OA
DOCKED: BRANCH   8  10
DOCKED: ATOM     10  N   UNL     1      27.299 -14.409  -4.063 -0.30 -0.00    +0.000 N 
DOCKED: ATOM     11  H   UNL     1      27.525 -13.732  -3.385 +0.00 -0.00    +0.000 HD
DOCKED: BRANCH  10  12
DOCKED: ATOM     12  C   UNL     1      28.275 -14.703  -5.078 -0.31 -0.00    +0.000 A 
DOCKED: ATOM     13  C   UNL     1      28.609 -13.774  -6.084 -0.27 -0.00    +0.000 A 
DOCKED: ATOM     14  C   UNL     1      29.569 -14.093  -7.049 -0.28 -0.00    +0.000 A 
DOCKED: ATOM     15  C   UNL     1      30.202 -15.338  -7.026 -0.28 -0.00    +0.000 A 
DOCKED: ATOM     16  C   UNL     1      29.873 -16.270  -6.038 -0.31 -0.00    +0.000 A 
DOCKED: ATOM     17  C   UNL     1      28.913 -15.955  -5.071 -0.30 -0.00    +0.000 A 
DOCKED: ENDBRANCH  10  12
DOCKED: ENDBRANCH   8  10
DOCKED: ENDBRANCH   1   8
DOCKED: BRANCH   3  18
DOCKED: ATOM     18  C   UNL     1      23.044 -17.840  -0.376 -0.79 -0.00    +0.000 C 
DOCKED: ATOM     19  C   UNL     1      22.178 -18.647  -1.008 -0.83 -0.00    +0.000 C 
DOCKED: BRANCH  19  20
DOCKED: ATOM     20  C   UNL     1      20.848 -18.994  -0.466 -0.86 -0.00    +0.000 C 
DOCKED: ATOM     21  N   UNL     1      20.631 -20.155   0.347 -0.67 -0.00    +0.000 N 
DOCKED: ATOM     22  O   UNL     1      19.882 -18.225  -0.709 -1.88 -0.00    +0.000 OA
DOCKED: ATOM     23  H   UNL     1      21.396 -20.707   0.629 -0.60 -0.00    +0.000 HD
DOCKED: BRANCH  21  24
DOCKED: ATOM     24  O   UNL     1      19.375 -20.495   0.725 -0.77 -0.00    +0.000 OA
DOCKED: ATOM     25  H   UNL     1      18.770 -19.764   0.528 -0.03 -0.00    +0.000 HD
DOCKED: ENDBRANCH  21  24
DOCKED: ENDBRANCH  19  20
DOCKED: ENDBRANCH   3  18
DOCKED: TORSDOF 6
DOCKED: TER
DOCKED: ENDMDL
________________________________________________________________________________


	BEGINNING GENETIC ALGORITHM DOCKING 56 of 100
Run: 56 Seed: 1567243710 1443605717 [ Run 56 of 100 GA/GALS ]
Beginning LAMARCKIAN GENETIC ALGORITHM (LGA), with a maximum of 2500000 energy evaluations.

Final-Value: -15.432


	FINAL GENETIC ALGORITHM DOCKED STATE
	_______________________________________________


Detailed state:  trans 24.165 -18.413 -2.864 quatxyzw 0.208605 -0.815266 0.360667 -0.402174 center 0.293 0.181 0.279 ntor 6 -1.3855 -74.3223 105.8796 161.8487 126.5063 -133.4315
State:	 24.165 -18.413  -2.864   0.228 -0.890  0.394 -132.572     -1.39  -74.32  105.88  161.85  126.51 -133.43

DOCKED: MODEL       56
DOCKED: USER    Run = 56
DOCKED: USER    DPF = ligand_dock.biased.dpf
DOCKED: USER  
DOCKED: USER    Estimated Free Energy of Binding    =  -12.10 kcal/mol  [=(1)+(2)+(3)-(4)]
DOCKED: USER    Estimated Inhibition Constant, Ki   =    1.34 nM (nanomolar)  [Temperature = 298.15 K]
DOCKED: USER    
DOCKED: USER    (1) Final Intermolecular Energy     =  -13.89 kcal/mol
DOCKED: USER        vdW + Hbond + desolv Energy     =  -13.89 kcal/mol
DOCKED: USER        Electrostatic Energy            =   +0.00 kcal/mol
DOCKED: USER    (2) Final Total Internal Energy     =   -1.54 kcal/mol
DOCKED: USER    (3) Torsional Free Energy           =   +1.79 kcal/mol
DOCKED: USER    (4) Unbound System's Energy  [=(2)] =   -1.54 kcal/mol
DOCKED: USER    
DOCKED: USER    
DOCKED: USER    NEWDPF move ligand.pdbqt
DOCKED: USER    NEWDPF about 0.293000 0.181000 0.279000
DOCKED: USER    NEWDPF tran0 24.164772 -18.413351 -2.863912
DOCKED: USER    NEWDPF quaternion0 0.208605 -0.815266 0.360667 -0.402174
DOCKED: USER    NEWDPF axisangle0 0.227844 -0.890453 0.393929 -132.571744
DOCKED: USER    NEWDPF quat0 0.227844 -0.890453 0.393929 -132.571744
DOCKED: USER    NEWDPF dihe0 -1.39 -74.32 105.88 161.85 126.51 -133.43 
DOCKED: USER  keepresnum = 1 
DOCKED: USER  
DOCKED: REMARK  Name = 
DOCKED: REMARK  6 active torsions:
DOCKED: REMARK  status: ('A' for Active; 'I' for Inactive)
DOCKED: REMARK    1  A    between atoms: S_2  and  N_3
DOCKED: REMARK    2  A    between atoms: S_2  and  C_10
DOCKED: REMARK    3  A    between atoms: N_3  and  C_4
DOCKED: REMARK    4  A    between atoms: C_12  and  C_13
DOCKED: REMARK    5  A    between atoms: C_14  and  C_15
DOCKED: REMARK    6  A    between atoms: N_16  and  O_17
DOCKED: REMARK                            x       y       z     vdW  Elec       q    Type
DOCKED: REMARK                         _______ _______ _______ _____ _____    ______ ____
DOCKED: USER                              x       y       z     vdW  Elec       q    Type
DOCKED: USER                           _______ _______ _______ _____ _____    ______ ____
DOCKED: ROOT
DOCKED: ATOM      1  C   UNL     1      25.529 -16.496  -2.282 -0.50 -0.00    +0.000 A 
DOCKED: ATOM      2  C   UNL     1      24.394 -17.314  -2.207 -0.32 -0.00    +0.000 A 
DOCKED: ATOM      3  C   UNL     1      24.218 -18.203  -1.132 -0.69 -0.00    +0.000 A 
DOCKED: ATOM      4  C   UNL     1      25.188 -18.232  -0.109 -0.61 -0.00    +0.000 A 
DOCKED: ATOM      5  C   UNL     1      26.314 -17.407  -0.180 -0.50 -0.00    +0.000 A 
DOCKED: ATOM      6  C   UNL     1      26.488 -16.545  -1.263 -0.43 -0.00    +0.000 A 
DOCKED: ENDROOT
DOCKED: BRANCH   1   8
DOCKED: ATOM      7  O   UNL     1      24.776 -14.271  -3.590 -0.92 -0.00    +0.000 OA
DOCKED: ATOM      8  S   UNL     1      25.747 -15.416  -3.655 -0.70 -0.00    +0.000 S 
DOCKED: ATOM      9  O   UNL     1      25.508 -16.189  -4.920 -0.80 -0.00    +0.000 OA
DOCKED: BRANCH   8  10
DOCKED: ATOM     10  N   UNL     1      27.366 -14.786  -3.668 -0.28 -0.00    +0.000 N 
DOCKED: ATOM     11  H   UNL     1      27.612 -14.131  -2.975 +0.01 -0.00    +0.000 HD
DOCKED: BRANCH  10  12
DOCKED: ATOM     12  C   UNL     1      28.367 -15.162  -4.631 -0.30 -0.00    +0.000 A 
DOCKED: ATOM     13  C   UNL     1      29.182 -16.298  -4.454 -0.24 -0.00    +0.000 A 
DOCKED: ATOM     14  C   UNL     1      30.139 -16.637  -5.415 -0.27 -0.00    +0.000 A 
DOCKED: ATOM     15  C   UNL     1      30.296 -15.849  -6.558 -0.29 -0.00    +0.000 A 
DOCKED: ATOM     16  C   UNL     1      29.498 -14.717  -6.740 -0.31 -0.00    +0.000 A 
DOCKED: ATOM     17  C   UNL     1      28.540 -14.374  -5.781 -0.32 -0.00    +0.000 A 
DOCKED: ENDBRANCH  10  12
DOCKED: ENDBRANCH   8  10
DOCKED: ENDBRANCH   1   8
DOCKED: BRANCH   3  18
DOCKED: ATOM     18  C   UNL     1      22.999 -19.049  -1.105 -0.80 -0.00    +0.000 C 
DOCKED: ATOM     19  C   UNL     1      21.780 -18.587  -0.791 -0.85 -0.00    +0.000 C 
DOCKED: BRANCH  19  20
DOCKED: ATOM     20  C   UNL     1      20.572 -19.436  -0.760 -0.90 -0.00    +0.000 C 
DOCKED: ATOM     21  N   UNL     1      19.740 -19.543   0.403 -0.72 -0.00    +0.000 N 
DOCKED: ATOM     22  O   UNL     1      20.253 -20.065  -1.804 -1.78 -0.00    +0.000 OA
DOCKED: ATOM     23  H   UNL     1      19.919 -18.979   1.189 -0.24 -0.00    +0.000 HD
DOCKED: BRANCH  21  24
DOCKED: ATOM     24  O   UNL     1      18.708 -20.422   0.422 -0.81 -0.00    +0.000 OA
DOCKED: ATOM     25  H   UNL     1      18.658 -20.880  -0.431 -0.32 -0.00    +0.000 HD
DOCKED: ENDBRANCH  21  24
DOCKED: ENDBRANCH  19  20
DOCKED: ENDBRANCH   3  18
DOCKED: TORSDOF 6
DOCKED: TER
DOCKED: ENDMDL
________________________________________________________________________________


	BEGINNING GENETIC ALGORITHM DOCKING 57 of 100
Run: 57 Seed: 509238089 1009201914 [ Run 57 of 100 GA/GALS ]
Beginning LAMARCKIAN GENETIC ALGORITHM (LGA), with a maximum of 2500000 energy evaluations.

Final-Value: -15.001


	FINAL GENETIC ALGORITHM DOCKED STATE
	_______________________________________________


Detailed state:  trans 24.645 -14.954 -0.960 quatxyzw -0.388858 0.679216 0.460711 0.418569 center 0.293 0.181 0.279 ntor 6 21.9077 3.5717 155.4801 -96.7360 46.1693 128.3808
State:	 24.645 -14.954  -0.960  -0.428  0.748  0.507 130.511     21.91    3.57  155.48  -96.74   46.17  128.38

DOCKED: MODEL       57
DOCKED: USER    Run = 57
DOCKED: USER    DPF = ligand_dock.biased.dpf
DOCKED: USER  
DOCKED: USER    Estimated Free Energy of Binding    =  -11.91 kcal/mol  [=(1)+(2)+(3)-(4)]
DOCKED: USER    Estimated Inhibition Constant, Ki   =    1.85 nM (nanomolar)  [Temperature = 298.15 K]
DOCKED: USER    
DOCKED: USER    (1) Final Intermolecular Energy     =  -13.70 kcal/mol
DOCKED: USER        vdW + Hbond + desolv Energy     =  -13.70 kcal/mol
DOCKED: USER        Electrostatic Energy            =   +0.00 kcal/mol
DOCKED: USER    (2) Final Total Internal Energy     =   -1.30 kcal/mol
DOCKED: USER    (3) Torsional Free Energy           =   +1.79 kcal/mol
DOCKED: USER    (4) Unbound System's Energy  [=(2)] =   -1.30 kcal/mol
DOCKED: USER    
DOCKED: USER    
DOCKED: USER    NEWDPF move ligand.pdbqt
DOCKED: USER    NEWDPF about 0.293000 0.181000 0.279000
DOCKED: USER    NEWDPF tran0 24.645241 -14.953985 -0.960023
DOCKED: USER    NEWDPF quaternion0 -0.388858 0.679216 0.460711 0.418569
DOCKED: USER    NEWDPF axisangle0 -0.428170 0.747883 0.507288 130.511442
DOCKED: USER    NEWDPF quat0 -0.428170 0.747883 0.507288 130.511442
DOCKED: USER    NEWDPF dihe0 21.91 3.57 155.48 -96.74 46.17 128.38 
DOCKED: USER  keepresnum = 1 
DOCKED: USER  
DOCKED: REMARK  Name = 
DOCKED: REMARK  6 active torsions:
DOCKED: REMARK  status: ('A' for Active; 'I' for Inactive)
DOCKED: REMARK    1  A    between atoms: S_2  and  N_3
DOCKED: REMARK    2  A    between atoms: S_2  and  C_10
DOCKED: REMARK    3  A    between atoms: N_3  and  C_4
DOCKED: REMARK    4  A    between atoms: C_12  and  C_13
DOCKED: REMARK    5  A    between atoms: C_14  and  C_15
DOCKED: REMARK    6  A    between atoms: N_16  and  O_17
DOCKED: REMARK                            x       y       z     vdW  Elec       q    Type
DOCKED: REMARK                         _______ _______ _______ _____ _____    ______ ____
DOCKED: USER                              x       y       z     vdW  Elec       q    Type
DOCKED: USER                           _______ _______ _______ _____ _____    ______ ____
DOCKED: ROOT
DOCKED: ATOM      1  C   UNL     1      26.981 -15.235  -0.375 -0.30 -0.00    +0.000 A 
DOCKED: ATOM      2  C   UNL     1      25.616 -15.549  -0.332 -0.02 -0.00    +0.000 A 
DOCKED: ATOM      3  C   UNL     1      25.105 -16.634  -1.065 -0.54 -0.00    +0.000 A 
DOCKED: ATOM      4  C   UNL     1      25.996 -17.425  -1.818 -0.33 -0.00    +0.000 A 
DOCKED: ATOM      5  C   UNL     1      27.359 -17.117  -1.852 -0.24 -0.00    +0.000 A 
DOCKED: ATOM      6  C   UNL     1      27.851 -16.024  -1.136 -0.29 -0.00    +0.000 A 
DOCKED: ENDROOT
DOCKED: BRANCH   1   8
DOCKED: ATOM      7  O   UNL     1      26.519 -12.817   0.706 -0.34 -0.00    +0.000 OA
DOCKED: ATOM      8  S   UNL     1      27.595 -13.850   0.523 -0.31 -0.00    +0.000 S 
DOCKED: ATOM      9  O   UNL     1      28.732 -13.242  -0.246 -0.09 -0.00    +0.000 OA
DOCKED: BRANCH   8  10
DOCKED: ATOM     10  N   UNL     1      28.166 -14.356   2.083 -0.28 -0.00    +0.000 N 
DOCKED: ATOM     11  H   UNL     1      28.532 -15.266   2.169 -1.54 -0.00    +0.000 HD
DOCKED: BRANCH  10  12
DOCKED: ATOM     12  C   UNL     1      28.134 -13.525   3.258 -0.32 -0.00    +0.000 A 
DOCKED: ATOM     13  C   UNL     1      27.786 -12.161   3.198 -0.25 +0.00    +0.000 A 
DOCKED: ATOM     14  C   UNL     1      27.758 -11.387   4.362 -0.31 +0.00    +0.000 A 
DOCKED: ATOM     15  C   UNL     1      28.081 -11.960   5.594 -0.37 +0.00    +0.000 A 
DOCKED: ATOM     16  C   UNL     1      28.436 -13.310   5.664 -0.41 -0.00    +0.000 A 
DOCKED: ATOM     17  C   UNL     1      28.465 -14.088   4.502 -0.46 -0.00    +0.000 A 
DOCKED: ENDBRANCH  10  12
DOCKED: ENDBRANCH   8  10
DOCKED: ENDBRANCH   1   8
DOCKED: BRANCH   3  18
DOCKED: ATOM     18  C   UNL     1      23.651 -16.921  -0.986 -0.62 -0.00    +0.000 C 
DOCKED: ATOM     19  C   UNL     1      23.118 -18.131  -1.213 -0.77 -0.00    +0.000 C 
DOCKED: BRANCH  19  20
DOCKED: ATOM     20  C   UNL     1      21.669 -18.407  -1.138 -0.66 -0.00    +0.000 C 
DOCKED: ATOM     21  N   UNL     1      21.111 -19.674  -1.510 -0.71 -0.00    +0.000 N 
DOCKED: ATOM     22  O   UNL     1      20.906 -17.502  -0.708 -2.08 -0.00    +0.000 OA
DOCKED: ATOM     23  H   UNL     1      21.705 -20.422  -1.750 -0.39 -0.00    +0.000 HD
DOCKED: BRANCH  21  24
DOCKED: ATOM     24  O   UNL     1      19.766 -19.845  -1.534 -1.64 -0.00    +0.000 OA
DOCKED: ATOM     25  H   UNL     1      19.333 -18.982  -1.620 -0.41 -0.00    +0.000 HD
DOCKED: ENDBRANCH  21  24
DOCKED: ENDBRANCH  19  20
DOCKED: ENDBRANCH   3  18
DOCKED: TORSDOF 6
DOCKED: TER
DOCKED: ENDMDL
________________________________________________________________________________


	BEGINNING GENETIC ALGORITHM DOCKING 58 of 100
Run: 58 Seed: 873422095 1195684760 [ Run 58 of 100 GA/GALS ]
Beginning LAMARCKIAN GENETIC ALGORITHM (LGA), with a maximum of 2500000 energy evaluations.

Final-Value: -14.840


	FINAL GENETIC ALGORITHM DOCKED STATE
	_______________________________________________


Detailed state:  trans 23.833 -17.166 -2.889 quatxyzw -0.099913 0.815834 -0.174440 0.542220 center 0.293 0.181 0.279 ntor 6 2.8923 119.6399 174.0669 53.9985 -9.5174 156.4167
State:	 23.833 -17.166  -2.889  -0.119  0.971 -0.208 114.330      2.89  119.64  174.07   54.00   -9.52  156.42

DOCKED: MODEL       58
DOCKED: USER    Run = 58
DOCKED: USER    DPF = ligand_dock.biased.dpf
DOCKED: USER  
DOCKED: USER    Estimated Free Energy of Binding    =  -11.22 kcal/mol  [=(1)+(2)+(3)-(4)]
DOCKED: USER    Estimated Inhibition Constant, Ki   =    5.93 nM (nanomolar)  [Temperature = 298.15 K]
DOCKED: USER    
DOCKED: USER    (1) Final Intermolecular Energy     =  -13.01 kcal/mol
DOCKED: USER        vdW + Hbond + desolv Energy     =  -13.01 kcal/mol
DOCKED: USER        Electrostatic Energy            =   +0.00 kcal/mol
DOCKED: USER    (2) Final Total Internal Energy     =   -1.83 kcal/mol
DOCKED: USER    (3) Torsional Free Energy           =   +1.79 kcal/mol
DOCKED: USER    (4) Unbound System's Energy  [=(2)] =   -1.83 kcal/mol
DOCKED: USER    
DOCKED: USER    
DOCKED: USER    NEWDPF move ligand.pdbqt
DOCKED: USER    NEWDPF about 0.293000 0.181000 0.279000
DOCKED: USER    NEWDPF tran0 23.832937 -17.166244 -2.888883
DOCKED: USER    NEWDPF quaternion0 -0.099913 0.815834 -0.174440 0.542220
DOCKED: USER    NEWDPF axisangle0 -0.118911 0.970958 -0.207609 114.330175
DOCKED: USER    NEWDPF quat0 -0.118911 0.970958 -0.207609 114.330175
DOCKED: USER    NEWDPF dihe0 2.89 119.64 174.07 54.00 -9.52 156.42 
DOCKED: USER  keepresnum = 1 
DOCKED: USER  
DOCKED: REMARK  Name = 
DOCKED: REMARK  6 active torsions:
DOCKED: REMARK  status: ('A' for Active; 'I' for Inactive)
DOCKED: REMARK    1  A    between atoms: S_2  and  N_3
DOCKED: REMARK    2  A    between atoms: S_2  and  C_10
DOCKED: REMARK    3  A    between atoms: N_3  and  C_4
DOCKED: REMARK    4  A    between atoms: C_12  and  C_13
DOCKED: REMARK    5  A    between atoms: C_14  and  C_15
DOCKED: REMARK    6  A    between atoms: N_16  and  O_17
DOCKED: REMARK                            x       y       z     vdW  Elec       q    Type
DOCKED: REMARK                         _______ _______ _______ _____ _____    ______ ____
DOCKED: USER                              x       y       z     vdW  Elec       q    Type
DOCKED: USER                           _______ _______ _______ _____ _____    ______ ____
DOCKED: ROOT
DOCKED: ATOM      1  C   UNL     1      25.974 -16.107  -2.475 -0.45 -0.00    +0.000 A 
DOCKED: ATOM      2  C   UNL     1      24.632 -16.405  -2.201 -0.34 -0.00    +0.000 A 
DOCKED: ATOM      3  C   UNL     1      24.293 -17.348  -1.215 -0.64 -0.00    +0.000 A 
DOCKED: ATOM      4  C   UNL     1      25.326 -17.964  -0.480 -0.62 -0.00    +0.000 A 
DOCKED: ATOM      5  C   UNL     1      26.663 -17.658  -0.747 -0.49 -0.00    +0.000 A 
DOCKED: ATOM      6  C   UNL     1      26.988 -16.735  -1.743 -0.38 -0.00    +0.000 A 
DOCKED: ENDROOT
DOCKED: BRANCH   1   8
DOCKED: ATOM      7  O   UNL     1      25.131 -14.387  -4.363 -1.01 -0.00    +0.000 OA
DOCKED: ATOM      8  S   UNL     1      26.378 -14.948  -3.739 -0.61 -0.00    +0.000 S 
DOCKED: ATOM      9  O   UNL     1      27.183 -15.649  -4.796 -0.82 -0.00    +0.000 OA
DOCKED: BRANCH   8  10
DOCKED: ATOM     10  N   UNL     1      27.316 -13.646  -3.076 -0.19 -0.00    +0.000 N 
DOCKED: ATOM     11  H   UNL     1      27.590 -12.919  -3.681 +0.00 -0.00    +0.000 HD
DOCKED: BRANCH  10  12
DOCKED: ATOM     12  C   UNL     1      27.717 -13.565  -1.696 -0.14 -0.00    +0.000 A 
DOCKED: ATOM     13  C   UNL     1      29.052 -13.768  -1.295 -0.07 -0.00    +0.000 A 
DOCKED: ATOM     14  C   UNL     1      29.405 -13.674   0.055 -0.08 -0.00    +0.000 A 
DOCKED: ATOM     15  C   UNL     1      28.435 -13.382   1.016 -0.15 -0.00    +0.000 A 
DOCKED: ATOM     16  C   UNL     1      27.107 -13.187   0.630 -0.24 -0.00    +0.000 A 
DOCKED: ATOM     17  C   UNL     1      26.749 -13.280  -0.719 -0.17 -0.00    +0.000 A 
DOCKED: ENDBRANCH  10  12
DOCKED: ENDBRANCH   8  10
DOCKED: ENDBRANCH   1   8
DOCKED: BRANCH   3  18
DOCKED: ATOM     18  C   UNL     1      22.857 -17.629  -0.968 -0.74 -0.00    +0.000 C 
DOCKED: ATOM     19  C   UNL     1      22.391 -18.820  -0.561 -0.83 -0.00    +0.000 C 
DOCKED: BRANCH  19  20
DOCKED: ATOM     20  C   UNL     1      20.960 -19.094  -0.322 -0.85 -0.00    +0.000 C 
DOCKED: ATOM     21  N   UNL     1      20.508 -20.275   0.354 -0.67 -0.00    +0.000 N 
DOCKED: ATOM     22  O   UNL     1      20.113 -18.244  -0.706 -2.05 -0.00    +0.000 OA
DOCKED: ATOM     23  H   UNL     1      21.163 -20.895   0.749 -0.59 -0.00    +0.000 HD
DOCKED: BRANCH  21  24
DOCKED: ATOM     24  O   UNL     1      19.183 -20.539   0.449 -0.79 -0.00    +0.000 OA
DOCKED: ATOM     25  H   UNL     1      18.683 -19.859  -0.028 -0.06 -0.00    +0.000 HD
DOCKED: ENDBRANCH  21  24
DOCKED: ENDBRANCH  19  20
DOCKED: ENDBRANCH   3  18
DOCKED: TORSDOF 6
DOCKED: TER
DOCKED: ENDMDL
________________________________________________________________________________


	BEGINNING GENETIC ALGORITHM DOCKING 59 of 100
Run: 59 Seed: 2134449954 333698240 [ Run 59 of 100 GA/GALS ]
Beginning LAMARCKIAN GENETIC ALGORITHM (LGA), with a maximum of 2500000 energy evaluations.

Final-Value: -14.389


	FINAL GENETIC ALGORITHM DOCKED STATE
	_______________________________________________


Detailed state:  trans 25.315 -14.762 -0.863 quatxyzw 0.525127 -0.617199 -0.465762 -0.355490 center 0.293 0.181 0.279 ntor 6 -126.7983 -155.4462 -89.8728 -113.2528 123.1484 138.3770
State:	 25.315 -14.762  -0.863   0.562 -0.660 -0.498 -138.353   -126.80 -155.45  -89.87 -113.25  123.15  138.38

DOCKED: MODEL       59
DOCKED: USER    Run = 59
DOCKED: USER    DPF = ligand_dock.biased.dpf
DOCKED: USER  
DOCKED: USER    Estimated Free Energy of Binding    =  -11.68 kcal/mol  [=(1)+(2)+(3)-(4)]
DOCKED: USER    Estimated Inhibition Constant, Ki   =    2.73 nM (nanomolar)  [Temperature = 298.15 K]
DOCKED: USER    
DOCKED: USER    (1) Final Intermolecular Energy     =  -13.47 kcal/mol
DOCKED: USER        vdW + Hbond + desolv Energy     =  -13.47 kcal/mol
DOCKED: USER        Electrostatic Energy            =   +0.00 kcal/mol
DOCKED: USER    (2) Final Total Internal Energy     =   -0.92 kcal/mol
DOCKED: USER    (3) Torsional Free Energy           =   +1.79 kcal/mol
DOCKED: USER    (4) Unbound System's Energy  [=(2)] =   -0.92 kcal/mol
DOCKED: USER    
DOCKED: USER    
DOCKED: USER    NEWDPF move ligand.pdbqt
DOCKED: USER    NEWDPF about 0.293000 0.181000 0.279000
DOCKED: USER    NEWDPF tran0 25.314820 -14.762429 -0.863332
DOCKED: USER    NEWDPF quaternion0 0.525127 -0.617199 -0.465762 -0.355490
DOCKED: USER    NEWDPF axisangle0 0.561825 -0.660331 -0.498312 -138.353103
DOCKED: USER    NEWDPF quat0 0.561825 -0.660331 -0.498312 -138.353103
DOCKED: USER    NEWDPF dihe0 -126.80 -155.45 -89.87 -113.25 123.15 138.38 
DOCKED: USER  keepresnum = 1 
DOCKED: USER  
DOCKED: REMARK  Name = 
DOCKED: REMARK  6 active torsions:
DOCKED: REMARK  status: ('A' for Active; 'I' for Inactive)
DOCKED: REMARK    1  A    between atoms: S_2  and  N_3
DOCKED: REMARK    2  A    between atoms: S_2  and  C_10
DOCKED: REMARK    3  A    between atoms: N_3  and  C_4
DOCKED: REMARK    4  A    between atoms: C_12  and  C_13
DOCKED: REMARK    5  A    between atoms: C_14  and  C_15
DOCKED: REMARK    6  A    between atoms: N_16  and  O_17
DOCKED: REMARK                            x       y       z     vdW  Elec       q    Type
DOCKED: REMARK                         _______ _______ _______ _____ _____    ______ ____
DOCKED: USER                              x       y       z     vdW  Elec       q    Type
DOCKED: USER                           _______ _______ _______ _____ _____    ______ ____
DOCKED: ROOT
DOCKED: ATOM      1  C   UNL     1      27.562 -14.818   0.044 -0.25 -0.00    +0.000 A 
DOCKED: ATOM      2  C   UNL     1      26.286 -15.336  -0.216 -0.20 -0.00    +0.000 A 
DOCKED: ATOM      3  C   UNL     1      26.089 -16.280  -1.239 -0.45 -0.00    +0.000 A 
DOCKED: ATOM      4  C   UNL     1      27.205 -16.726  -1.977 -0.32 -0.00    +0.000 A 
DOCKED: ATOM      5  C   UNL     1      28.479 -16.216  -1.709 -0.25 -0.00    +0.000 A 
DOCKED: ATOM      6  C   UNL     1      28.658 -15.263  -0.705 -0.18 -0.00    +0.000 A 
DOCKED: ENDROOT
DOCKED: BRANCH   1   8
DOCKED: ATOM      7  O   UNL     1      26.464 -12.992   1.684 -0.41 -0.00    +0.000 OA
DOCKED: ATOM      8  S   UNL     1      27.781 -13.610   1.306 -0.33 -0.00    +0.000 S 
DOCKED: ATOM      9  O   UNL     1      28.696 -12.535   0.792 -0.11 -0.00    +0.000 OA
DOCKED: BRANCH   8  10
DOCKED: ATOM     10  N   UNL     1      28.490 -14.338   2.714 -0.29 -0.00    +0.000 N 
DOCKED: ATOM     11  H   UNL     1      28.885 -15.236   2.621 -1.98 -0.00    +0.000 HD
DOCKED: BRANCH  10  12
DOCKED: ATOM     12  C   UNL     1      28.533 -13.710   4.008 -0.37 -0.00    +0.000 A 
DOCKED: ATOM     13  C   UNL     1      29.341 -14.207   5.051 -0.34 -0.00    +0.000 A 
DOCKED: ATOM     14  C   UNL     1      29.363 -13.564   6.293 -0.32 -0.00    +0.000 A 
DOCKED: ATOM     15  C   UNL     1      28.581 -12.428   6.510 -0.37 -0.00    +0.000 A 
DOCKED: ATOM     16  C   UNL     1      27.771 -11.932   5.485 -0.35 +0.00    +0.000 A 
DOCKED: ATOM     17  C   UNL     1      27.746 -12.571   4.241 -0.33 -0.00    +0.000 A 
DOCKED: ENDBRANCH  10  12
DOCKED: ENDBRANCH   8  10
DOCKED: ENDBRANCH   1   8
DOCKED: BRANCH   3  18
DOCKED: ATOM     18  C   UNL     1      24.717 -16.794  -1.475 -0.65 -0.00    +0.000 C 
DOCKED: ATOM     19  C   UNL     1      24.132 -17.729  -0.712 -0.76 -0.00    +0.000 C 
DOCKED: BRANCH  19  20
DOCKED: ATOM     20  C   UNL     1      22.767 -18.239  -0.956 -0.82 -0.00    +0.000 C 
DOCKED: ATOM     21  N   UNL     1      21.597 -17.449  -0.706 -0.72 -0.00    +0.000 N 
DOCKED: ATOM     22  O   UNL     1      22.635 -19.401  -1.424 -0.82 -0.00    +0.000 OA
DOCKED: ATOM     23  H   UNL     1      21.690 -16.505  -0.439 -0.05 -0.00    +0.000 HD
DOCKED: BRANCH  21  24
DOCKED: ATOM     24  O   UNL     1      20.365 -17.997  -0.836 -2.20 -0.00    +0.000 OA
DOCKED: ATOM     25  H   UNL     1      19.829 -17.450  -1.430 -0.61 -0.00    +0.000 HD
DOCKED: ENDBRANCH  21  24
DOCKED: ENDBRANCH  19  20
DOCKED: ENDBRANCH   3  18
DOCKED: TORSDOF 6
DOCKED: TER
DOCKED: ENDMDL
________________________________________________________________________________


	BEGINNING GENETIC ALGORITHM DOCKING 60 of 100
Run: 60 Seed: 281545854 878790445 [ Run 60 of 100 GA/GALS ]
Beginning LAMARCKIAN GENETIC ALGORITHM (LGA), with a maximum of 2500000 energy evaluations.

Final-Value: -15.687


	FINAL GENETIC ALGORITHM DOCKED STATE
	_______________________________________________


Detailed state:  trans 23.938 -17.499 -2.590 quatxyzw 0.139901 -0.737700 0.235363 -0.617115 center 0.293 0.181 0.279 ntor 6 -6.4121 122.5710 -103.1109 171.5612 -102.2382 -172.9817
State:	 23.938 -17.499  -2.590   0.178 -0.938  0.299 -103.788     -6.41  122.57 -103.11  171.56 -102.24 -172.98

DOCKED: MODEL       60
DOCKED: USER    Run = 60
DOCKED: USER    DPF = ligand_dock.biased.dpf
DOCKED: USER  
DOCKED: USER    Estimated Free Energy of Binding    =  -12.35 kcal/mol  [=(1)+(2)+(3)-(4)]
DOCKED: USER    Estimated Inhibition Constant, Ki   =  881.56 pM (picomolar)  [Temperature = 298.15 K]
DOCKED: USER    
DOCKED: USER    (1) Final Intermolecular Energy     =  -14.14 kcal/mol
DOCKED: USER        vdW + Hbond + desolv Energy     =  -14.14 kcal/mol
DOCKED: USER        Electrostatic Energy            =   +0.00 kcal/mol
DOCKED: USER    (2) Final Total Internal Energy     =   -1.54 kcal/mol
DOCKED: USER    (3) Torsional Free Energy           =   +1.79 kcal/mol
DOCKED: USER    (4) Unbound System's Energy  [=(2)] =   -1.54 kcal/mol
DOCKED: USER    
DOCKED: USER    
DOCKED: USER    NEWDPF move ligand.pdbqt
DOCKED: USER    NEWDPF about 0.293000 0.181000 0.279000
DOCKED: USER    NEWDPF tran0 23.937971 -17.499157 -2.590214
DOCKED: USER    NEWDPF quaternion0 0.139901 -0.737700 0.235363 -0.617115
DOCKED: USER    NEWDPF axisangle0 0.177794 -0.937508 0.299111 -103.788430
DOCKED: USER    NEWDPF quat0 0.177794 -0.937508 0.299111 -103.788430
DOCKED: USER    NEWDPF dihe0 -6.41 122.57 -103.11 171.56 -102.24 -172.98 
DOCKED: USER  keepresnum = 1 
DOCKED: USER  
DOCKED: REMARK  Name = 
DOCKED: REMARK  6 active torsions:
DOCKED: REMARK  status: ('A' for Active; 'I' for Inactive)
DOCKED: REMARK    1  A    between atoms: S_2  and  N_3
DOCKED: REMARK    2  A    between atoms: S_2  and  C_10
DOCKED: REMARK    3  A    between atoms: N_3  and  C_4
DOCKED: REMARK    4  A    between atoms: C_12  and  C_13
DOCKED: REMARK    5  A    between atoms: C_14  and  C_15
DOCKED: REMARK    6  A    between atoms: N_16  and  O_17
DOCKED: REMARK                            x       y       z     vdW  Elec       q    Type
DOCKED: REMARK                         _______ _______ _______ _____ _____    ______ ____
DOCKED: USER                              x       y       z     vdW  Elec       q    Type
DOCKED: USER                           _______ _______ _______ _____ _____    ______ ____
DOCKED: ROOT
DOCKED: ATOM      1  C   UNL     1      25.962 -16.172  -2.733 -0.43 -0.00    +0.000 A 
DOCKED: ATOM      2  C   UNL     1      24.753 -16.584  -2.155 -0.47 -0.00    +0.000 A 
DOCKED: ATOM      3  C   UNL     1      24.744 -17.444  -1.044 -0.63 -0.00    +0.000 A 
DOCKED: ATOM      4  C   UNL     1      25.975 -17.859  -0.496 -0.58 -0.00    +0.000 A 
DOCKED: ATOM      5  C   UNL     1      27.180 -17.439  -1.066 -0.42 -0.00    +0.000 A 
DOCKED: ATOM      6  C   UNL     1      27.175 -16.602  -2.183 -0.30 -0.00    +0.000 A 
DOCKED: ENDROOT
DOCKED: BRANCH   1   8
DOCKED: ATOM      7  O   UNL     1      24.761 -14.204  -4.116 -1.10 -0.00    +0.000 OA
DOCKED: ATOM      8  S   UNL     1      25.950 -15.123  -4.147 -0.73 -0.00    +0.000 S 
DOCKED: ATOM      9  O   UNL     1      25.877 -15.977  -5.381 -1.13 +0.00    +0.000 OA
DOCKED: BRANCH   8  10
DOCKED: ATOM     10  N   UNL     1      27.401 -14.171  -4.196 -0.27 -0.00    +0.000 N 
DOCKED: ATOM     11  H   UNL     1      27.575 -13.555  -3.448 +0.00 -0.00    +0.000 HD
DOCKED: BRANCH  10  12
DOCKED: ATOM     12  C   UNL     1      28.363 -14.228  -5.265 -0.28 -0.00    +0.000 A 
DOCKED: ATOM     13  C   UNL     1      28.550 -13.154  -6.158 -0.22 -0.00    +0.000 A 
DOCKED: ATOM     14  C   UNL     1      29.501 -13.243  -7.179 -0.22 -0.00    +0.000 A 
DOCKED: ATOM     15  C   UNL     1      30.270 -14.400  -7.324 -0.23 -0.00    +0.000 A 
DOCKED: ATOM     16  C   UNL     1      30.087 -15.473  -6.449 -0.29 -0.00    +0.000 A 
DOCKED: ATOM     17  C   UNL     1      29.138 -15.389  -5.426 -0.30 -0.00    +0.000 A 
DOCKED: ENDBRANCH  10  12
DOCKED: ENDBRANCH   8  10
DOCKED: ENDBRANCH   1   8
DOCKED: BRANCH   3  18
DOCKED: ATOM     18  C   UNL     1      23.436 -17.852  -0.473 -0.78 -0.00    +0.000 C 
DOCKED: ATOM     19  C   UNL     1      22.470 -18.452  -1.184 -0.76 -0.00    +0.000 C 
DOCKED: BRANCH  19  20
DOCKED: ATOM     20  C   UNL     1      21.168 -18.850  -0.612 -0.86 -0.00    +0.000 C 
DOCKED: ATOM     21  N   UNL     1      20.981 -20.096   0.073 -0.63 -0.00    +0.000 N 
DOCKED: ATOM     22  O   UNL     1      20.199 -18.051  -0.710 -2.14 -0.00    +0.000 OA
DOCKED: ATOM     23  H   UNL     1      21.753 -20.682   0.247 -0.59 -0.00    +0.000 HD
DOCKED: BRANCH  21  24
DOCKED: ATOM     24  O   UNL     1      19.744 -20.468   0.481 -0.78 -0.00    +0.000 OA
DOCKED: ATOM     25  H   UNL     1      19.120 -19.743   0.325 -0.02 -0.00    +0.000 HD
DOCKED: ENDBRANCH  21  24
DOCKED: ENDBRANCH  19  20
DOCKED: ENDBRANCH   3  18
DOCKED: TORSDOF 6
DOCKED: TER
DOCKED: ENDMDL
________________________________________________________________________________


	BEGINNING GENETIC ALGORITHM DOCKING 61 of 100
Run: 61 Seed: 443940296 134455903 [ Run 61 of 100 GA/GALS ]
Beginning LAMARCKIAN GENETIC ALGORITHM (LGA), with a maximum of 2500000 energy evaluations.

Final-Value: -15.233


	FINAL GENETIC ALGORITHM DOCKED STATE
	_______________________________________________


Detailed state:  trans 23.928 -17.265 -2.880 quatxyzw 0.075110 -0.808966 0.187815 -0.551959 center 0.293 0.181 0.279 ntor 6 6.5067 -78.6699 179.5869 159.9989 -16.5833 -151.2024
State:	 23.928 -17.265  -2.880   0.090 -0.970  0.225 -112.997      6.51  -78.67  179.59  160.00  -16.58 -151.20

DOCKED: MODEL       61
DOCKED: USER    Run = 61
DOCKED: USER    DPF = ligand_dock.biased.dpf
DOCKED: USER  
DOCKED: USER    Estimated Free Energy of Binding    =  -11.92 kcal/mol  [=(1)+(2)+(3)-(4)]
DOCKED: USER    Estimated Inhibition Constant, Ki   =    1.82 nM (nanomolar)  [Temperature = 298.15 K]
DOCKED: USER    
DOCKED: USER    (1) Final Intermolecular Energy     =  -13.71 kcal/mol
DOCKED: USER        vdW + Hbond + desolv Energy     =  -13.71 kcal/mol
DOCKED: USER        Electrostatic Energy            =   +0.00 kcal/mol
DOCKED: USER    (2) Final Total Internal Energy     =   -1.52 kcal/mol
DOCKED: USER    (3) Torsional Free Energy           =   +1.79 kcal/mol
DOCKED: USER    (4) Unbound System's Energy  [=(2)] =   -1.52 kcal/mol
DOCKED: USER    
DOCKED: USER    
DOCKED: USER    NEWDPF move ligand.pdbqt
DOCKED: USER    NEWDPF about 0.293000 0.181000 0.279000
DOCKED: USER    NEWDPF tran0 23.927737 -17.265093 -2.880420
DOCKED: USER    NEWDPF quaternion0 0.075110 -0.808966 0.187815 -0.551959
DOCKED: USER    NEWDPF axisangle0 0.090074 -0.970132 0.225233 -112.997040
DOCKED: USER    NEWDPF quat0 0.090074 -0.970132 0.225233 -112.997040
DOCKED: USER    NEWDPF dihe0 6.51 -78.67 179.59 160.00 -16.58 -151.20 
DOCKED: USER  keepresnum = 1 
DOCKED: USER  
DOCKED: REMARK  Name = 
DOCKED: REMARK  6 active torsions:
DOCKED: REMARK  status: ('A' for Active; 'I' for Inactive)
DOCKED: REMARK    1  A    between atoms: S_2  and  N_3
DOCKED: REMARK    2  A    between atoms: S_2  and  C_10
DOCKED: REMARK    3  A    between atoms: N_3  and  C_4
DOCKED: REMARK    4  A    between atoms: C_12  and  C_13
DOCKED: REMARK    5  A    between atoms: C_14  and  C_15
DOCKED: REMARK    6  A    between atoms: N_16  and  O_17
DOCKED: REMARK                            x       y       z     vdW  Elec       q    Type
DOCKED: REMARK                         _______ _______ _______ _____ _____    ______ ____
DOCKED: USER                              x       y       z     vdW  Elec       q    Type
DOCKED: USER                           _______ _______ _______ _____ _____    ______ ____
DOCKED: ROOT
DOCKED: ATOM      1  C   UNL     1      26.102 -16.246  -2.548 -0.43 -0.00    +0.000 A 
DOCKED: ATOM      2  C   UNL     1      24.757 -16.491  -2.243 -0.42 -0.00    +0.000 A 
DOCKED: ATOM      3  C   UNL     1      24.404 -17.371  -1.205 -0.64 -0.00    +0.000 A 
DOCKED: ATOM      4  C   UNL     1      25.429 -17.977  -0.449 -0.62 -0.00    +0.000 A 
DOCKED: ATOM      5  C   UNL     1      26.770 -17.723  -0.748 -0.48 -0.00    +0.000 A 
DOCKED: ATOM      6  C   UNL     1      27.108 -16.864  -1.795 -0.34 -0.00    +0.000 A 
DOCKED: ENDROOT
DOCKED: BRANCH   1   8
DOCKED: ATOM      7  O   UNL     1      25.842 -13.838  -3.715 -0.48 -0.00    +0.000 OA
DOCKED: ATOM      8  S   UNL     1      26.522 -15.168  -3.875 -0.63 -0.00    +0.000 S 
DOCKED: ATOM      9  O   UNL     1      26.075 -15.795  -5.165 -1.11 +0.00    +0.000 OA
DOCKED: BRANCH   8  10
DOCKED: ATOM     10  N   UNL     1      28.241 -14.923  -3.925 -0.23 -0.00    +0.000 N 
DOCKED: ATOM     11  H   UNL     1      28.647 -14.359  -3.227 +0.01 -0.00    +0.000 HD
DOCKED: BRANCH  10  12
DOCKED: ATOM     12  C   UNL     1      29.105 -15.494  -4.923 -0.27 -0.00    +0.000 A 
DOCKED: ATOM     13  C   UNL     1      29.716 -16.752  -4.750 -0.26 -0.00    +0.000 A 
DOCKED: ATOM     14  C   UNL     1      30.544 -17.278  -5.746 -0.28 -0.00    +0.000 A 
DOCKED: ATOM     15  C   UNL     1      30.774 -16.558  -6.920 -0.29 -0.00    +0.000 A 
DOCKED: ATOM     16  C   UNL     1      30.180 -15.306  -7.099 -0.27 -0.00    +0.000 A 
DOCKED: ATOM     17  C   UNL     1      29.351 -14.776  -6.106 -0.30 -0.00    +0.000 A 
DOCKED: ENDBRANCH  10  12
DOCKED: ENDBRANCH   8  10
DOCKED: ENDBRANCH   1   8
DOCKED: BRANCH   3  18
DOCKED: ATOM     18  C   UNL     1      22.964 -17.598  -0.927 -0.75 -0.00    +0.000 C 
DOCKED: ATOM     19  C   UNL     1      22.451 -18.789  -0.583 -0.83 -0.00    +0.000 C 
DOCKED: BRANCH  19  20
DOCKED: ATOM     20  C   UNL     1      21.016 -19.009  -0.313 -0.85 -0.00    +0.000 C 
DOCKED: ATOM     21  N   UNL     1      20.537 -20.155   0.403 -0.68 -0.00    +0.000 N 
DOCKED: ATOM     22  O   UNL     1      20.191 -18.141  -0.705 -2.12 -0.00    +0.000 OA
DOCKED: ATOM     23  H   UNL     1      21.178 -20.787   0.804 -0.60 -0.00    +0.000 HD
DOCKED: BRANCH  21  24
DOCKED: ATOM     24  O   UNL     1      19.206 -20.373   0.527 -0.79 -0.00    +0.000 OA
DOCKED: ATOM     25  H   UNL     1      18.722 -19.724  -0.007 -0.06 -0.00    +0.000 HD
DOCKED: ENDBRANCH  21  24
DOCKED: ENDBRANCH  19  20
DOCKED: ENDBRANCH   3  18
DOCKED: TORSDOF 6
DOCKED: TER
DOCKED: ENDMDL
________________________________________________________________________________


	BEGINNING GENETIC ALGORITHM DOCKING 62 of 100
Run: 62 Seed: 959639092 529747019 [ Run 62 of 100 GA/GALS ]
Beginning LAMARCKIAN GENETIC ALGORITHM (LGA), with a maximum of 2500000 energy evaluations.

Final-Value: -15.021


	FINAL GENETIC ALGORITHM DOCKED STATE
	_______________________________________________


Detailed state:  trans 24.266 -17.936 -2.888 quatxyzw -0.228091 0.805845 -0.223451 0.498657 center 0.293 0.181 0.279 ntor 6 31.8734 160.8381 15.7109 21.7225 150.4949 -179.8816
State:	 24.266 -17.936  -2.888  -0.263  0.930 -0.258 120.178     31.87  160.84   15.71   21.72  150.49 -179.88

DOCKED: MODEL       62
DOCKED: USER    Run = 62
DOCKED: USER    DPF = ligand_dock.biased.dpf
DOCKED: USER  
DOCKED: USER    Estimated Free Energy of Binding    =  -11.67 kcal/mol  [=(1)+(2)+(3)-(4)]
DOCKED: USER    Estimated Inhibition Constant, Ki   =    2.80 nM (nanomolar)  [Temperature = 298.15 K]
DOCKED: USER    
DOCKED: USER    (1) Final Intermolecular Energy     =  -13.46 kcal/mol
DOCKED: USER        vdW + Hbond + desolv Energy     =  -13.46 kcal/mol
DOCKED: USER        Electrostatic Energy            =   +0.00 kcal/mol
DOCKED: USER    (2) Final Total Internal Energy     =   -1.56 kcal/mol
DOCKED: USER    (3) Torsional Free Energy           =   +1.79 kcal/mol
DOCKED: USER    (4) Unbound System's Energy  [=(2)] =   -1.56 kcal/mol
DOCKED: USER    
DOCKED: USER    
DOCKED: USER    NEWDPF move ligand.pdbqt
DOCKED: USER    NEWDPF about 0.293000 0.181000 0.279000
DOCKED: USER    NEWDPF tran0 24.265500 -17.935729 -2.887557
DOCKED: USER    NEWDPF quaternion0 -0.228091 0.805845 -0.223451 0.498657
DOCKED: USER    NEWDPF axisangle0 -0.263142 0.929678 -0.257788 120.177655
DOCKED: USER    NEWDPF quat0 -0.263142 0.929678 -0.257788 120.177655
DOCKED: USER    NEWDPF dihe0 31.87 160.84 15.71 21.72 150.49 -179.88 
DOCKED: USER  keepresnum = 1 
DOCKED: USER  
DOCKED: REMARK  Name = 
DOCKED: REMARK  6 active torsions:
DOCKED: REMARK  status: ('A' for Active; 'I' for Inactive)
DOCKED: REMARK    1  A    between atoms: S_2  and  N_3
DOCKED: REMARK    2  A    between atoms: S_2  and  C_10
DOCKED: REMARK    3  A    between atoms: N_3  and  C_4
DOCKED: REMARK    4  A    between atoms: C_12  and  C_13
DOCKED: REMARK    5  A    between atoms: C_14  and  C_15
DOCKED: REMARK    6  A    between atoms: N_16  and  O_17
DOCKED: REMARK                            x       y       z     vdW  Elec       q    Type
DOCKED: REMARK                         _______ _______ _______ _____ _____    ______ ____
DOCKED: USER                              x       y       z     vdW  Elec       q    Type
DOCKED: USER                           _______ _______ _______ _____ _____    ______ ____
DOCKED: ROOT
DOCKED: ATOM      1  C   UNL     1      26.021 -16.357  -2.338 -0.45 -0.00    +0.000 A 
DOCKED: ATOM      2  C   UNL     1      24.811 -17.031  -2.129 -0.51 -0.00    +0.000 A 
DOCKED: ATOM      3  C   UNL     1      24.731 -18.096  -1.213 -0.61 -0.00    +0.000 A 
DOCKED: ATOM      4  C   UNL     1      25.882 -18.451  -0.482 -0.54 -0.00    +0.000 A 
DOCKED: ATOM      5  C   UNL     1      27.086 -17.770  -0.684 -0.45 -0.00    +0.000 A 
DOCKED: ATOM      6  C   UNL     1      27.158 -16.729  -1.611 -0.38 -0.00    +0.000 A 
DOCKED: ENDROOT
DOCKED: BRANCH   1   8
DOCKED: ATOM      7  O   UNL     1      24.756 -14.427  -3.718 -0.96 -0.00    +0.000 OA
DOCKED: ATOM      8  S   UNL     1      26.109 -15.050  -3.515 -0.64 -0.00    +0.000 S 
DOCKED: ATOM      9  O   UNL     1      26.591 -15.610  -4.823 -0.96 -0.00    +0.000 OA
DOCKED: BRANCH   8  10
DOCKED: ATOM     10  N   UNL     1      27.219 -13.830  -2.972 -0.21 -0.00    +0.000 N 
DOCKED: ATOM     11  H   UNL     1      27.714 -13.320  -3.652 +0.00 -0.00    +0.000 HD
DOCKED: BRANCH  10  12
DOCKED: ATOM     12  C   UNL     1      27.458 -13.522  -1.586 -0.16 -0.00    +0.000 A 
DOCKED: ATOM     13  C   UNL     1      28.708 -13.058  -1.131 -0.07 -0.00    +0.000 A 
DOCKED: ATOM     14  C   UNL     1      28.901 -12.761   0.221 -0.07 -0.00    +0.000 A 
DOCKED: ATOM     15  C   UNL     1      27.856 -12.927   1.133 -0.18 -0.00    +0.000 A 
DOCKED: ATOM     16  C   UNL     1      26.615 -13.395   0.694 -0.28 -0.00    +0.000 A 
DOCKED: ATOM     17  C   UNL     1      26.418 -13.693  -0.658 -0.20 -0.00    +0.000 A 
DOCKED: ENDBRANCH  10  12
DOCKED: ENDBRANCH   8  10
DOCKED: ENDBRANCH   1   8
DOCKED: BRANCH   3  18
DOCKED: ATOM     18  C   UNL     1      23.425 -18.777  -1.032 -0.81 -0.00    +0.000 C 
DOCKED: ATOM     19  C   UNL     1      22.276 -18.130  -0.785 -0.82 -0.00    +0.000 C 
DOCKED: BRANCH  19  20
DOCKED: ATOM     20  C   UNL     1      20.981 -18.816  -0.601 -0.85 -0.00    +0.000 C 
DOCKED: ATOM     21  N   UNL     1      20.877 -20.103   0.023 -0.66 -0.00    +0.000 N 
DOCKED: ATOM     22  O   UNL     1      19.933 -18.233  -0.984 -1.86 -0.00    +0.000 OA
DOCKED: ATOM     23  H   UNL     1      21.675 -20.523   0.419 -0.60 -0.00    +0.000 HD
DOCKED: BRANCH  21  24
DOCKED: ATOM     24  O   UNL     1      19.684 -20.743   0.067 -0.79 -0.00    +0.000 OA
DOCKED: ATOM     25  H   UNL     1      19.166 -20.515  -0.720 -0.40 -0.00    +0.000 HD
DOCKED: ENDBRANCH  21  24
DOCKED: ENDBRANCH  19  20
DOCKED: ENDBRANCH   3  18
DOCKED: TORSDOF 6
DOCKED: TER
DOCKED: ENDMDL
________________________________________________________________________________


	BEGINNING GENETIC ALGORITHM DOCKING 63 of 100
Run: 63 Seed: 908383064 196455851 [ Run 63 of 100 GA/GALS ]
Beginning LAMARCKIAN GENETIC ALGORITHM (LGA), with a maximum of 2500000 energy evaluations.

Final-Value: -15.787


	FINAL GENETIC ALGORITHM DOCKED STATE
	_______________________________________________


Detailed state:  trans 24.259 -18.026 -2.827 quatxyzw -0.212036 0.775242 -0.317145 0.503448 center 0.293 0.181 0.279 ntor 6 27.2489 117.7083 -11.7614 165.9082 162.5163 -150.2953
State:	 24.259 -18.026  -2.827  -0.245  0.897 -0.367 119.543     27.25  117.71  -11.76  165.91  162.52 -150.30

DOCKED: MODEL       63
DOCKED: USER    Run = 63
DOCKED: USER    DPF = ligand_dock.biased.dpf
DOCKED: USER  
DOCKED: USER    Estimated Free Energy of Binding    =  -12.56 kcal/mol  [=(1)+(2)+(3)-(4)]
DOCKED: USER    Estimated Inhibition Constant, Ki   =  621.12 pM (picomolar)  [Temperature = 298.15 K]
DOCKED: USER    
DOCKED: USER    (1) Final Intermolecular Energy     =  -14.35 kcal/mol
DOCKED: USER        vdW + Hbond + desolv Energy     =  -14.35 kcal/mol
DOCKED: USER        Electrostatic Energy            =   +0.00 kcal/mol
DOCKED: USER    (2) Final Total Internal Energy     =   -1.44 kcal/mol
DOCKED: USER    (3) Torsional Free Energy           =   +1.79 kcal/mol
DOCKED: USER    (4) Unbound System's Energy  [=(2)] =   -1.44 kcal/mol
DOCKED: USER    
DOCKED: USER    
DOCKED: USER    NEWDPF move ligand.pdbqt
DOCKED: USER    NEWDPF about 0.293000 0.181000 0.279000
DOCKED: USER    NEWDPF tran0 24.259071 -18.026210 -2.826576
DOCKED: USER    NEWDPF quaternion0 -0.212036 0.775242 -0.317145 0.503448
DOCKED: USER    NEWDPF axisangle0 -0.245405 0.897244 -0.367055 119.543205
DOCKED: USER    NEWDPF quat0 -0.245405 0.897244 -0.367055 119.543205
DOCKED: USER    NEWDPF dihe0 27.25 117.71 -11.76 165.91 162.52 -150.30 
DOCKED: USER  keepresnum = 1 
DOCKED: USER  
DOCKED: REMARK  Name = 
DOCKED: REMARK  6 active torsions:
DOCKED: REMARK  status: ('A' for Active; 'I' for Inactive)
DOCKED: REMARK    1  A    between atoms: S_2  and  N_3
DOCKED: REMARK    2  A    between atoms: S_2  and  C_10
DOCKED: REMARK    3  A    between atoms: N_3  and  C_4
DOCKED: REMARK    4  A    between atoms: C_12  and  C_13
DOCKED: REMARK    5  A    between atoms: C_14  and  C_15
DOCKED: REMARK    6  A    between atoms: N_16  and  O_17
DOCKED: REMARK                            x       y       z     vdW  Elec       q    Type
DOCKED: REMARK                         _______ _______ _______ _____ _____    ______ ____
DOCKED: USER                              x       y       z     vdW  Elec       q    Type
DOCKED: USER                           _______ _______ _______ _____ _____    ______ ____
DOCKED: ROOT
DOCKED: ATOM      1  C   UNL     1      25.876 -16.239  -2.567 -0.46 -0.00    +0.000 A 
DOCKED: ATOM      2  C   UNL     1      24.718 -16.958  -2.243 -0.42 -0.00    +0.000 A 
DOCKED: ATOM      3  C   UNL     1      24.704 -17.842  -1.149 -0.65 -0.00    +0.000 A 
DOCKED: ATOM      4  C   UNL     1      25.865 -17.965  -0.360 -0.60 -0.00    +0.000 A 
DOCKED: ATOM      5  C   UNL     1      27.016 -17.238  -0.678 -0.46 -0.00    +0.000 A 
DOCKED: ATOM      6  C   UNL     1      27.024 -16.381  -1.779 -0.36 -0.00    +0.000 A 
DOCKED: ENDROOT
DOCKED: BRANCH   1   8
DOCKED: ATOM      7  O   UNL     1      24.759 -14.172  -3.874 -1.05 -0.00    +0.000 OA
DOCKED: ATOM      8  S   UNL     1      25.883 -15.165  -3.962 -0.73 -0.00    +0.000 S 
DOCKED: ATOM      9  O   UNL     1      25.713 -15.989  -5.207 -1.09 +0.00    +0.000 OA
DOCKED: BRANCH   8  10
DOCKED: ATOM     10  N   UNL     1      27.391 -14.307  -4.047 -0.27 -0.00    +0.000 N 
DOCKED: ATOM     11  H   UNL     1      27.591 -13.653  -3.338 +0.00 -0.00    +0.000 HD
DOCKED: BRANCH  10  12
DOCKED: ATOM     12  C   UNL     1      28.363 -14.493  -5.091 -0.29 -0.00    +0.000 A 
DOCKED: ATOM     13  C   UNL     1      28.557 -13.537  -6.109 -0.25 -0.00    +0.000 A 
DOCKED: ATOM     14  C   UNL     1      29.518 -13.749  -7.102 -0.26 -0.00    +0.000 A 
DOCKED: ATOM     15  C   UNL     1      30.290 -14.913  -7.096 -0.26 -0.00    +0.000 A 
DOCKED: ATOM     16  C   UNL     1      30.100 -15.870  -6.097 -0.29 -0.00    +0.000 A 
DOCKED: ATOM     17  C   UNL     1      29.141 -15.663  -5.101 -0.29 -0.00    +0.000 A 
DOCKED: ENDBRANCH  10  12
DOCKED: ENDBRANCH   8  10
DOCKED: ENDBRANCH   1   8
DOCKED: BRANCH   3  18
DOCKED: ATOM     18  C   UNL     1      23.452 -18.582  -0.853 -0.82 -0.00    +0.000 C 
DOCKED: ATOM     19  C   UNL     1      22.227 -18.045  -0.960 -0.76 -0.00    +0.000 C 
DOCKED: BRANCH  19  20
DOCKED: ATOM     20  C   UNL     1      20.986 -18.786  -0.658 -0.86 -0.00    +0.000 C 
DOCKED: ATOM     21  N   UNL     1      20.998 -20.103  -0.091 -0.64 -0.00    +0.000 N 
DOCKED: ATOM     22  O   UNL     1      19.882 -18.224  -0.885 -1.84 -0.00    +0.000 OA
DOCKED: ATOM     23  H   UNL     1      21.850 -20.510   0.186 -0.58 -0.00    +0.000 HD
DOCKED: BRANCH  21  24
DOCKED: ATOM     24  O   UNL     1      19.839 -20.788   0.062 -0.79 -0.00    +0.000 OA
DOCKED: ATOM     25  H   UNL     1      19.198 -20.490  -0.601 -0.33 -0.00    +0.000 HD
DOCKED: ENDBRANCH  21  24
DOCKED: ENDBRANCH  19  20
DOCKED: ENDBRANCH   3  18
DOCKED: TORSDOF 6
DOCKED: TER
DOCKED: ENDMDL
________________________________________________________________________________


	BEGINNING GENETIC ALGORITHM DOCKING 64 of 100
Run: 64 Seed: 1987734037 1676425670 [ Run 64 of 100 GA/GALS ]
Beginning LAMARCKIAN GENETIC ALGORITHM (LGA), with a maximum of 2500000 energy evaluations.

Final-Value: -15.794


	FINAL GENETIC ALGORITHM DOCKED STATE
	_______________________________________________


Detailed state:  trans 24.196 -17.968 -2.705 quatxyzw -0.205402 0.759120 -0.289588 0.545606 center 0.293 0.181 0.279 ntor 6 61.8427 115.4251 -37.1257 167.6290 -173.3757 -154.6058
State:	 24.196 -17.968  -2.705  -0.245  0.906 -0.346 113.868     61.84  115.43  -37.13  167.63 -173.38 -154.61

DOCKED: MODEL       64
DOCKED: USER    Run = 64
DOCKED: USER    DPF = ligand_dock.biased.dpf
DOCKED: USER  
DOCKED: USER    Estimated Free Energy of Binding    =  -12.84 kcal/mol  [=(1)+(2)+(3)-(4)]
DOCKED: USER    Estimated Inhibition Constant, Ki   =  390.37 pM (picomolar)  [Temperature = 298.15 K]
DOCKED: USER    
DOCKED: USER    (1) Final Intermolecular Energy     =  -14.63 kcal/mol
DOCKED: USER        vdW + Hbond + desolv Energy     =  -14.63 kcal/mol
DOCKED: USER        Electrostatic Energy            =   +0.00 kcal/mol
DOCKED: USER    (2) Final Total Internal Energy     =   -1.17 kcal/mol
DOCKED: USER    (3) Torsional Free Energy           =   +1.79 kcal/mol
DOCKED: USER    (4) Unbound System's Energy  [=(2)] =   -1.17 kcal/mol
DOCKED: USER    
DOCKED: USER    
DOCKED: USER    NEWDPF move ligand.pdbqt
DOCKED: USER    NEWDPF about 0.293000 0.181000 0.279000
DOCKED: USER    NEWDPF tran0 24.195999 -17.967650 -2.705081
DOCKED: USER    NEWDPF quaternion0 -0.205402 0.759120 -0.289588 0.545606
DOCKED: USER    NEWDPF axisangle0 -0.245097 0.905826 -0.345554 113.867866
DOCKED: USER    NEWDPF quat0 -0.245097 0.905826 -0.345554 113.867866
DOCKED: USER    NEWDPF dihe0 61.84 115.43 -37.13 167.63 -173.38 -154.61 
DOCKED: USER  keepresnum = 1 
DOCKED: USER  
DOCKED: REMARK  Name = 
DOCKED: REMARK  6 active torsions:
DOCKED: REMARK  status: ('A' for Active; 'I' for Inactive)
DOCKED: REMARK    1  A    between atoms: S_2  and  N_3
DOCKED: REMARK    2  A    between atoms: S_2  and  C_10
DOCKED: REMARK    3  A    between atoms: N_3  and  C_4
DOCKED: REMARK    4  A    between atoms: C_12  and  C_13
DOCKED: REMARK    5  A    between atoms: C_14  and  C_15
DOCKED: REMARK    6  A    between atoms: N_16  and  O_17
DOCKED: REMARK                            x       y       z     vdW  Elec       q    Type
DOCKED: REMARK                         _______ _______ _______ _____ _____    ______ ____
DOCKED: USER                              x       y       z     vdW  Elec       q    Type
DOCKED: USER                           _______ _______ _______ _____ _____    ______ ____
DOCKED: ROOT
DOCKED: ATOM      1  C   UNL     1      25.931 -16.279  -2.581 -0.45 -0.00    +0.000 A 
DOCKED: ATOM      2  C   UNL     1      24.766 -16.934  -2.159 -0.50 -0.00    +0.000 A 
DOCKED: ATOM      3  C   UNL     1      24.798 -17.827  -1.073 -0.65 -0.00    +0.000 A 
DOCKED: ATOM      4  C   UNL     1      26.016 -18.025  -0.391 -0.58 -0.00    +0.000 A 
DOCKED: ATOM      5  C   UNL     1      27.174 -17.362  -0.807 -0.44 -0.00    +0.000 A 
DOCKED: ATOM      6  C   UNL     1      27.134 -16.495  -1.900 -0.35 -0.00    +0.000 A 
DOCKED: ENDROOT
DOCKED: BRANCH   1   8
DOCKED: ATOM      7  O   UNL     1      24.756 -14.202  -3.821 -1.03 -0.00    +0.000 OA
DOCKED: ATOM      8  S   UNL     1      25.877 -15.192  -3.966 -0.73 -0.00    +0.000 S 
DOCKED: ATOM      9  O   UNL     1      25.654 -16.006  -5.209 -1.07 +0.00    +0.000 OA
DOCKED: BRANCH   8  10
DOCKED: ATOM     10  N   UNL     1      27.378 -14.331  -4.107 -0.28 -0.00    +0.000 N 
DOCKED: ATOM     11  H   UNL     1      27.620 -13.703  -3.389 +0.00 -0.00    +0.000 HD
DOCKED: BRANCH  10  12
DOCKED: ATOM     12  C   UNL     1      28.289 -14.480  -5.212 -0.31 -0.00    +0.000 A 
DOCKED: ATOM     13  C   UNL     1      28.391 -13.511  -6.230 -0.26 -0.00    +0.000 A 
DOCKED: ATOM     14  C   UNL     1      29.293 -13.686  -7.284 -0.27 -0.00    +0.000 A 
DOCKED: ATOM     15  C   UNL     1      30.097 -14.827  -7.337 -0.24 -0.00    +0.000 A 
DOCKED: ATOM     16  C   UNL     1      29.998 -15.798  -6.337 -0.31 -0.00    +0.000 A 
DOCKED: ATOM     17  C   UNL     1      29.097 -15.627  -5.282 -0.31 -0.00    +0.000 A 
DOCKED: ENDBRANCH  10  12
DOCKED: ENDBRANCH   8  10
DOCKED: ENDBRANCH   1   8
DOCKED: BRANCH   3  18
DOCKED: ATOM     18  C   UNL     1      23.536 -18.497  -0.670 -0.82 -0.00    +0.000 C 
DOCKED: ATOM     19  C   UNL     1      22.321 -18.102  -1.079 -0.75 -0.00    +0.000 C 
DOCKED: BRANCH  19  20
DOCKED: ATOM     20  C   UNL     1      21.069 -18.770  -0.670 -0.86 -0.00    +0.000 C 
DOCKED: ATOM     21  N   UNL     1      21.050 -20.101  -0.136 -0.62 -0.00    +0.000 N 
DOCKED: ATOM     22  O   UNL     1      19.988 -18.133  -0.771 -1.95 -0.00    +0.000 OA
DOCKED: ATOM     23  H   UNL     1      21.897 -20.570   0.044 -0.57 -0.00    +0.000 HD
DOCKED: BRANCH  21  24
DOCKED: ATOM     24  O   UNL     1      19.869 -20.715   0.118 -0.80 -0.00    +0.000 OA
DOCKED: ATOM     25  H   UNL     1      19.371 -20.811  -0.708 -0.49 -0.00    +0.000 HD
DOCKED: ENDBRANCH  21  24
DOCKED: ENDBRANCH  19  20
DOCKED: ENDBRANCH   3  18
DOCKED: TORSDOF 6
DOCKED: TER
DOCKED: ENDMDL
________________________________________________________________________________


	BEGINNING GENETIC ALGORITHM DOCKING 65 of 100
Run: 65 Seed: 2091053847 2101240967 [ Run 65 of 100 GA/GALS ]
Beginning LAMARCKIAN GENETIC ALGORITHM (LGA), with a maximum of 2500000 energy evaluations.

Final-Value: -15.814


	FINAL GENETIC ALGORITHM DOCKED STATE
	_______________________________________________


Detailed state:  trans 24.302 -18.032 -2.793 quatxyzw -0.209331 0.771886 -0.341555 0.493672 center 0.293 0.181 0.279 ntor 6 33.3652 -54.4158 -14.4263 154.0470 163.6574 -143.3441
State:	 24.302 -18.032  -2.793  -0.241  0.888 -0.393 120.836     33.37  -54.42  -14.43  154.05  163.66 -143.34

DOCKED: MODEL       65
DOCKED: USER    Run = 65
DOCKED: USER    DPF = ligand_dock.biased.dpf
DOCKED: USER  
DOCKED: USER    Estimated Free Energy of Binding    =  -12.63 kcal/mol  [=(1)+(2)+(3)-(4)]
DOCKED: USER    Estimated Inhibition Constant, Ki   =  554.44 pM (picomolar)  [Temperature = 298.15 K]
DOCKED: USER    
DOCKED: USER    (1) Final Intermolecular Energy     =  -14.42 kcal/mol
DOCKED: USER        vdW + Hbond + desolv Energy     =  -14.42 kcal/mol
DOCKED: USER        Electrostatic Energy            =   +0.00 kcal/mol
DOCKED: USER    (2) Final Total Internal Energy     =   -1.40 kcal/mol
DOCKED: USER    (3) Torsional Free Energy           =   +1.79 kcal/mol
DOCKED: USER    (4) Unbound System's Energy  [=(2)] =   -1.40 kcal/mol
DOCKED: USER    
DOCKED: USER    
DOCKED: USER    NEWDPF move ligand.pdbqt
DOCKED: USER    NEWDPF about 0.293000 0.181000 0.279000
DOCKED: USER    NEWDPF tran0 24.301732 -18.032451 -2.792837
DOCKED: USER    NEWDPF quaternion0 -0.209331 0.771886 -0.341555 0.493672
DOCKED: USER    NEWDPF axisangle0 -0.240708 0.887585 -0.392751 120.835605
DOCKED: USER    NEWDPF quat0 -0.240708 0.887585 -0.392751 120.835605
DOCKED: USER    NEWDPF dihe0 33.37 -54.42 -14.43 154.05 163.66 -143.34 
DOCKED: USER  keepresnum = 1 
DOCKED: USER  
DOCKED: REMARK  Name = 
DOCKED: REMARK  6 active torsions:
DOCKED: REMARK  status: ('A' for Active; 'I' for Inactive)
DOCKED: REMARK    1  A    between atoms: S_2  and  N_3
DOCKED: REMARK    2  A    between atoms: S_2  and  C_10
DOCKED: REMARK    3  A    between atoms: N_3  and  C_4
DOCKED: REMARK    4  A    between atoms: C_12  and  C_13
DOCKED: REMARK    5  A    between atoms: C_14  and  C_15
DOCKED: REMARK    6  A    between atoms: N_16  and  O_17
DOCKED: REMARK                            x       y       z     vdW  Elec       q    Type
DOCKED: REMARK                         _______ _______ _______ _____ _____    ______ ____
DOCKED: USER                              x       y       z     vdW  Elec       q    Type
DOCKED: USER                           _______ _______ _______ _____ _____    ______ ____
DOCKED: ROOT
DOCKED: ATOM      1  C   UNL     1      25.862 -16.191  -2.565 -0.46 -0.00    +0.000 A 
DOCKED: ATOM      2  C   UNL     1      24.717 -16.931  -2.241 -0.42 -0.00    +0.000 A 
DOCKED: ATOM      3  C   UNL     1      24.700 -17.771  -1.114 -0.65 -0.00    +0.000 A 
DOCKED: ATOM      4  C   UNL     1      25.845 -17.831  -0.294 -0.59 -0.00    +0.000 A 
DOCKED: ATOM      5  C   UNL     1      26.983 -17.085  -0.613 -0.45 -0.00    +0.000 A 
DOCKED: ATOM      6  C   UNL     1      26.994 -16.270  -1.746 -0.36 -0.00    +0.000 A 
DOCKED: ENDROOT
DOCKED: BRANCH   1   8
DOCKED: ATOM      7  O   UNL     1      24.825 -14.099  -3.899 -1.02 -0.00    +0.000 OA
DOCKED: ATOM      8  S   UNL     1      25.874 -15.171  -4.001 -0.73 -0.00    +0.000 S 
DOCKED: ATOM      9  O   UNL     1      25.586 -16.026  -5.202 -1.04 -0.00    +0.000 OA
DOCKED: BRANCH   8  10
DOCKED: ATOM     10  N   UNL     1      27.430 -14.425  -4.190 -0.29 -0.00    +0.000 N 
DOCKED: ATOM     11  H   UNL     1      27.639 -13.642  -3.630 +0.00 -0.00    +0.000 HD
DOCKED: BRANCH  10  12
DOCKED: ATOM     12  C   UNL     1      28.433 -14.882  -5.116 -0.32 -0.00    +0.000 A 
DOCKED: ATOM     13  C   UNL     1      29.066 -16.133  -4.972 -0.27 -0.00    +0.000 A 
DOCKED: ATOM     14  C   UNL     1      30.030 -16.546  -5.897 -0.30 -0.00    +0.000 A 
DOCKED: ATOM     15  C   UNL     1      30.376 -15.719  -6.968 -0.28 -0.00    +0.000 A 
DOCKED: ATOM     16  C   UNL     1      29.760 -14.474  -7.115 -0.28 -0.00    +0.000 A 
DOCKED: ATOM     17  C   UNL     1      28.796 -14.056  -6.193 -0.29 -0.00    +0.000 A 
DOCKED: ENDBRANCH  10  12
DOCKED: ENDBRANCH   8  10
DOCKED: ENDBRANCH   1   8
DOCKED: BRANCH   3  18
DOCKED: ATOM     18  C   UNL     1      23.462 -18.535  -0.818 -0.82 -0.00    +0.000 C 
DOCKED: ATOM     19  C   UNL     1      22.226 -18.045  -0.995 -0.75 -0.00    +0.000 C 
DOCKED: BRANCH  19  20
DOCKED: ATOM     20  C   UNL     1      20.998 -18.809  -0.694 -0.87 -0.00    +0.000 C 
DOCKED: ATOM     21  N   UNL     1      21.034 -20.116  -0.106 -0.62 -0.00    +0.000 N 
DOCKED: ATOM     22  O   UNL     1      19.884 -18.276  -0.941 -1.81 -0.00    +0.000 OA
DOCKED: ATOM     23  H   UNL     1      21.893 -20.500   0.187 -0.58 -0.00    +0.000 HD
DOCKED: BRANCH  21  24
DOCKED: ATOM     24  O   UNL     1      19.889 -20.825   0.047 -0.79 -0.00    +0.000 OA
DOCKED: ATOM     25  H   UNL     1      19.285 -20.623  -0.683 -0.41 -0.00    +0.000 HD
DOCKED: ENDBRANCH  21  24
DOCKED: ENDBRANCH  19  20
DOCKED: ENDBRANCH   3  18
DOCKED: TORSDOF 6
DOCKED: TER
DOCKED: ENDMDL
________________________________________________________________________________


	BEGINNING GENETIC ALGORITHM DOCKING 66 of 100
Run: 66 Seed: 644804704 1898214289 [ Run 66 of 100 GA/GALS ]
Beginning LAMARCKIAN GENETIC ALGORITHM (LGA), with a maximum of 2500000 energy evaluations.

Final-Value: -15.139


	FINAL GENETIC ALGORITHM DOCKED STATE
	_______________________________________________


Detailed state:  trans 24.495 -17.864 -3.024 quatxyzw 0.216525 -0.799086 0.321164 -0.459817 center 0.293 0.181 0.279 ntor 6 27.3579 -17.2728 17.5796 -78.7777 136.4391 179.8443
State:	 24.495 -17.864  -3.024   0.244 -0.900  0.362 -125.249     27.36  -17.27   17.58  -78.78  136.44  179.84

DOCKED: MODEL       66
DOCKED: USER    Run = 66
DOCKED: USER    DPF = ligand_dock.biased.dpf
DOCKED: USER  
DOCKED: USER    Estimated Free Energy of Binding    =  -12.02 kcal/mol  [=(1)+(2)+(3)-(4)]
DOCKED: USER    Estimated Inhibition Constant, Ki   =    1.54 nM (nanomolar)  [Temperature = 298.15 K]
DOCKED: USER    
DOCKED: USER    (1) Final Intermolecular Energy     =  -13.81 kcal/mol
DOCKED: USER        vdW + Hbond + desolv Energy     =  -13.81 kcal/mol
DOCKED: USER        Electrostatic Energy            =   +0.00 kcal/mol
DOCKED: USER    (2) Final Total Internal Energy     =   -1.33 kcal/mol
DOCKED: USER    (3) Torsional Free Energy           =   +1.79 kcal/mol
DOCKED: USER    (4) Unbound System's Energy  [=(2)] =   -1.33 kcal/mol
DOCKED: USER    
DOCKED: USER    
DOCKED: USER    NEWDPF move ligand.pdbqt
DOCKED: USER    NEWDPF about 0.293000 0.181000 0.279000
DOCKED: USER    NEWDPF tran0 24.495052 -17.864492 -3.023769
DOCKED: USER    NEWDPF quaternion0 0.216525 -0.799086 0.321164 -0.459817
DOCKED: USER    NEWDPF axisangle0 0.243830 -0.899858 0.361666 -125.249363
DOCKED: USER    NEWDPF quat0 0.243830 -0.899858 0.361666 -125.249363
DOCKED: USER    NEWDPF dihe0 27.36 -17.27 17.58 -78.78 136.44 179.84 
DOCKED: USER  keepresnum = 1 
DOCKED: USER  
DOCKED: REMARK  Name = 
DOCKED: REMARK  6 active torsions:
DOCKED: REMARK  status: ('A' for Active; 'I' for Inactive)
DOCKED: REMARK    1  A    between atoms: S_2  and  N_3
DOCKED: REMARK    2  A    between atoms: S_2  and  C_10
DOCKED: REMARK    3  A    between atoms: N_3  and  C_4
DOCKED: REMARK    4  A    between atoms: C_12  and  C_13
DOCKED: REMARK    5  A    between atoms: C_14  and  C_15
DOCKED: REMARK    6  A    between atoms: N_16  and  O_17
DOCKED: REMARK                            x       y       z     vdW  Elec       q    Type
DOCKED: REMARK                         _______ _______ _______ _____ _____    ______ ____
DOCKED: USER                              x       y       z     vdW  Elec       q    Type
DOCKED: USER                           _______ _______ _______ _____ _____    ______ ____
DOCKED: ROOT
DOCKED: ATOM      1  C   UNL     1      26.028 -16.044  -2.564 -0.45 -0.00    +0.000 A 
DOCKED: ATOM      2  C   UNL     1      24.868 -16.805  -2.368 -0.38 -0.00    +0.000 A 
DOCKED: ATOM      3  C   UNL     1      24.781 -17.724  -1.308 -0.63 -0.00    +0.000 A 
DOCKED: ATOM      4  C   UNL     1      25.870 -17.842  -0.421 -0.59 -0.00    +0.000 A 
DOCKED: ATOM      5  C   UNL     1      27.023 -17.074  -0.611 -0.45 -0.00    +0.000 A 
DOCKED: ATOM      6  C   UNL     1      27.104 -16.180  -1.680 -0.34 -0.00    +0.000 A 
DOCKED: ENDROOT
DOCKED: BRANCH   1   8
DOCKED: ATOM      7  O   UNL     1      24.756 -14.491  -4.353 -1.03 -0.00    +0.000 OA
DOCKED: ATOM      8  S   UNL     1      26.128 -14.924  -3.919 -0.67 -0.00    +0.000 S 
DOCKED: ATOM      9  O   UNL     1      26.810 -15.614  -5.066 -1.06 +0.00    +0.000 OA
DOCKED: BRANCH   8  10
DOCKED: ATOM     10  N   UNL     1      27.048 -13.522  -3.468 -0.23 -0.00    +0.000 N 
DOCKED: ATOM     11  H   UNL     1      27.915 -13.661  -3.022 +0.01 -0.00    +0.000 HD
DOCKED: BRANCH  10  12
DOCKED: ATOM     12  C   UNL     1      26.619 -12.169  -3.706 -0.20 -0.00    +0.000 A 
DOCKED: ATOM     13  C   UNL     1      25.782 -11.831  -4.788 -0.31 -0.00    +0.000 A 
DOCKED: ATOM     14  C   UNL     1      25.379 -10.506  -4.982 -0.31 -0.00    +0.000 A 
DOCKED: ATOM     15  C   UNL     1      25.808  -9.507  -4.106 -0.20 -0.00    +0.000 A 
DOCKED: ATOM     16  C   UNL     1      26.644  -9.829  -3.034 -0.13 -0.00    +0.000 A 
DOCKED: ATOM     17  C   UNL     1      27.049 -11.153  -2.836 -0.10 -0.00    +0.000 A 
DOCKED: ENDBRANCH  10  12
DOCKED: ENDBRANCH   8  10
DOCKED: ENDBRANCH   1   8
DOCKED: BRANCH   3  18
DOCKED: ATOM     18  C   UNL     1      23.531 -18.507  -1.149 -0.81 -0.00    +0.000 C 
DOCKED: ATOM     19  C   UNL     1      22.343 -17.959  -0.850 -0.78 -0.00    +0.000 C 
DOCKED: BRANCH  19  20
DOCKED: ATOM     20  C   UNL     1      21.103 -18.745  -0.688 -0.86 -0.00    +0.000 C 
DOCKED: ATOM     21  N   UNL     1      21.097 -20.054  -0.102 -0.61 -0.00    +0.000 N 
DOCKED: ATOM     22  O   UNL     1      20.014 -18.232  -1.057 -1.91 -0.00    +0.000 OA
DOCKED: ATOM     23  H   UNL     1      21.924 -20.424   0.283 -0.58 -0.00    +0.000 HD
DOCKED: BRANCH  21  24
DOCKED: ATOM     24  O   UNL     1      19.955 -20.783  -0.079 -0.77 -0.00    +0.000 OA
DOCKED: ATOM     25  H   UNL     1      19.389 -20.521  -0.821 -0.43 -0.00    +0.000 HD
DOCKED: ENDBRANCH  21  24
DOCKED: ENDBRANCH  19  20
DOCKED: ENDBRANCH   3  18
DOCKED: TORSDOF 6
DOCKED: TER
DOCKED: ENDMDL
________________________________________________________________________________


	BEGINNING GENETIC ALGORITHM DOCKING 67 of 100
Run: 67 Seed: 303854163 896110431 [ Run 67 of 100 GA/GALS ]
Beginning LAMARCKIAN GENETIC ALGORITHM (LGA), with a maximum of 2500000 energy evaluations.

Final-Value: -14.939


	FINAL GENETIC ALGORITHM DOCKED STATE
	_______________________________________________


Detailed state:  trans 24.810 -15.866 -1.355 quatxyzw -0.252051 0.837326 0.280904 0.395537 center 0.293 0.181 0.279 ntor 6 -4.1053 160.9372 168.4837 -76.1952 20.0997 143.7862
State:	 24.810 -15.866  -1.355  -0.274  0.912  0.306 133.401     -4.11  160.94  168.48  -76.20   20.10  143.79

DOCKED: MODEL       67
DOCKED: USER    Run = 67
DOCKED: USER    DPF = ligand_dock.biased.dpf
DOCKED: USER  
DOCKED: USER    Estimated Free Energy of Binding    =  -11.75 kcal/mol  [=(1)+(2)+(3)-(4)]
DOCKED: USER    Estimated Inhibition Constant, Ki   =    2.44 nM (nanomolar)  [Temperature = 298.15 K]
DOCKED: USER    
DOCKED: USER    (1) Final Intermolecular Energy     =  -13.54 kcal/mol
DOCKED: USER        vdW + Hbond + desolv Energy     =  -13.54 kcal/mol
DOCKED: USER        Electrostatic Energy            =   +0.00 kcal/mol
DOCKED: USER    (2) Final Total Internal Energy     =   -1.40 kcal/mol
DOCKED: USER    (3) Torsional Free Energy           =   +1.79 kcal/mol
DOCKED: USER    (4) Unbound System's Energy  [=(2)] =   -1.40 kcal/mol
DOCKED: USER    
DOCKED: USER    
DOCKED: USER    NEWDPF move ligand.pdbqt
DOCKED: USER    NEWDPF about 0.293000 0.181000 0.279000
DOCKED: USER    NEWDPF tran0 24.810023 -15.866216 -1.354698
DOCKED: USER    NEWDPF quaternion0 -0.252051 0.837326 0.280904 0.395537
DOCKED: USER    NEWDPF axisangle0 -0.274431 0.911672 0.305845 133.401107
DOCKED: USER    NEWDPF quat0 -0.274431 0.911672 0.305845 133.401107
DOCKED: USER    NEWDPF dihe0 -4.11 160.94 168.48 -76.20 20.10 143.79 
DOCKED: USER  keepresnum = 1 
DOCKED: USER  
DOCKED: REMARK  Name = 
DOCKED: REMARK  6 active torsions:
DOCKED: REMARK  status: ('A' for Active; 'I' for Inactive)
DOCKED: REMARK    1  A    between atoms: S_2  and  N_3
DOCKED: REMARK    2  A    between atoms: S_2  and  C_10
DOCKED: REMARK    3  A    between atoms: N_3  and  C_4
DOCKED: REMARK    4  A    between atoms: C_12  and  C_13
DOCKED: REMARK    5  A    between atoms: C_14  and  C_15
DOCKED: REMARK    6  A    between atoms: N_16  and  O_17
DOCKED: REMARK                            x       y       z     vdW  Elec       q    Type
DOCKED: REMARK                         _______ _______ _______ _____ _____    ______ ____
DOCKED: USER                              x       y       z     vdW  Elec       q    Type
DOCKED: USER                           _______ _______ _______ _____ _____    ______ ____
DOCKED: ROOT
DOCKED: ATOM      1  C   UNL     1      26.936 -16.129  -0.220 -0.35 -0.00    +0.000 A 
DOCKED: ATOM      2  C   UNL     1      25.542 -16.203  -0.333 -0.12 -0.00    +0.000 A 
DOCKED: ATOM      3  C   UNL     1      24.906 -17.431  -0.587 -0.59 -0.00    +0.000 A 
DOCKED: ATOM      4  C   UNL     1      25.694 -18.595  -0.691 -0.48 -0.00    +0.000 A 
DOCKED: ATOM      5  C   UNL     1      27.084 -18.521  -0.568 -0.12 -0.00    +0.000 A 
DOCKED: ATOM      6  C   UNL     1      27.705 -17.293  -0.337 -0.32 -0.00    +0.000 A 
DOCKED: ENDROOT
DOCKED: BRANCH   1   8
DOCKED: ATOM      7  O   UNL     1      26.738 -13.449  -0.125 -0.29 -0.00    +0.000 OA
DOCKED: ATOM      8  S   UNL     1      27.715 -14.575   0.063 -0.33 -0.00    +0.000 S 
DOCKED: ATOM      9  O   UNL     1      28.842 -14.414  -0.918 -0.12 -0.00    +0.000 OA
DOCKED: BRANCH   8  10
DOCKED: ATOM     10  N   UNL     1      28.350 -14.511   1.678 -0.25 -0.00    +0.000 N 
DOCKED: ATOM     11  H   UNL     1      28.921 -15.254   1.980 -1.65 -0.00    +0.000 HD
DOCKED: BRANCH  10  12
DOCKED: ATOM     12  C   UNL     1      28.090 -13.438   2.601 -0.26 -0.00    +0.000 A 
DOCKED: ATOM     13  C   UNL     1      28.040 -13.648   3.994 -0.42 -0.00    +0.000 A 
DOCKED: ATOM     14  C   UNL     1      27.792 -12.579   4.860 -0.37 +0.00    +0.000 A 
DOCKED: ATOM     15  C   UNL     1      27.589 -11.295   4.351 -0.26 +0.00    +0.000 A 
DOCKED: ATOM     16  C   UNL     1      27.629 -11.077   2.972 -0.24 +0.00    +0.000 A 
DOCKED: ATOM     17  C   UNL     1      27.876 -12.143   2.101 -0.19 -0.00    +0.000 A 
DOCKED: ENDBRANCH  10  12
DOCKED: ENDBRANCH   8  10
DOCKED: ENDBRANCH   1   8
DOCKED: BRANCH   3  18
DOCKED: ATOM     18  C   UNL     1      23.426 -17.452  -0.701 -0.76 -0.00    +0.000 C 
DOCKED: ATOM     19  C   UNL     1      22.717 -18.559  -0.967 -0.83 -0.00    +0.000 C 
DOCKED: BRANCH  19  20
DOCKED: ATOM     20  C   UNL     1      21.245 -18.572  -1.085 -0.78 -0.00    +0.000 C 
DOCKED: ATOM     21  N   UNL     1      20.498 -19.788  -1.227 -0.81 -0.00    +0.000 N 
DOCKED: ATOM     22  O   UNL     1      20.628 -17.476  -1.032 -2.10 -0.00    +0.000 OA
DOCKED: ATOM     23  H   UNL     1      20.957 -20.657  -1.166 -0.13 -0.00    +0.000 HD
DOCKED: BRANCH  21  24
DOCKED: ATOM     24  O   UNL     1      19.161 -19.744  -1.446 -1.18 -0.00    +0.000 OA
DOCKED: ATOM     25  H   UNL     1      18.860 -18.823  -1.414 -0.60 -0.00    +0.000 HD
DOCKED: ENDBRANCH  21  24
DOCKED: ENDBRANCH  19  20
DOCKED: ENDBRANCH   3  18
DOCKED: TORSDOF 6
DOCKED: TER
DOCKED: ENDMDL
________________________________________________________________________________


	BEGINNING GENETIC ALGORITHM DOCKING 68 of 100
Run: 68 Seed: 1547299660 938041191 [ Run 68 of 100 GA/GALS ]
Beginning LAMARCKIAN GENETIC ALGORITHM (LGA), with a maximum of 2500000 energy evaluations.

Final-Value: -15.802


	FINAL GENETIC ALGORITHM DOCKED STATE
	_______________________________________________


Detailed state:  trans 24.372 -18.330 -2.898 quatxyzw 0.233313 -0.798248 0.369791 -0.414271 center 0.293 0.181 0.279 ntor 6 3.1419 109.6493 64.3743 169.4858 136.8538 -133.8114
State:	 24.372 -18.330  -2.898   0.256 -0.877  0.406 -131.053      3.14  109.65   64.37  169.49  136.85 -133.81

DOCKED: MODEL       68
DOCKED: USER    Run = 68
DOCKED: USER    DPF = ligand_dock.biased.dpf
DOCKED: USER  
DOCKED: USER    Estimated Free Energy of Binding    =  -12.47 kcal/mol  [=(1)+(2)+(3)-(4)]
DOCKED: USER    Estimated Inhibition Constant, Ki   =  722.64 pM (picomolar)  [Temperature = 298.15 K]
DOCKED: USER    
DOCKED: USER    (1) Final Intermolecular Energy     =  -14.26 kcal/mol
DOCKED: USER        vdW + Hbond + desolv Energy     =  -14.26 kcal/mol
DOCKED: USER        Electrostatic Energy            =   +0.00 kcal/mol
DOCKED: USER    (2) Final Total Internal Energy     =   -1.54 kcal/mol
DOCKED: USER    (3) Torsional Free Energy           =   +1.79 kcal/mol
DOCKED: USER    (4) Unbound System's Energy  [=(2)] =   -1.54 kcal/mol
DOCKED: USER    
DOCKED: USER    
DOCKED: USER    NEWDPF move ligand.pdbqt
DOCKED: USER    NEWDPF about 0.293000 0.181000 0.279000
DOCKED: USER    NEWDPF tran0 24.372450 -18.330102 -2.898344
DOCKED: USER    NEWDPF quaternion0 0.233313 -0.798248 0.369791 -0.414271
DOCKED: USER    NEWDPF axisangle0 0.256345 -0.877047 0.406295 -131.053157
DOCKED: USER    NEWDPF quat0 0.256345 -0.877047 0.406295 -131.053157
DOCKED: USER    NEWDPF dihe0 3.14 109.65 64.37 169.49 136.85 -133.81 
DOCKED: USER  keepresnum = 1 
DOCKED: USER  
DOCKED: REMARK  Name = 
DOCKED: REMARK  6 active torsions:
DOCKED: REMARK  status: ('A' for Active; 'I' for Inactive)
DOCKED: REMARK    1  A    between atoms: S_2  and  N_3
DOCKED: REMARK    2  A    between atoms: S_2  and  C_10
DOCKED: REMARK    3  A    between atoms: N_3  and  C_4
DOCKED: REMARK    4  A    between atoms: C_12  and  C_13
DOCKED: REMARK    5  A    between atoms: C_14  and  C_15
DOCKED: REMARK    6  A    between atoms: N_16  and  O_17
DOCKED: REMARK                            x       y       z     vdW  Elec       q    Type
DOCKED: REMARK                         _______ _______ _______ _____ _____    ______ ____
DOCKED: USER                              x       y       z     vdW  Elec       q    Type
DOCKED: USER                           _______ _______ _______ _____ _____    ______ ____
DOCKED: ROOT
DOCKED: ATOM      1  C   UNL     1      25.673 -16.345  -2.404 -0.49 -0.00    +0.000 A 
DOCKED: ATOM      2  C   UNL     1      24.581 -17.213  -2.266 -0.29 -0.00    +0.000 A 
DOCKED: ATOM      3  C   UNL     1      24.498 -18.094  -1.174 -0.65 -0.00    +0.000 A 
DOCKED: ATOM      4  C   UNL     1      25.514 -18.065  -0.198 -0.60 -0.00    +0.000 A 
DOCKED: ATOM      5  C   UNL     1      26.597 -17.191  -0.331 -0.49 -0.00    +0.000 A 
DOCKED: ATOM      6  C   UNL     1      26.679 -16.336  -1.431 -0.40 -0.00    +0.000 A 
DOCKED: ENDROOT
DOCKED: BRANCH   1   8
DOCKED: ATOM      7  O   UNL     1      24.751 -14.179  -3.704 -1.00 -0.00    +0.000 OA
DOCKED: ATOM      8  S   UNL     1      25.776 -15.274  -3.798 -0.71 -0.00    +0.000 S 
DOCKED: ATOM      9  O   UNL     1      25.522 -16.077  -5.042 -0.92 -0.00    +0.000 OA
DOCKED: BRANCH   8  10
DOCKED: ATOM     10  N   UNL     1      27.357 -14.563  -3.889 -0.29 -0.00    +0.000 N 
DOCKED: ATOM     11  H   UNL     1      27.643 -13.975  -3.153 +0.00 -0.00    +0.000 HD
DOCKED: BRANCH  10  12
DOCKED: ATOM     12  C   UNL     1      28.275 -14.781  -4.976 -0.31 -0.00    +0.000 A 
DOCKED: ATOM     13  C   UNL     1      28.409 -13.862  -6.035 -0.28 -0.00    +0.000 A 
DOCKED: ATOM     14  C   UNL     1      29.317 -14.104  -7.070 -0.30 -0.00    +0.000 A 
DOCKED: ATOM     15  C   UNL     1      30.096 -15.263  -7.063 -0.28 -0.00    +0.000 A 
DOCKED: ATOM     16  C   UNL     1      29.966 -16.185  -6.022 -0.30 -0.00    +0.000 A 
DOCKED: ATOM     17  C   UNL     1      29.059 -15.947  -4.985 -0.30 -0.00    +0.000 A 
DOCKED: ENDBRANCH  10  12
DOCKED: ENDBRANCH   8  10
DOCKED: ENDBRANCH   1   8
DOCKED: BRANCH   3  18
DOCKED: ATOM     18  C   UNL     1      23.322 -18.995  -1.079 -0.81 -0.00    +0.000 C 
DOCKED: ATOM     19  C   UNL     1      22.064 -18.560  -0.909 -0.83 -0.00    +0.000 C 
DOCKED: BRANCH  19  20
DOCKED: ATOM     20  C   UNL     1      20.899 -19.463  -0.810 -0.86 -0.00    +0.000 C 
DOCKED: ATOM     21  N   UNL     1      20.530 -20.105   0.418 -0.68 -0.00    +0.000 N 
DOCKED: ATOM     22  O   UNL     1      20.196 -19.650  -1.838 -1.80 -0.00    +0.000 OA
DOCKED: ATOM     23  H   UNL     1      21.008 -19.886   1.250 -0.51 -0.00    +0.000 HD
DOCKED: BRANCH  21  24
DOCKED: ATOM     24  O   UNL     1      19.523 -21.012   0.434 -0.76 -0.00    +0.000 OA
DOCKED: ATOM     25  H   UNL     1      19.195 -21.147  -0.468 -0.39 -0.00    +0.000 HD
DOCKED: ENDBRANCH  21  24
DOCKED: ENDBRANCH  19  20
DOCKED: ENDBRANCH   3  18
DOCKED: TORSDOF 6
DOCKED: TER
DOCKED: ENDMDL
________________________________________________________________________________


	BEGINNING GENETIC ALGORITHM DOCKING 69 of 100
Run: 69 Seed: 1868923022 629012612 [ Run 69 of 100 GA/GALS ]
Beginning LAMARCKIAN GENETIC ALGORITHM (LGA), with a maximum of 2500000 energy evaluations.

Final-Value: -15.033


	FINAL GENETIC ALGORITHM DOCKED STATE
	_______________________________________________


Detailed state:  trans 24.052 -17.253 -2.757 quatxyzw 0.082697 -0.757215 0.323878 -0.561150 center 0.293 0.181 0.279 ntor 6 2.5745 -17.8895 -152.7015 156.5601 -68.4877 91.0380
State:	 24.052 -17.253  -2.757   0.100 -0.915  0.391 -111.729      2.57  -17.89 -152.70  156.56  -68.49   91.04

DOCKED: MODEL       69
DOCKED: USER    Run = 69
DOCKED: USER    DPF = ligand_dock.biased.dpf
DOCKED: USER  
DOCKED: USER    Estimated Free Energy of Binding    =  -11.73 kcal/mol  [=(1)+(2)+(3)-(4)]
DOCKED: USER    Estimated Inhibition Constant, Ki   =    2.52 nM (nanomolar)  [Temperature = 298.15 K]
DOCKED: USER    
DOCKED: USER    (1) Final Intermolecular Energy     =  -13.52 kcal/mol
DOCKED: USER        vdW + Hbond + desolv Energy     =  -13.52 kcal/mol
DOCKED: USER        Electrostatic Energy            =   +0.00 kcal/mol
DOCKED: USER    (2) Final Total Internal Energy     =   -1.51 kcal/mol
DOCKED: USER    (3) Torsional Free Energy           =   +1.79 kcal/mol
DOCKED: USER    (4) Unbound System's Energy  [=(2)] =   -1.51 kcal/mol
DOCKED: USER    
DOCKED: USER    
DOCKED: USER    NEWDPF move ligand.pdbqt
DOCKED: USER    NEWDPF about 0.293000 0.181000 0.279000
DOCKED: USER    NEWDPF tran0 24.051661 -17.253100 -2.757441
DOCKED: USER    NEWDPF quaternion0 0.082697 -0.757215 0.323878 -0.561150
DOCKED: USER    NEWDPF axisangle0 0.099910 -0.914827 0.391293 -111.729287
DOCKED: USER    NEWDPF quat0 0.099910 -0.914827 0.391293 -111.729287
DOCKED: USER    NEWDPF dihe0 2.57 -17.89 -152.70 156.56 -68.49 91.04 
DOCKED: USER  keepresnum = 1 
DOCKED: USER  
DOCKED: REMARK  Name = 
DOCKED: REMARK  6 active torsions:
DOCKED: REMARK  status: ('A' for Active; 'I' for Inactive)
DOCKED: REMARK    1  A    between atoms: S_2  and  N_3
DOCKED: REMARK    2  A    between atoms: S_2  and  C_10
DOCKED: REMARK    3  A    between atoms: N_3  and  C_4
DOCKED: REMARK    4  A    between atoms: C_12  and  C_13
DOCKED: REMARK    5  A    between atoms: C_14  and  C_15
DOCKED: REMARK    6  A    between atoms: N_16  and  O_17
DOCKED: REMARK                            x       y       z     vdW  Elec       q    Type
DOCKED: REMARK                         _______ _______ _______ _____ _____    ______ ____
DOCKED: USER                              x       y       z     vdW  Elec       q    Type
DOCKED: USER                           _______ _______ _______ _____ _____    ______ ____
DOCKED: ROOT
DOCKED: ATOM      1  C   UNL     1      26.029 -15.853  -2.823 -0.45 -0.00    +0.000 A 
DOCKED: ATOM      2  C   UNL     1      24.757 -16.230  -2.374 -0.29 -0.00    +0.000 A 
DOCKED: ATOM      3  C   UNL     1      24.596 -16.886  -1.141 -0.58 -0.00    +0.000 A 
DOCKED: ATOM      4  C   UNL     1      25.735 -17.127  -0.345 -0.49 -0.00    +0.000 A 
DOCKED: ATOM      5  C   UNL     1      27.002 -16.740  -0.791 -0.42 -0.00    +0.000 A 
DOCKED: ATOM      6  C   UNL     1      27.151 -16.109  -2.026 -0.33 -0.00    +0.000 A 
DOCKED: ENDROOT
DOCKED: BRANCH   1   8
DOCKED: ATOM      7  O   UNL     1      25.799 -15.987  -5.499 -1.10 +0.00    +0.000 OA
DOCKED: ATOM      8  S   UNL     1      26.212 -15.064  -4.387 -0.70 -0.00    +0.000 S 
DOCKED: ATOM      9  O   UNL     1      27.655 -14.689  -4.572 -0.37 -0.00    +0.000 OA
DOCKED: BRANCH   8  10
DOCKED: ATOM     10  N   UNL     1      25.236 -13.629  -4.450 -0.44 -0.00    +0.000 N 
DOCKED: ATOM     11  H   UNL     1      24.266 -13.735  -4.576 -0.40 -0.00    +0.000 HD
DOCKED: BRANCH  10  12
DOCKED: ATOM     12  C   UNL     1      25.761 -12.294  -4.328 -0.27 -0.00    +0.000 A 
DOCKED: ATOM     13  C   UNL     1      26.920 -12.014  -3.577 -0.16 -0.00    +0.000 A 
DOCKED: ATOM     14  C   UNL     1      27.405 -10.706  -3.489 -0.09 -0.00    +0.000 A 
DOCKED: ATOM     15  C   UNL     1      26.741  -9.666  -4.143 -0.11 -0.00    +0.000 A 
DOCKED: ATOM     16  C   UNL     1      25.587  -9.931  -4.884 -0.24 -0.00    +0.000 A 
DOCKED: ATOM     17  C   UNL     1      25.099 -11.238  -4.975 -0.36 -0.00    +0.000 A 
DOCKED: ENDBRANCH  10  12
DOCKED: ENDBRANCH   8  10
DOCKED: ENDBRANCH   1   8
DOCKED: BRANCH   3  18
DOCKED: ATOM     18  C   UNL     1      23.227 -17.267  -0.714 -0.73 -0.00    +0.000 C 
DOCKED: ATOM     19  C   UNL     1      22.656 -18.445  -1.009 -0.82 -0.00    +0.000 C 
DOCKED: BRANCH  19  20
DOCKED: ATOM     20  C   UNL     1      21.291 -18.815  -0.585 -0.86 -0.00    +0.000 C 
DOCKED: ATOM     21  N   UNL     1      20.985 -20.095  -0.017 -0.64 -0.00    +0.000 N 
DOCKED: ATOM     22  O   UNL     1      20.372 -17.962  -0.708 -2.23 -0.00    +0.000 OA
DOCKED: ATOM     23  H   UNL     1      21.711 -20.732   0.179 -0.57 -0.00    +0.000 HD
DOCKED: BRANCH  21  24
DOCKED: ATOM     24  O   UNL     1      19.700 -20.432   0.251 -0.81 -0.00    +0.000 OA
DOCKED: ATOM     25  H   UNL     1      19.113 -19.716  -0.038 -0.03 -0.00    +0.000 HD
DOCKED: ENDBRANCH  21  24
DOCKED: ENDBRANCH  19  20
DOCKED: ENDBRANCH   3  18
DOCKED: TORSDOF 6
DOCKED: TER
DOCKED: ENDMDL
________________________________________________________________________________


	BEGINNING GENETIC ALGORITHM DOCKING 70 of 100
Run: 70 Seed: 181312921 789262931 [ Run 70 of 100 GA/GALS ]
Beginning LAMARCKIAN GENETIC ALGORITHM (LGA), with a maximum of 2500000 energy evaluations.

Final-Value: -15.862


	FINAL GENETIC ALGORITHM DOCKED STATE
	_______________________________________________


Detailed state:  trans 24.274 -17.994 -2.758 quatxyzw -0.210876 0.766006 -0.320982 0.515497 center 0.293 0.181 0.279 ntor 6 27.3406 127.0057 -24.5313 160.7774 172.4596 -149.9928
State:	 24.274 -17.994  -2.758  -0.246  0.894 -0.375 117.939     27.34  127.01  -24.53  160.78  172.46 -149.99

DOCKED: MODEL       70
DOCKED: USER    Run = 70
DOCKED: USER    DPF = ligand_dock.biased.dpf
DOCKED: USER  
DOCKED: USER    Estimated Free Energy of Binding    =  -12.62 kcal/mol  [=(1)+(2)+(3)-(4)]
DOCKED: USER    Estimated Inhibition Constant, Ki   =  562.00 pM (picomolar)  [Temperature = 298.15 K]
DOCKED: USER    
DOCKED: USER    (1) Final Intermolecular Energy     =  -14.41 kcal/mol
DOCKED: USER        vdW + Hbond + desolv Energy     =  -14.41 kcal/mol
DOCKED: USER        Electrostatic Energy            =   +0.00 kcal/mol
DOCKED: USER    (2) Final Total Internal Energy     =   -1.45 kcal/mol
DOCKED: USER    (3) Torsional Free Energy           =   +1.79 kcal/mol
DOCKED: USER    (4) Unbound System's Energy  [=(2)] =   -1.45 kcal/mol
DOCKED: USER    
DOCKED: USER    
DOCKED: USER    NEWDPF move ligand.pdbqt
DOCKED: USER    NEWDPF about 0.293000 0.181000 0.279000
DOCKED: USER    NEWDPF tran0 24.274282 -17.993872 -2.758178
DOCKED: USER    NEWDPF quaternion0 -0.210876 0.766006 -0.320982 0.515497
DOCKED: USER    NEWDPF axisangle0 -0.246094 0.893936 -0.374588 117.938659
DOCKED: USER    NEWDPF quat0 -0.246094 0.893936 -0.374588 117.938659
DOCKED: USER    NEWDPF dihe0 27.34 127.01 -24.53 160.78 172.46 -149.99 
DOCKED: USER  keepresnum = 1 
DOCKED: USER  
DOCKED: REMARK  Name = 
DOCKED: REMARK  6 active torsions:
DOCKED: REMARK  status: ('A' for Active; 'I' for Inactive)
DOCKED: REMARK    1  A    between atoms: S_2  and  N_3
DOCKED: REMARK    2  A    between atoms: S_2  and  C_10
DOCKED: REMARK    3  A    between atoms: N_3  and  C_4
DOCKED: REMARK    4  A    between atoms: C_12  and  C_13
DOCKED: REMARK    5  A    between atoms: C_14  and  C_15
DOCKED: REMARK    6  A    between atoms: N_16  and  O_17
DOCKED: REMARK                            x       y       z     vdW  Elec       q    Type
DOCKED: REMARK                         _______ _______ _______ _____ _____    ______ ____
DOCKED: USER                              x       y       z     vdW  Elec       q    Type
DOCKED: USER                           _______ _______ _______ _____ _____    ______ ____
DOCKED: ROOT
DOCKED: ATOM      1  C   UNL     1      25.900 -16.205  -2.572 -0.46 -0.00    +0.000 A 
DOCKED: ATOM      2  C   UNL     1      24.750 -16.917  -2.206 -0.48 -0.00    +0.000 A 
DOCKED: ATOM      3  C   UNL     1      24.762 -17.780  -1.096 -0.65 -0.00    +0.000 A 
DOCKED: ATOM      4  C   UNL     1      25.943 -17.891  -0.335 -0.59 -0.00    +0.000 A 
DOCKED: ATOM      5  C   UNL     1      27.087 -17.173  -0.696 -0.45 -0.00    +0.000 A 
DOCKED: ATOM      6  C   UNL     1      27.068 -16.335  -1.812 -0.35 -0.00    +0.000 A 
DOCKED: ENDROOT
DOCKED: BRANCH   1   8
DOCKED: ATOM      7  O   UNL     1      24.757 -14.155  -3.884 -1.06 -0.00    +0.000 OA
DOCKED: ATOM      8  S   UNL     1      25.873 -15.156  -3.987 -0.73 -0.00    +0.000 S 
DOCKED: ATOM      9  O   UNL     1      25.662 -16.002  -5.210 -1.07 +0.00    +0.000 OA
DOCKED: BRANCH   8  10
DOCKED: ATOM     10  N   UNL     1      27.382 -14.309  -4.130 -0.28 -0.00    +0.000 N 
DOCKED: ATOM     11  H   UNL     1      27.572 -13.591  -3.484 +0.00 -0.00    +0.000 HD
DOCKED: BRANCH  10  12
DOCKED: ATOM     12  C   UNL     1      28.370 -14.594  -5.137 -0.30 -0.00    +0.000 A 
DOCKED: ATOM     13  C   UNL     1      28.716 -13.654  -6.129 -0.25 -0.00    +0.000 A 
DOCKED: ATOM     14  C   UNL     1      29.687 -13.964  -7.086 -0.26 -0.00    +0.000 A 
DOCKED: ATOM     15  C   UNL     1      30.319 -15.209  -7.069 -0.27 -0.00    +0.000 A 
DOCKED: ATOM     16  C   UNL     1      29.978 -16.151  -6.095 -0.31 -0.00    +0.000 A 
DOCKED: ATOM     17  C   UNL     1      29.008 -15.846  -5.135 -0.30 -0.00    +0.000 A 
DOCKED: ENDBRANCH  10  12
DOCKED: ENDBRANCH   8  10
DOCKED: ENDBRANCH   1   8
DOCKED: BRANCH   3  18
DOCKED: ATOM     18  C   UNL     1      23.517 -18.512  -0.754 -0.82 -0.00    +0.000 C 
DOCKED: ATOM     19  C   UNL     1      22.286 -18.049  -1.018 -0.75 -0.00    +0.000 C 
DOCKED: BRANCH  19  20
DOCKED: ATOM     20  C   UNL     1      21.051 -18.781  -0.670 -0.86 -0.00    +0.000 C 
DOCKED: ATOM     21  N   UNL     1      21.074 -20.111  -0.135 -0.60 -0.00    +0.000 N 
DOCKED: ATOM     22  O   UNL     1      19.945 -18.201  -0.828 -1.90 -0.00    +0.000 OA
DOCKED: ATOM     23  H   UNL     1      21.933 -20.536   0.089 -0.58 -0.00    +0.000 HD
DOCKED: BRANCH  21  24
DOCKED: ATOM     24  O   UNL     1      19.914 -20.785   0.062 -0.79 -0.00    +0.000 OA
DOCKED: ATOM     25  H   UNL     1      19.245 -20.465  -0.563 -0.29 -0.00    +0.000 HD
DOCKED: ENDBRANCH  21  24
DOCKED: ENDBRANCH  19  20
DOCKED: ENDBRANCH   3  18
DOCKED: TORSDOF 6
DOCKED: TER
DOCKED: ENDMDL
________________________________________________________________________________


	BEGINNING GENETIC ALGORITHM DOCKING 71 of 100
Run: 71 Seed: 864591015 34916959 [ Run 71 of 100 GA/GALS ]
Beginning LAMARCKIAN GENETIC ALGORITHM (LGA), with a maximum of 2500000 energy evaluations.

Final-Value: -15.826


	FINAL GENETIC ALGORITHM DOCKED STATE
	_______________________________________________


Detailed state:  trans 24.163 -18.000 -2.745 quatxyzw 0.210402 -0.760196 0.284352 -0.544956 center 0.293 0.181 0.279 ntor 6 58.6238 121.4638 -30.1059 147.5599 -176.0014 -151.9163
State:	 24.163 -18.000  -2.745   0.251 -0.907  0.339 -113.957     58.62  121.46  -30.11  147.56 -176.00 -151.92

DOCKED: MODEL       71
DOCKED: USER    Run = 71
DOCKED: USER    DPF = ligand_dock.biased.dpf
DOCKED: USER  
DOCKED: USER    Estimated Free Energy of Binding    =  -12.80 kcal/mol  [=(1)+(2)+(3)-(4)]
DOCKED: USER    Estimated Inhibition Constant, Ki   =  413.42 pM (picomolar)  [Temperature = 298.15 K]
DOCKED: USER    
DOCKED: USER    (1) Final Intermolecular Energy     =  -14.59 kcal/mol
DOCKED: USER        vdW + Hbond + desolv Energy     =  -14.59 kcal/mol
DOCKED: USER        Electrostatic Energy            =   +0.00 kcal/mol
DOCKED: USER    (2) Final Total Internal Energy     =   -1.23 kcal/mol
DOCKED: USER    (3) Torsional Free Energy           =   +1.79 kcal/mol
DOCKED: USER    (4) Unbound System's Energy  [=(2)] =   -1.23 kcal/mol
DOCKED: USER    
DOCKED: USER    
DOCKED: USER    NEWDPF move ligand.pdbqt
DOCKED: USER    NEWDPF about 0.293000 0.181000 0.279000
DOCKED: USER    NEWDPF tran0 24.163178 -17.999693 -2.744994
DOCKED: USER    NEWDPF quaternion0 0.210402 -0.760196 0.284352 -0.544956
DOCKED: USER    NEWDPF axisangle0 0.250937 -0.906652 0.339135 -113.956654
DOCKED: USER    NEWDPF quat0 0.250937 -0.906652 0.339135 -113.956654
DOCKED: USER    NEWDPF dihe0 58.62 121.46 -30.11 147.56 -176.00 -151.92 
DOCKED: USER  keepresnum = 1 
DOCKED: USER  
DOCKED: REMARK  Name = 
DOCKED: REMARK  6 active torsions:
DOCKED: REMARK  status: ('A' for Active; 'I' for Inactive)
DOCKED: REMARK    1  A    between atoms: S_2  and  N_3
DOCKED: REMARK    2  A    between atoms: S_2  and  C_10
DOCKED: REMARK    3  A    between atoms: N_3  and  C_4
DOCKED: REMARK    4  A    between atoms: C_12  and  C_13
DOCKED: REMARK    5  A    between atoms: C_14  and  C_15
DOCKED: REMARK    6  A    between atoms: N_16  and  O_17
DOCKED: REMARK                            x       y       z     vdW  Elec       q    Type
DOCKED: REMARK                         _______ _______ _______ _____ _____    ______ ____
DOCKED: USER                              x       y       z     vdW  Elec       q    Type
DOCKED: USER                           _______ _______ _______ _____ _____    ______ ____
DOCKED: ROOT
DOCKED: ATOM      1  C   UNL     1      25.895 -16.310  -2.602 -0.45 -0.00    +0.000 A 
DOCKED: ATOM      2  C   UNL     1      24.733 -16.973  -2.186 -0.48 -0.00    +0.000 A 
DOCKED: ATOM      3  C   UNL     1      24.769 -17.881  -1.113 -0.65 -0.00    +0.000 A 
DOCKED: ATOM      4  C   UNL     1      25.990 -18.087  -0.437 -0.58 -0.00    +0.000 A 
DOCKED: ATOM      5  C   UNL     1      27.145 -17.416  -0.847 -0.44 -0.00    +0.000 A 
DOCKED: ATOM      6  C   UNL     1      27.101 -16.533  -1.927 -0.35 -0.00    +0.000 A 
DOCKED: ENDROOT
DOCKED: BRANCH   1   8
DOCKED: ATOM      7  O   UNL     1      24.755 -14.177  -3.777 -1.02 -0.00    +0.000 OA
DOCKED: ATOM      8  S   UNL     1      25.835 -15.204  -3.971 -0.73 -0.00    +0.000 S 
DOCKED: ATOM      9  O   UNL     1      25.545 -15.992  -5.216 -1.06 -0.00    +0.000 OA
DOCKED: BRANCH   8  10
DOCKED: ATOM     10  N   UNL     1      27.361 -14.393  -4.150 -0.29 -0.00    +0.000 N 
DOCKED: ATOM     11  H   UNL     1      27.518 -13.581  -3.617 +0.00 -0.00    +0.000 HD
DOCKED: BRANCH  10  12
DOCKED: ATOM     12  C   UNL     1      28.407 -14.837  -5.033 -0.31 -0.00    +0.000 A 
DOCKED: ATOM     13  C   UNL     1      28.749 -14.128  -6.201 -0.30 -0.00    +0.000 A 
DOCKED: ATOM     14  C   UNL     1      29.777 -14.586  -7.030 -0.28 -0.00    +0.000 A 
DOCKED: ATOM     15  C   UNL     1      30.472 -15.754  -6.708 -0.28 -0.00    +0.000 A 
DOCKED: ATOM     16  C   UNL     1      30.136 -16.470  -5.556 -0.27 -0.00    +0.000 A 
DOCKED: ATOM     17  C   UNL     1      29.108 -16.015  -4.724 -0.28 -0.00    +0.000 A 
DOCKED: ENDBRANCH  10  12
DOCKED: ENDBRANCH   8  10
DOCKED: ENDBRANCH   1   8
DOCKED: BRANCH   3  18
DOCKED: ATOM     18  C   UNL     1      23.510 -18.559  -0.716 -0.83 -0.00    +0.000 C 
DOCKED: ATOM     19  C   UNL     1      22.290 -18.131  -1.074 -0.76 -0.00    +0.000 C 
DOCKED: BRANCH  19  20
DOCKED: ATOM     20  C   UNL     1      21.041 -18.808  -0.671 -0.87 -0.00    +0.000 C 
DOCKED: ATOM     21  N   UNL     1      21.034 -20.110  -0.071 -0.62 -0.00    +0.000 N 
DOCKED: ATOM     22  O   UNL     1      19.949 -18.203  -0.839 -1.91 -0.00    +0.000 OA
DOCKED: ATOM     23  H   UNL     1      21.885 -20.549   0.159 -0.58 -0.00    +0.000 HD
DOCKED: BRANCH  21  24
DOCKED: ATOM     24  O   UNL     1      19.860 -20.739   0.177 -0.79 -0.00    +0.000 OA
DOCKED: ATOM     25  H   UNL     1      19.368 -20.842  -0.652 -0.48 -0.00    +0.000 HD
DOCKED: ENDBRANCH  21  24
DOCKED: ENDBRANCH  19  20
DOCKED: ENDBRANCH   3  18
DOCKED: TORSDOF 6
DOCKED: TER
DOCKED: ENDMDL
________________________________________________________________________________


	BEGINNING GENETIC ALGORITHM DOCKING 72 of 100
Run: 72 Seed: 1698291745 1425497578 [ Run 72 of 100 GA/GALS ]
Beginning LAMARCKIAN GENETIC ALGORITHM (LGA), with a maximum of 2500000 energy evaluations.

Final-Value: -14.860


	FINAL GENETIC ALGORITHM DOCKED STATE
	_______________________________________________


Detailed state:  trans 24.257 -17.709 -3.150 quatxyzw 0.171038 -0.844572 0.234385 -0.450009 center 0.293 0.181 0.279 ntor 6 27.0951 50.1288 82.5632 -0.3743 78.0149 176.5439
State:	 24.257 -17.709  -3.150   0.192 -0.946  0.262 -126.511     27.10   50.13   82.56   -0.37   78.01  176.54

DOCKED: MODEL       72
DOCKED: USER    Run = 72
DOCKED: USER    DPF = ligand_dock.biased.dpf
DOCKED: USER  
DOCKED: USER    Estimated Free Energy of Binding    =  -11.61 kcal/mol  [=(1)+(2)+(3)-(4)]
DOCKED: USER    Estimated Inhibition Constant, Ki   =    3.07 nM (nanomolar)  [Temperature = 298.15 K]
DOCKED: USER    
DOCKED: USER    (1) Final Intermolecular Energy     =  -13.40 kcal/mol
DOCKED: USER        vdW + Hbond + desolv Energy     =  -13.40 kcal/mol
DOCKED: USER        Electrostatic Energy            =   +0.00 kcal/mol
DOCKED: USER    (2) Final Total Internal Energy     =   -1.46 kcal/mol
DOCKED: USER    (3) Torsional Free Energy           =   +1.79 kcal/mol
DOCKED: USER    (4) Unbound System's Energy  [=(2)] =   -1.46 kcal/mol
DOCKED: USER    
DOCKED: USER    
DOCKED: USER    NEWDPF move ligand.pdbqt
DOCKED: USER    NEWDPF about 0.293000 0.181000 0.279000
DOCKED: USER    NEWDPF tran0 24.257190 -17.709148 -3.149655
DOCKED: USER    NEWDPF quaternion0 0.171038 -0.844572 0.234385 -0.450009
DOCKED: USER    NEWDPF axisangle0 0.191527 -0.945744 0.262462 -126.511427
DOCKED: USER    NEWDPF quat0 0.191527 -0.945744 0.262462 -126.511427
DOCKED: USER    NEWDPF dihe0 27.10 50.13 82.56 -0.37 78.01 176.54 
DOCKED: USER  keepresnum = 1 
DOCKED: USER  
DOCKED: REMARK  Name = 
DOCKED: REMARK  6 active torsions:
DOCKED: REMARK  status: ('A' for Active; 'I' for Inactive)
DOCKED: REMARK    1  A    between atoms: S_2  and  N_3
DOCKED: REMARK    2  A    between atoms: S_2  and  C_10
DOCKED: REMARK    3  A    between atoms: N_3  and  C_4
DOCKED: REMARK    4  A    between atoms: C_12  and  C_13
DOCKED: REMARK    5  A    between atoms: C_14  and  C_15
DOCKED: REMARK    6  A    between atoms: N_16  and  O_17
DOCKED: REMARK                            x       y       z     vdW  Elec       q    Type
DOCKED: REMARK                         _______ _______ _______ _____ _____    ______ ____
DOCKED: USER                              x       y       z     vdW  Elec       q    Type
DOCKED: USER                           _______ _______ _______ _____ _____    ______ ____
DOCKED: ROOT
DOCKED: ATOM      1  C   UNL     1      26.034 -16.244  -2.392 -0.45 -0.00    +0.000 A 
DOCKED: ATOM      2  C   UNL     1      24.756 -16.818  -2.345 -0.35 -0.00    +0.000 A 
DOCKED: ATOM      3  C   UNL     1      24.459 -17.835  -1.421 -0.65 -0.00    +0.000 A 
DOCKED: ATOM      4  C   UNL     1      25.460 -18.245  -0.516 -0.61 -0.00    +0.000 A 
DOCKED: ATOM      5  C   UNL     1      26.731 -17.664  -0.558 -0.50 -0.00    +0.000 A 
DOCKED: ATOM      6  C   UNL     1      27.020 -16.670  -1.494 -0.39 -0.00    +0.000 A 
DOCKED: ENDROOT
DOCKED: BRANCH   1   8
DOCKED: ATOM      7  O   UNL     1      25.131 -14.342  -4.065 -0.98 -0.00    +0.000 OA
DOCKED: ATOM      8  S   UNL     1      26.395 -14.996  -3.581 -0.60 -0.00    +0.000 S 
DOCKED: ATOM      9  O   UNL     1      27.096 -15.630  -4.748 -0.82 -0.00    +0.000 OA
DOCKED: BRANCH   8  10
DOCKED: ATOM     10  N   UNL     1      27.427 -13.787  -2.882 -0.19 -0.00    +0.000 N 
DOCKED: ATOM     11  H   UNL     1      28.262 -13.562  -3.355 +0.01 -0.00    +0.000 HD
DOCKED: BRANCH  10  12
DOCKED: ATOM     12  C   UNL     1      27.136 -13.095  -1.655 -0.15 -0.00    +0.000 A 
DOCKED: ATOM     13  C   UNL     1      26.546 -13.746  -0.553 -0.24 -0.00    +0.000 A 
DOCKED: ATOM     14  C   UNL     1      26.286 -13.042   0.626 -0.29 -0.00    +0.000 A 
DOCKED: ATOM     15  C   UNL     1      26.605 -11.686   0.720 -0.25 +0.00    +0.000 A 
DOCKED: ATOM     16  C   UNL     1      27.183 -11.028  -0.369 -0.12 -0.00    +0.000 A 
DOCKED: ATOM     17  C   UNL     1      27.446 -11.728  -1.551 -0.10 -0.00    +0.000 A 
DOCKED: ENDBRANCH  10  12
DOCKED: ENDBRANCH   8  10
DOCKED: ENDBRANCH   1   8
DOCKED: BRANCH   3  18
DOCKED: ATOM     18  C   UNL     1      23.092 -18.410  -1.416 -0.75 -0.00    +0.000 C 
DOCKED: ATOM     19  C   UNL     1      22.299 -18.434  -0.334 -0.84 -0.00    +0.000 C 
DOCKED: BRANCH  19  20
DOCKED: ATOM     20  C   UNL     1      20.940 -19.013  -0.334 -0.85 -0.00    +0.000 C 
DOCKED: ATOM     21  N   UNL     1      20.663 -20.317   0.194 -0.64 -0.00    +0.000 N 
DOCKED: ATOM     22  O   UNL     1      19.993 -18.322  -0.794 -1.90 -0.00    +0.000 OA
DOCKED: ATOM     23  H   UNL     1      21.373 -20.824   0.649 -0.61 -0.00    +0.000 HD
DOCKED: BRANCH  21  24
DOCKED: ATOM     24  O   UNL     1      19.424 -20.852   0.069 -0.75 -0.00    +0.000 OA
DOCKED: ATOM     25  H   UNL     1      18.990 -20.481  -0.715 -0.39 -0.00    +0.000 HD
DOCKED: ENDBRANCH  21  24
DOCKED: ENDBRANCH  19  20
DOCKED: ENDBRANCH   3  18
DOCKED: TORSDOF 6
DOCKED: TER
DOCKED: ENDMDL
________________________________________________________________________________


	BEGINNING GENETIC ALGORITHM DOCKING 73 of 100
Run: 73 Seed: 1348193800 2072054731 [ Run 73 of 100 GA/GALS ]
Beginning LAMARCKIAN GENETIC ALGORITHM (LGA), with a maximum of 2500000 energy evaluations.

Final-Value: -14.724


	FINAL GENETIC ALGORITHM DOCKED STATE
	_______________________________________________


Detailed state:  trans 24.394 -17.144 -2.804 quatxyzw -0.127871 0.779733 -0.198769 0.579790 center 0.293 0.181 0.279 ntor 6 37.4678 -25.5739 166.4815 -159.3593 -82.4602 65.2414
State:	 24.394 -17.144  -2.804  -0.157  0.957 -0.244 109.128     37.47  -25.57  166.48 -159.36  -82.46   65.24

DOCKED: MODEL       73
DOCKED: USER    Run = 73
DOCKED: USER    DPF = ligand_dock.biased.dpf
DOCKED: USER  
DOCKED: USER    Estimated Free Energy of Binding    =  -11.73 kcal/mol  [=(1)+(2)+(3)-(4)]
DOCKED: USER    Estimated Inhibition Constant, Ki   =    2.51 nM (nanomolar)  [Temperature = 298.15 K]
DOCKED: USER    
DOCKED: USER    (1) Final Intermolecular Energy     =  -13.52 kcal/mol
DOCKED: USER        vdW + Hbond + desolv Energy     =  -13.52 kcal/mol
DOCKED: USER        Electrostatic Energy            =   +0.00 kcal/mol
DOCKED: USER    (2) Final Total Internal Energy     =   -1.20 kcal/mol
DOCKED: USER    (3) Torsional Free Energy           =   +1.79 kcal/mol
DOCKED: USER    (4) Unbound System's Energy  [=(2)] =   -1.20 kcal/mol
DOCKED: USER    
DOCKED: USER    
DOCKED: USER    NEWDPF move ligand.pdbqt
DOCKED: USER    NEWDPF about 0.293000 0.181000 0.279000
DOCKED: USER    NEWDPF tran0 24.393983 -17.144465 -2.803609
DOCKED: USER    NEWDPF quaternion0 -0.127871 0.779733 -0.198769 0.579790
DOCKED: USER    NEWDPF axisangle0 -0.156942 0.957002 -0.243959 109.128488
DOCKED: USER    NEWDPF quat0 -0.156942 0.957002 -0.243959 109.128488
DOCKED: USER    NEWDPF dihe0 37.47 -25.57 166.48 -159.36 -82.46 65.24 
DOCKED: USER  keepresnum = 1 
DOCKED: USER  
DOCKED: REMARK  Name = 
DOCKED: REMARK  6 active torsions:
DOCKED: REMARK  status: ('A' for Active; 'I' for Inactive)
DOCKED: REMARK    1  A    between atoms: S_2  and  N_3
DOCKED: REMARK    2  A    between atoms: S_2  and  C_10
DOCKED: REMARK    3  A    between atoms: N_3  and  C_4
DOCKED: REMARK    4  A    between atoms: C_12  and  C_13
DOCKED: REMARK    5  A    between atoms: C_14  and  C_15
DOCKED: REMARK    6  A    between atoms: N_16  and  O_17
DOCKED: REMARK                            x       y       z     vdW  Elec       q    Type
DOCKED: REMARK                         _______ _______ _______ _____ _____    ______ ____
DOCKED: USER                              x       y       z     vdW  Elec       q    Type
DOCKED: USER                           _______ _______ _______ _____ _____    ______ ____
DOCKED: ROOT
DOCKED: ATOM      1  C   UNL     1      26.490 -15.936  -2.647 -0.40 -0.00    +0.000 A 
DOCKED: ATOM      2  C   UNL     1      25.207 -16.311  -2.225 -0.51 -0.00    +0.000 A 
DOCKED: ATOM      3  C   UNL     1      25.037 -17.241  -1.184 -0.59 -0.00    +0.000 A 
DOCKED: ATOM      4  C   UNL     1      26.180 -17.765  -0.547 -0.56 -0.00    +0.000 A 
DOCKED: ATOM      5  C   UNL     1      27.458 -17.382  -0.962 -0.39 -0.00    +0.000 A 
DOCKED: ATOM      6  C   UNL     1      27.615 -16.474  -2.011 -0.30 -0.00    +0.000 A 
DOCKED: ENDROOT
DOCKED: BRANCH   1   8
DOCKED: ATOM      7  O   UNL     1      26.746 -15.520  -5.291 -1.13 +0.00    +0.000 OA
DOCKED: ATOM      8  S   UNL     1      26.681 -14.797  -3.976 -0.57 -0.00    +0.000 S 
DOCKED: ATOM      9  O   UNL     1      27.957 -14.030  -3.774 -0.20 -0.00    +0.000 OA
DOCKED: BRANCH   8  10
DOCKED: ATOM     10  N   UNL     1      25.346 -13.686  -4.006 -0.48 -0.00    +0.000 N 
DOCKED: ATOM     11  H   UNL     1      24.467 -14.012  -3.706 -0.09 -0.00    +0.000 HD
DOCKED: BRANCH  10  12
DOCKED: ATOM     12  C   UNL     1      25.448 -12.319  -4.445 -0.29 -0.00    +0.000 A 
DOCKED: ATOM     13  C   UNL     1      26.584 -11.531  -4.170 -0.20 -0.00    +0.000 A 
DOCKED: ATOM     14  C   UNL     1      26.651 -10.209  -4.620 -0.14 -0.00    +0.000 A 
DOCKED: ATOM     15  C   UNL     1      25.589  -9.658  -5.341 -0.22 -0.00    +0.000 A 
DOCKED: ATOM     16  C   UNL     1      24.456 -10.428  -5.612 -0.40 -0.00    +0.000 A 
DOCKED: ATOM     17  C   UNL     1      24.384 -11.751  -5.164 -0.11 -0.00    +0.000 A 
DOCKED: ENDBRANCH  10  12
DOCKED: ENDBRANCH   8  10
DOCKED: ENDBRANCH   1   8
DOCKED: BRANCH   3  18
DOCKED: ATOM     18  C   UNL     1      23.657 -17.606  -0.779 -0.77 -0.00    +0.000 C 
DOCKED: ATOM     19  C   UNL     1      22.868 -18.430  -1.484 -0.68 -0.00    +0.000 C 
DOCKED: BRANCH  19  20
DOCKED: ATOM     20  C   UNL     1      21.493 -18.785  -1.077 -0.82 -0.00    +0.000 C 
DOCKED: ATOM     21  N   UNL     1      20.706 -19.746  -1.793 -0.77 -0.00    +0.000 N 
DOCKED: ATOM     22  O   UNL     1      21.011 -18.238  -0.050 -1.59 -0.00    +0.000 OA
DOCKED: ATOM     23  H   UNL     1      21.107 -20.255  -2.534 -0.50 -0.00    +0.000 HD
DOCKED: BRANCH  21  24
DOCKED: ATOM     24  O   UNL     1      19.411 -19.955  -1.451 -1.33 -0.00    +0.000 OA
DOCKED: ATOM     25  H   UNL     1      19.003 -19.111  -1.203 -0.47 -0.00    +0.000 HD
DOCKED: ENDBRANCH  21  24
DOCKED: ENDBRANCH  19  20
DOCKED: ENDBRANCH   3  18
DOCKED: TORSDOF 6
DOCKED: TER
DOCKED: ENDMDL
________________________________________________________________________________


	BEGINNING GENETIC ALGORITHM DOCKING 74 of 100
Run: 74 Seed: 1124953372 35367407 [ Run 74 of 100 GA/GALS ]
Beginning LAMARCKIAN GENETIC ALGORITHM (LGA), with a maximum of 2500000 energy evaluations.

Final-Value: -15.104


	FINAL GENETIC ALGORITHM DOCKED STATE
	_______________________________________________


Detailed state:  trans 24.060 -17.399 -2.439 quatxyzw 0.155301 -0.750985 0.191059 -0.612699 center 0.293 0.181 0.279 ntor 6 -9.9093 40.6646 -93.4892 10.0947 -107.6904 158.5453
State:	 24.060 -17.399  -2.439   0.197 -0.950  0.242 -104.430     -9.91   40.66  -93.49   10.09 -107.69  158.55

DOCKED: MODEL       74
DOCKED: USER    Run = 74
DOCKED: USER    DPF = ligand_dock.biased.dpf
DOCKED: USER  
DOCKED: USER    Estimated Free Energy of Binding    =  -11.70 kcal/mol  [=(1)+(2)+(3)-(4)]
DOCKED: USER    Estimated Inhibition Constant, Ki   =    2.66 nM (nanomolar)  [Temperature = 298.15 K]
DOCKED: USER    
DOCKED: USER    (1) Final Intermolecular Energy     =  -13.49 kcal/mol
DOCKED: USER        vdW + Hbond + desolv Energy     =  -13.49 kcal/mol
DOCKED: USER        Electrostatic Energy            =   +0.00 kcal/mol
DOCKED: USER    (2) Final Total Internal Energy     =   -1.62 kcal/mol
DOCKED: USER    (3) Torsional Free Energy           =   +1.79 kcal/mol
DOCKED: USER    (4) Unbound System's Energy  [=(2)] =   -1.62 kcal/mol
DOCKED: USER    
DOCKED: USER    
DOCKED: USER    NEWDPF move ligand.pdbqt
DOCKED: USER    NEWDPF about 0.293000 0.181000 0.279000
DOCKED: USER    NEWDPF tran0 24.060089 -17.399381 -2.439205
DOCKED: USER    NEWDPF quaternion0 0.155301 -0.750985 0.191059 -0.612699
DOCKED: USER    NEWDPF axisangle0 0.196504 -0.950233 0.241751 -104.430173
DOCKED: USER    NEWDPF quat0 0.196504 -0.950233 0.241751 -104.430173
DOCKED: USER    NEWDPF dihe0 -9.91 40.66 -93.49 10.09 -107.69 158.55 
DOCKED: USER  keepresnum = 1 
DOCKED: USER  
DOCKED: REMARK  Name = 
DOCKED: REMARK  6 active torsions:
DOCKED: REMARK  status: ('A' for Active; 'I' for Inactive)
DOCKED: REMARK    1  A    between atoms: S_2  and  N_3
DOCKED: REMARK    2  A    between atoms: S_2  and  C_10
DOCKED: REMARK    3  A    between atoms: N_3  and  C_4
DOCKED: REMARK    4  A    between atoms: C_12  and  C_13
DOCKED: REMARK    5  A    between atoms: C_14  and  C_15
DOCKED: REMARK    6  A    between atoms: N_16  and  O_17
DOCKED: REMARK                            x       y       z     vdW  Elec       q    Type
DOCKED: REMARK                         _______ _______ _______ _____ _____    ______ ____
DOCKED: USER                              x       y       z     vdW  Elec       q    Type
DOCKED: USER                           _______ _______ _______ _____ _____    ______ ____
DOCKED: ROOT
DOCKED: ATOM      1  C   UNL     1      26.128 -16.134  -2.456 -0.44 -0.00    +0.000 A 
DOCKED: ATOM      2  C   UNL     1      24.903 -16.556  -1.921 -0.53 -0.00    +0.000 A 
DOCKED: ATOM      3  C   UNL     1      24.860 -17.514  -0.893 -0.63 -0.00    +0.000 A 
DOCKED: ATOM      4  C   UNL     1      26.074 -18.018  -0.383 -0.58 -0.00    +0.000 A 
DOCKED: ATOM      5  C   UNL     1      27.295 -17.589  -0.911 -0.39 -0.00    +0.000 A 
DOCKED: ATOM      6  C   UNL     1      27.324 -16.653  -1.946 -0.32 -0.00    +0.000 A 
DOCKED: ENDROOT
DOCKED: BRANCH   1   8
DOCKED: ATOM      7  O   UNL     1      24.767 -14.490  -4.092 -1.05 -0.00    +0.000 OA
DOCKED: ATOM      8  S   UNL     1      26.158 -14.960  -3.768 -0.65 -0.00    +0.000 S 
DOCKED: ATOM      9  O   UNL     1      26.751 -15.610  -4.985 -1.03 +0.00    +0.000 OA
DOCKED: BRANCH   8  10
DOCKED: ATOM     10  N   UNL     1      27.128 -13.591  -3.321 -0.22 -0.00    +0.000 N 
DOCKED: ATOM     11  H   UNL     1      27.743 -13.220  -3.995 +0.00 -0.00    +0.000 HD
DOCKED: BRANCH  10  12
DOCKED: ATOM     12  C   UNL     1      27.088 -12.966  -2.026 -0.14 -0.00    +0.000 A 
DOCKED: ATOM     13  C   UNL     1      26.761 -13.687  -0.860 -0.22 -0.00    +0.000 A 
DOCKED: ATOM     14  C   UNL     1      26.741 -13.048   0.383 -0.26 -0.00    +0.000 A 
DOCKED: ATOM     15  C   UNL     1      27.040 -11.687   0.478 -0.19 -0.00    +0.000 A 
DOCKED: ATOM     16  C   UNL     1      27.358 -10.961  -0.672 -0.11 -0.00    +0.000 A 
DOCKED: ATOM     17  C   UNL     1      27.380 -11.596  -1.918 -0.10 -0.00    +0.000 A 
DOCKED: ENDBRANCH  10  12
DOCKED: ENDBRANCH   8  10
DOCKED: ENDBRANCH   1   8
DOCKED: BRANCH   3  18
DOCKED: ATOM     18  C   UNL     1      23.537 -17.927  -0.365 -0.78 -0.00    +0.000 C 
DOCKED: ATOM     19  C   UNL     1      22.518 -18.327  -1.141 -0.77 -0.00    +0.000 C 
DOCKED: BRANCH  19  20
DOCKED: ATOM     20  C   UNL     1      21.202 -18.733  -0.609 -0.85 -0.00    +0.000 C 
DOCKED: ATOM     21  N   UNL     1      20.992 -19.996   0.037 -0.66 -0.00    +0.000 N 
DOCKED: ATOM     22  O   UNL     1      20.240 -17.926  -0.707 -2.19 -0.00    +0.000 OA
DOCKED: ATOM     23  H   UNL     1      21.756 -20.591   0.212 -0.59 -0.00    +0.000 HD
DOCKED: BRANCH  21  24
DOCKED: ATOM     24  O   UNL     1      19.744 -20.372   0.407 -0.79 -0.00    +0.000 OA
DOCKED: ATOM     25  H   UNL     1      19.138 -19.621   0.308 -0.03 -0.00    +0.000 HD
DOCKED: ENDBRANCH  21  24
DOCKED: ENDBRANCH  19  20
DOCKED: ENDBRANCH   3  18
DOCKED: TORSDOF 6
DOCKED: TER
DOCKED: ENDMDL
________________________________________________________________________________


	BEGINNING GENETIC ALGORITHM DOCKING 75 of 100
Run: 75 Seed: 1924998175 606584767 [ Run 75 of 100 GA/GALS ]
Beginning LAMARCKIAN GENETIC ALGORITHM (LGA), with a maximum of 2500000 energy evaluations.

Final-Value: -15.512


	FINAL GENETIC ALGORITHM DOCKED STATE
	_______________________________________________


Detailed state:  trans 24.414 -17.961 -2.736 quatxyzw 0.194472 -0.763671 0.277578 -0.549488 center 0.293 0.181 0.279 ntor 6 2.9372 -54.0264 -30.5687 143.9613 -176.3837 -144.6522
State:	 24.414 -17.961  -2.736   0.233 -0.914  0.332 -113.336      2.94  -54.03  -30.57  143.96 -176.38 -144.65

DOCKED: MODEL       75
DOCKED: USER    Run = 75
DOCKED: USER    DPF = ligand_dock.biased.dpf
DOCKED: USER  
DOCKED: USER    Estimated Free Energy of Binding    =  -12.10 kcal/mol  [=(1)+(2)+(3)-(4)]
DOCKED: USER    Estimated Inhibition Constant, Ki   =    1.36 nM (nanomolar)  [Temperature = 298.15 K]
DOCKED: USER    
DOCKED: USER    (1) Final Intermolecular Energy     =  -13.88 kcal/mol
DOCKED: USER        vdW + Hbond + desolv Energy     =  -13.88 kcal/mol
DOCKED: USER        Electrostatic Energy            =   +0.00 kcal/mol
DOCKED: USER    (2) Final Total Internal Energy     =   -1.63 kcal/mol
DOCKED: USER    (3) Torsional Free Energy           =   +1.79 kcal/mol
DOCKED: USER    (4) Unbound System's Energy  [=(2)] =   -1.63 kcal/mol
DOCKED: USER    
DOCKED: USER    
DOCKED: USER    NEWDPF move ligand.pdbqt
DOCKED: USER    NEWDPF about 0.293000 0.181000 0.279000
DOCKED: USER    NEWDPF tran0 24.414347 -17.961151 -2.735959
DOCKED: USER    NEWDPF quaternion0 0.194472 -0.763671 0.277578 -0.549488
DOCKED: USER    NEWDPF axisangle0 0.232761 -0.914027 0.332229 -113.336154
DOCKED: USER    NEWDPF quat0 0.232761 -0.914027 0.332229 -113.336154
DOCKED: USER    NEWDPF dihe0 2.94 -54.03 -30.57 143.96 -176.38 -144.65 
DOCKED: USER  keepresnum = 1 
DOCKED: USER  
DOCKED: REMARK  Name = 
DOCKED: REMARK  6 active torsions:
DOCKED: REMARK  status: ('A' for Active; 'I' for Inactive)
DOCKED: REMARK    1  A    between atoms: S_2  and  N_3
DOCKED: REMARK    2  A    between atoms: S_2  and  C_10
DOCKED: REMARK    3  A    between atoms: N_3  and  C_4
DOCKED: REMARK    4  A    between atoms: C_12  and  C_13
DOCKED: REMARK    5  A    between atoms: C_14  and  C_15
DOCKED: REMARK    6  A    between atoms: N_16  and  O_17
DOCKED: REMARK                            x       y       z     vdW  Elec       q    Type
DOCKED: REMARK                         _______ _______ _______ _____ _____    ______ ____
DOCKED: USER                              x       y       z     vdW  Elec       q    Type
DOCKED: USER                           _______ _______ _______ _____ _____    ______ ____
DOCKED: ROOT
DOCKED: ATOM      1  C   UNL     1      26.205 -16.333  -2.599 -0.40 -0.00    +0.000 A 
DOCKED: ATOM      2  C   UNL     1      25.019 -16.952  -2.182 -0.52 -0.00    +0.000 A 
DOCKED: ATOM      3  C   UNL     1      25.019 -17.853  -1.103 -0.63 -0.00    +0.000 A 
DOCKED: ATOM      4  C   UNL     1      26.230 -18.097  -0.422 -0.56 -0.00    +0.000 A 
DOCKED: ATOM      5  C   UNL     1      27.410 -17.471  -0.832 -0.41 -0.00    +0.000 A 
DOCKED: ATOM      6  C   UNL     1      27.400 -16.594  -1.919 -0.32 -0.00    +0.000 A 
DOCKED: ENDROOT
DOCKED: BRANCH   1   8
DOCKED: ATOM      7  O   UNL     1      25.273 -14.072  -3.717 -0.71 -0.00    +0.000 OA
DOCKED: ATOM      8  S   UNL     1      26.189 -15.235  -3.976 -0.69 -0.00    +0.000 S 
DOCKED: ATOM      9  O   UNL     1      25.701 -15.983  -5.184 -1.08 +0.00    +0.000 OA
DOCKED: BRANCH   8  10
DOCKED: ATOM     10  N   UNL     1      27.791 -14.638  -4.282 -0.28 -0.00    +0.000 N 
DOCKED: ATOM     11  H   UNL     1      28.076 -13.820  -3.814 +0.01 -0.00    +0.000 HD
DOCKED: BRANCH  10  12
DOCKED: ATOM     12  C   UNL     1      28.724 -15.266  -5.178 -0.32 -0.00    +0.000 A 
DOCKED: ATOM     13  C   UNL     1      29.259 -16.544  -4.923 -0.24 -0.00    +0.000 A 
DOCKED: ATOM     14  C   UNL     1      30.158 -17.126  -5.822 -0.30 -0.00    +0.000 A 
DOCKED: ATOM     15  C   UNL     1      30.536 -16.441  -6.979 -0.29 -0.00    +0.000 A 
DOCKED: ATOM     16  C   UNL     1      30.018 -15.170  -7.238 -0.24 -0.00    +0.000 A 
DOCKED: ATOM     17  C   UNL     1      29.119 -14.584  -6.342 -0.32 -0.00    +0.000 A 
DOCKED: ENDBRANCH  10  12
DOCKED: ENDBRANCH   8  10
DOCKED: ENDBRANCH   1   8
DOCKED: BRANCH   3  18
DOCKED: ATOM     18  C   UNL     1      23.736 -18.482  -0.705 -0.82 -0.00    +0.000 C 
DOCKED: ATOM     19  C   UNL     1      22.533 -18.010  -1.064 -0.76 -0.00    +0.000 C 
DOCKED: BRANCH  19  20
DOCKED: ATOM     20  C   UNL     1      21.259 -18.639  -0.660 -0.86 -0.00    +0.000 C 
DOCKED: ATOM     21  N   UNL     1      21.203 -19.943  -0.068 -0.60 -0.00    +0.000 N 
DOCKED: ATOM     22  O   UNL     1      20.192 -17.990  -0.821 -2.12 -0.00    +0.000 OA
DOCKED: ATOM     23  H   UNL     1      22.036 -20.417   0.157 -0.57 -0.00    +0.000 HD
DOCKED: BRANCH  21  24
DOCKED: ATOM     24  O   UNL     1      20.005 -20.526   0.181 -0.81 -0.00    +0.000 OA
DOCKED: ATOM     25  H   UNL     1      19.293 -19.951  -0.141 -0.04 -0.00    +0.000 HD
DOCKED: ENDBRANCH  21  24
DOCKED: ENDBRANCH  19  20
DOCKED: ENDBRANCH   3  18
DOCKED: TORSDOF 6
DOCKED: TER
DOCKED: ENDMDL
________________________________________________________________________________


	BEGINNING GENETIC ALGORITHM DOCKING 76 of 100
Run: 76 Seed: 2107662297 1620334636 [ Run 76 of 100 GA/GALS ]
Beginning LAMARCKIAN GENETIC ALGORITHM (LGA), with a maximum of 2500000 energy evaluations.

Final-Value: -15.655


	FINAL GENETIC ALGORITHM DOCKED STATE
	_______________________________________________


Detailed state:  trans 23.676 -17.394 -2.602 quatxyzw 0.109589 -0.761004 0.244715 -0.590744 center 0.293 0.181 0.279 ntor 6 14.9874 113.0431 -135.2591 172.7387 -70.9933 -164.4687
State:	 23.676 -17.394  -2.602   0.136 -0.943  0.303 -107.580     14.99  113.04 -135.26  172.74  -70.99 -164.47

DOCKED: MODEL       76
DOCKED: USER    Run = 76
DOCKED: USER    DPF = ligand_dock.biased.dpf
DOCKED: USER  
DOCKED: USER    Estimated Free Energy of Binding    =  -12.39 kcal/mol  [=(1)+(2)+(3)-(4)]
DOCKED: USER    Estimated Inhibition Constant, Ki   =  824.85 pM (picomolar)  [Temperature = 298.15 K]
DOCKED: USER    
DOCKED: USER    (1) Final Intermolecular Energy     =  -14.18 kcal/mol
DOCKED: USER        vdW + Hbond + desolv Energy     =  -14.18 kcal/mol
DOCKED: USER        Electrostatic Energy            =   +0.00 kcal/mol
DOCKED: USER    (2) Final Total Internal Energy     =   -1.47 kcal/mol
DOCKED: USER    (3) Torsional Free Energy           =   +1.79 kcal/mol
DOCKED: USER    (4) Unbound System's Energy  [=(2)] =   -1.47 kcal/mol
DOCKED: USER    
DOCKED: USER    
DOCKED: USER    NEWDPF move ligand.pdbqt
DOCKED: USER    NEWDPF about 0.293000 0.181000 0.279000
DOCKED: USER    NEWDPF tran0 23.675512 -17.394000 -2.602431
DOCKED: USER    NEWDPF quaternion0 0.109589 -0.761004 0.244715 -0.590744
DOCKED: USER    NEWDPF axisangle0 0.135821 -0.943168 0.303293 -107.580362
DOCKED: USER    NEWDPF quat0 0.135821 -0.943168 0.303293 -107.580362
DOCKED: USER    NEWDPF dihe0 14.99 113.04 -135.26 172.74 -70.99 -164.47 
DOCKED: USER  keepresnum = 1 
DOCKED: USER  
DOCKED: REMARK  Name = 
DOCKED: REMARK  6 active torsions:
DOCKED: REMARK  status: ('A' for Active; 'I' for Inactive)
DOCKED: REMARK    1  A    between atoms: S_2  and  N_3
DOCKED: REMARK    2  A    between atoms: S_2  and  C_10
DOCKED: REMARK    3  A    between atoms: N_3  and  C_4
DOCKED: REMARK    4  A    between atoms: C_12  and  C_13
DOCKED: REMARK    5  A    between atoms: C_14  and  C_15
DOCKED: REMARK    6  A    between atoms: N_16  and  O_17
DOCKED: REMARK                            x       y       z     vdW  Elec       q    Type
DOCKED: REMARK                         _______ _______ _______ _____ _____    ______ ____
DOCKED: USER                              x       y       z     vdW  Elec       q    Type
DOCKED: USER                           _______ _______ _______ _____ _____    ______ ____
DOCKED: ROOT
DOCKED: ATOM      1  C   UNL     1      25.741 -16.126  -2.615 -0.47 -0.00    +0.000 A 
DOCKED: ATOM      2  C   UNL     1      24.477 -16.486  -2.129 -0.25 -0.00    +0.000 A 
DOCKED: ATOM      3  C   UNL     1      24.350 -17.307  -0.995 -0.63 -0.00    +0.000 A 
DOCKED: ATOM      4  C   UNL     1      25.519 -17.735  -0.332 -0.60 -0.00    +0.000 A 
DOCKED: ATOM      5  C   UNL     1      26.779 -17.366  -0.812 -0.48 -0.00    +0.000 A 
DOCKED: ATOM      6  C   UNL     1      26.892 -16.567  -1.951 -0.36 -0.00    +0.000 A 
DOCKED: ENDROOT
DOCKED: BRANCH   1   8
DOCKED: ATOM      7  O   UNL     1      24.838 -14.040  -4.052 -1.05 -0.00    +0.000 OA
DOCKED: ATOM      8  S   UNL     1      25.878 -15.125  -4.057 -0.74 -0.00    +0.000 S 
DOCKED: ATOM      9  O   UNL     1      25.675 -15.992  -5.267 -1.08 +0.00    +0.000 OA
DOCKED: BRANCH   8  10
DOCKED: ATOM     10  N   UNL     1      27.454 -14.399  -4.133 -0.28 -0.00    +0.000 N 
DOCKED: ATOM     11  H   UNL     1      27.727 -13.809  -3.393 +0.00 -0.00    +0.000 HD
DOCKED: BRANCH  10  12
DOCKED: ATOM     12  C   UNL     1      28.383 -14.607  -5.211 -0.31 -0.00    +0.000 A 
DOCKED: ATOM     13  C   UNL     1      28.569 -13.652  -6.231 -0.27 -0.00    +0.000 A 
DOCKED: ATOM     14  C   UNL     1      29.487 -13.886  -7.259 -0.26 -0.00    +0.000 A 
DOCKED: ATOM     15  C   UNL     1      30.225 -15.071  -7.285 -0.25 -0.00    +0.000 A 
DOCKED: ATOM     16  C   UNL     1      30.044 -16.028  -6.283 -0.31 -0.00    +0.000 A 
DOCKED: ATOM     17  C   UNL     1      29.127 -15.798  -5.253 -0.30 -0.00    +0.000 A 
DOCKED: ENDBRANCH  10  12
DOCKED: ENDBRANCH   8  10
DOCKED: ENDBRANCH   1   8
DOCKED: BRANCH   3  18
DOCKED: ATOM     18  C   UNL     1      22.988 -17.661  -0.526 -0.78 -0.00    +0.000 C 
DOCKED: ATOM     19  C   UNL     1      22.296 -18.717  -0.980 -0.83 -0.00    +0.000 C 
DOCKED: BRANCH  19  20
DOCKED: ATOM     20  C   UNL     1      20.938 -19.061  -0.512 -0.87 -0.00    +0.000 C 
DOCKED: ATOM     21  N   UNL     1      20.651 -20.286   0.176 -0.65 -0.00    +0.000 N 
DOCKED: ATOM     22  O   UNL     1      20.009 -18.232  -0.704 -1.98 -0.00    +0.000 OA
DOCKED: ATOM     23  H   UNL     1      21.385 -20.894   0.423 -0.61 -0.00    +0.000 HD
DOCKED: BRANCH  21  24
DOCKED: ATOM     24  O   UNL     1      19.372 -20.609   0.485 -0.78 -0.00    +0.000 OA
DOCKED: ATOM     25  H   UNL     1      18.766 -20.047  -0.022 -0.05 -0.00    +0.000 HD
DOCKED: ENDBRANCH  21  24
DOCKED: ENDBRANCH  19  20
DOCKED: ENDBRANCH   3  18
DOCKED: TORSDOF 6
DOCKED: TER
DOCKED: ENDMDL
________________________________________________________________________________


	BEGINNING GENETIC ALGORITHM DOCKING 77 of 100
Run: 77 Seed: 768704568 196910971 [ Run 77 of 100 GA/GALS ]
Beginning LAMARCKIAN GENETIC ALGORITHM (LGA), with a maximum of 2500000 energy evaluations.

Final-Value: -15.183


	FINAL GENETIC ALGORITHM DOCKED STATE
	_______________________________________________


Detailed state:  trans 23.928 -17.229 -2.571 quatxyzw 0.139172 -0.751364 0.189069 -0.616714 center 0.293 0.181 0.279 ntor 6 -5.6408 60.8678 -116.9696 -5.0822 -84.0641 166.7336
State:	 23.928 -17.229  -2.571   0.177 -0.954  0.240 -103.847     -5.64   60.87 -116.97   -5.08  -84.06  166.73

DOCKED: MODEL       77
DOCKED: USER    Run = 77
DOCKED: USER    DPF = ligand_dock.biased.dpf
DOCKED: USER  
DOCKED: USER    Estimated Free Energy of Binding    =  -11.70 kcal/mol  [=(1)+(2)+(3)-(4)]
DOCKED: USER    Estimated Inhibition Constant, Ki   =    2.63 nM (nanomolar)  [Temperature = 298.15 K]
DOCKED: USER    
DOCKED: USER    (1) Final Intermolecular Energy     =  -13.49 kcal/mol
DOCKED: USER        vdW + Hbond + desolv Energy     =  -13.49 kcal/mol
DOCKED: USER        Electrostatic Energy            =   +0.00 kcal/mol
DOCKED: USER    (2) Final Total Internal Energy     =   -1.69 kcal/mol
DOCKED: USER    (3) Torsional Free Energy           =   +1.79 kcal/mol
DOCKED: USER    (4) Unbound System's Energy  [=(2)] =   -1.69 kcal/mol
DOCKED: USER    
DOCKED: USER    
DOCKED: USER    NEWDPF move ligand.pdbqt
DOCKED: USER    NEWDPF about 0.293000 0.181000 0.279000
DOCKED: USER    NEWDPF tran0 23.928330 -17.229020 -2.571402
DOCKED: USER    NEWDPF quaternion0 0.139172 -0.751364 0.189069 -0.616714
DOCKED: USER    NEWDPF axisangle0 0.176796 -0.954492 0.240183 -103.846921
DOCKED: USER    NEWDPF quat0 0.176796 -0.954492 0.240183 -103.846921
DOCKED: USER    NEWDPF dihe0 -5.64 60.87 -116.97 -5.08 -84.06 166.73 
DOCKED: USER  keepresnum = 1 
DOCKED: USER  
DOCKED: REMARK  Name = 
DOCKED: REMARK  6 active torsions:
DOCKED: REMARK  status: ('A' for Active; 'I' for Inactive)
DOCKED: REMARK    1  A    between atoms: S_2  and  N_3
DOCKED: REMARK    2  A    between atoms: S_2  and  C_10
DOCKED: REMARK    3  A    between atoms: N_3  and  C_4
DOCKED: REMARK    4  A    between atoms: C_12  and  C_13
DOCKED: REMARK    5  A    between atoms: C_14  and  C_15
DOCKED: REMARK    6  A    between atoms: N_16  and  O_17
DOCKED: REMARK                            x       y       z     vdW  Elec       q    Type
DOCKED: REMARK                         _______ _______ _______ _____ _____    ______ ____
DOCKED: USER                              x       y       z     vdW  Elec       q    Type
DOCKED: USER                           _______ _______ _______ _____ _____    ______ ____
DOCKED: ROOT
DOCKED: ATOM      1  C   UNL     1      26.031 -16.023  -2.610 -0.45 -0.00    +0.000 A 
DOCKED: ATOM      2  C   UNL     1      24.795 -16.401  -2.068 -0.48 -0.00    +0.000 A 
DOCKED: ATOM      3  C   UNL     1      24.726 -17.338  -1.023 -0.62 -0.00    +0.000 A 
DOCKED: ATOM      4  C   UNL     1      25.925 -17.868  -0.504 -0.58 -0.00    +0.000 A 
DOCKED: ATOM      5  C   UNL     1      27.157 -17.482  -1.039 -0.42 -0.00    +0.000 A 
DOCKED: ATOM      6  C   UNL     1      27.212 -16.566  -2.091 -0.31 -0.00    +0.000 A 
DOCKED: ENDROOT
DOCKED: BRANCH   1   8
DOCKED: ATOM      7  O   UNL     1      24.755 -14.222  -4.146 -1.09 -0.00    +0.000 OA
DOCKED: ATOM      8  S   UNL     1      26.094 -14.874  -3.943 -0.67 -0.00    +0.000 S 
DOCKED: ATOM      9  O   UNL     1      26.476 -15.608  -5.196 -1.18 +0.00    +0.000 OA
DOCKED: BRANCH   8  10
DOCKED: ATOM     10  N   UNL     1      27.277 -13.646  -3.617 -0.22 -0.00    +0.000 N 
DOCKED: ATOM     11  H   UNL     1      28.010 -13.526  -4.264 +0.00 -0.00    +0.000 HD
DOCKED: BRANCH  10  12
DOCKED: ATOM     12  C   UNL     1      27.252 -12.794  -2.457 -0.14 -0.00    +0.000 A 
DOCKED: ATOM     13  C   UNL     1      27.088 -13.309  -1.156 -0.17 -0.00    +0.000 A 
DOCKED: ATOM     14  C   UNL     1      27.077 -12.451  -0.053 -0.18 -0.00    +0.000 A 
DOCKED: ATOM     15  C   UNL     1      27.224 -11.074  -0.233 -0.13 -0.00    +0.000 A 
DOCKED: ATOM     16  C   UNL     1      27.379 -10.551  -1.519 -0.10 -0.00    +0.000 A 
DOCKED: ATOM     17  C   UNL     1      27.391 -11.406  -2.626 -0.11 -0.00    +0.000 A 
DOCKED: ENDBRANCH  10  12
DOCKED: ENDBRANCH   8  10
DOCKED: ENDBRANCH   1   8
DOCKED: BRANCH   3  18
DOCKED: ATOM     18  C   UNL     1      23.391 -17.705  -0.488 -0.76 -0.00    +0.000 C 
DOCKED: ATOM     19  C   UNL     1      22.523 -18.499  -1.133 -0.80 -0.00    +0.000 C 
DOCKED: BRANCH  19  20
DOCKED: ATOM     20  C   UNL     1      21.194 -18.855  -0.597 -0.86 -0.00    +0.000 C 
DOCKED: ATOM     21  N   UNL     1      20.947 -20.099   0.073 -0.64 -0.00    +0.000 N 
DOCKED: ATOM     22  O   UNL     1      20.257 -18.023  -0.714 -2.19 -0.00    +0.000 OA
DOCKED: ATOM     23  H   UNL     1      21.693 -20.712   0.262 -0.58 -0.00    +0.000 HD
DOCKED: BRANCH  21  24
DOCKED: ATOM     24  O   UNL     1      19.687 -20.431   0.447 -0.79 -0.00    +0.000 OA
DOCKED: ATOM     25  H   UNL     1      19.091 -19.687   0.268 -0.03 -0.00    +0.000 HD
DOCKED: ENDBRANCH  21  24
DOCKED: ENDBRANCH  19  20
DOCKED: ENDBRANCH   3  18
DOCKED: TORSDOF 6
DOCKED: TER
DOCKED: ENDMDL
________________________________________________________________________________


	BEGINNING GENETIC ALGORITHM DOCKING 78 of 100
Run: 78 Seed: 1385007356 368229438 [ Run 78 of 100 GA/GALS ]
Beginning LAMARCKIAN GENETIC ALGORITHM (LGA), with a maximum of 2500000 energy evaluations.

Final-Value: -15.192


	FINAL GENETIC ALGORITHM DOCKED STATE
	_______________________________________________


Detailed state:  trans 24.269 -17.549 -2.583 quatxyzw -0.200870 0.743787 -0.267111 0.578864 center 0.293 0.181 0.279 ntor 6 0.6882 146.7351 -60.6197 -68.6970 -147.8179 179.7286
State:	 24.269 -17.549  -2.583  -0.246  0.912 -0.328 109.259      0.69  146.74  -60.62  -68.70 -147.82  179.73

DOCKED: MODEL       78
DOCKED: USER    Run = 78
DOCKED: USER    DPF = ligand_dock.biased.dpf
DOCKED: USER  
DOCKED: USER    Estimated Free Energy of Binding    =  -11.89 kcal/mol  [=(1)+(2)+(3)-(4)]
DOCKED: USER    Estimated Inhibition Constant, Ki   =    1.92 nM (nanomolar)  [Temperature = 298.15 K]
DOCKED: USER    
DOCKED: USER    (1) Final Intermolecular Energy     =  -13.68 kcal/mol
DOCKED: USER        vdW + Hbond + desolv Energy     =  -13.68 kcal/mol
DOCKED: USER        Electrostatic Energy            =   +0.00 kcal/mol
DOCKED: USER    (2) Final Total Internal Energy     =   -1.51 kcal/mol
DOCKED: USER    (3) Torsional Free Energy           =   +1.79 kcal/mol
DOCKED: USER    (4) Unbound System's Energy  [=(2)] =   -1.51 kcal/mol
DOCKED: USER    
DOCKED: USER    
DOCKED: USER    NEWDPF move ligand.pdbqt
DOCKED: USER    NEWDPF about 0.293000 0.181000 0.279000
DOCKED: USER    NEWDPF tran0 24.269115 -17.548856 -2.583137
DOCKED: USER    NEWDPF quaternion0 -0.200870 0.743787 -0.267111 0.578864
DOCKED: USER    NEWDPF axisangle0 -0.246338 0.912147 -0.327574 109.258628
DOCKED: USER    NEWDPF quat0 -0.246338 0.912147 -0.327574 109.258628
DOCKED: USER    NEWDPF dihe0 0.69 146.74 -60.62 -68.70 -147.82 179.73 
DOCKED: USER  keepresnum = 1 
DOCKED: USER  
DOCKED: REMARK  Name = 
DOCKED: REMARK  6 active torsions:
DOCKED: REMARK  status: ('A' for Active; 'I' for Inactive)
DOCKED: REMARK    1  A    between atoms: S_2  and  N_3
DOCKED: REMARK    2  A    between atoms: S_2  and  C_10
DOCKED: REMARK    3  A    between atoms: N_3  and  C_4
DOCKED: REMARK    4  A    between atoms: C_12  and  C_13
DOCKED: REMARK    5  A    between atoms: C_14  and  C_15
DOCKED: REMARK    6  A    between atoms: N_16  and  O_17
DOCKED: REMARK                            x       y       z     vdW  Elec       q    Type
DOCKED: REMARK                         _______ _______ _______ _____ _____    ______ ____
DOCKED: USER                              x       y       z     vdW  Elec       q    Type
DOCKED: USER                           _______ _______ _______ _____ _____    ______ ____
DOCKED: ROOT
DOCKED: ATOM      1  C   UNL     1      26.082 -15.939  -2.579 -0.45 -0.00    +0.000 A 
DOCKED: ATOM      2  C   UNL     1      24.924 -16.546  -2.075 -0.51 -0.00    +0.000 A 
DOCKED: ATOM      3  C   UNL     1      24.995 -17.448  -0.999 -0.62 -0.00    +0.000 A 
DOCKED: ATOM      4  C   UNL     1      26.250 -17.705  -0.410 -0.55 -0.00    +0.000 A 
DOCKED: ATOM      5  C   UNL     1      27.403 -17.091  -0.907 -0.41 -0.00    +0.000 A 
DOCKED: ATOM      6  C   UNL     1      27.322 -16.214  -1.990 -0.32 -0.00    +0.000 A 
DOCKED: ENDROOT
DOCKED: BRANCH   1   8
DOCKED: ATOM      7  O   UNL     1      24.601 -14.237  -4.042 -1.05 -0.00    +0.000 OA
DOCKED: ATOM      8  S   UNL     1      25.975 -14.840  -3.951 -0.68 -0.00    +0.000 S 
DOCKED: ATOM      9  O   UNL     1      26.256 -15.610  -5.209 -1.21 +0.00    +0.000 OA
DOCKED: BRANCH   8  10
DOCKED: ATOM     10  N   UNL     1      27.143 -13.566  -3.787 -0.24 -0.00    +0.000 N 
DOCKED: ATOM     11  H   UNL     1      28.093 -13.816  -3.719 +0.01 -0.00    +0.000 HD
DOCKED: BRANCH  10  12
DOCKED: ATOM     12  C   UNL     1      26.806 -12.167  -3.744 -0.19 -0.00    +0.000 A 
DOCKED: ATOM     13  C   UNL     1      27.380 -11.291  -2.802 -0.11 -0.00    +0.000 A 
DOCKED: ATOM     14  C   UNL     1      27.034  -9.936  -2.796 -0.11 -0.00    +0.000 A 
DOCKED: ATOM     15  C   UNL     1      26.113  -9.443  -3.722 -0.17 -0.00    +0.000 A 
DOCKED: ATOM     16  C   UNL     1      25.531 -10.305  -4.655 -0.27 -0.00    +0.000 A 
DOCKED: ATOM     17  C   UNL     1      25.875 -11.660  -4.665 -0.30 -0.00    +0.000 A 
DOCKED: ENDBRANCH  10  12
DOCKED: ENDBRANCH   8  10
DOCKED: ENDBRANCH   1   8
DOCKED: BRANCH   3  18
DOCKED: ATOM     18  C   UNL     1      23.738 -18.065  -0.507 -0.79 -0.00    +0.000 C 
DOCKED: ATOM     19  C   UNL     1      22.565 -17.979  -1.153 -0.68 -0.00    +0.000 C 
DOCKED: BRANCH  19  20
DOCKED: ATOM     20  C   UNL     1      21.317 -18.591  -0.655 -0.85 -0.00    +0.000 C 
DOCKED: ATOM     21  N   UNL     1      21.282 -19.907  -0.087 -0.59 -0.00    +0.000 N 
DOCKED: ATOM     22  O   UNL     1      20.254 -17.917  -0.710 -2.20 -0.00    +0.000 OA
DOCKED: ATOM     23  H   UNL     1      22.121 -20.403   0.056 -0.57 -0.00    +0.000 HD
DOCKED: BRANCH  21  24
DOCKED: ATOM     24  O   UNL     1      20.097 -20.471   0.251 -0.80 -0.00    +0.000 OA
DOCKED: ATOM     25  H   UNL     1      19.376 -19.860   0.035 -0.02 -0.00    +0.000 HD
DOCKED: ENDBRANCH  21  24
DOCKED: ENDBRANCH  19  20
DOCKED: ENDBRANCH   3  18
DOCKED: TORSDOF 6
DOCKED: TER
DOCKED: ENDMDL
________________________________________________________________________________


	BEGINNING GENETIC ALGORITHM DOCKING 79 of 100
Run: 79 Seed: 675615777 604954078 [ Run 79 of 100 GA/GALS ]
Beginning LAMARCKIAN GENETIC ALGORITHM (LGA), with a maximum of 2500000 energy evaluations.

Final-Value: -15.320


	FINAL GENETIC ALGORITHM DOCKED STATE
	_______________________________________________


Detailed state:  trans 24.846 -15.303 -1.172 quatxyzw 0.336626 -0.765644 -0.380143 -0.394923 center 0.293 0.181 0.279 ntor 6 2.1926 -23.5200 147.5360 -85.4429 42.8470 138.7642
State:	 24.846 -15.303  -1.172   0.366 -0.833 -0.414 -133.478      2.19  -23.52  147.54  -85.44   42.85  138.76

DOCKED: MODEL       79
DOCKED: USER    Run = 79
DOCKED: USER    DPF = ligand_dock.biased.dpf
DOCKED: USER  
DOCKED: USER    Estimated Free Energy of Binding    =  -12.09 kcal/mol  [=(1)+(2)+(3)-(4)]
DOCKED: USER    Estimated Inhibition Constant, Ki   =    1.38 nM (nanomolar)  [Temperature = 298.15 K]
DOCKED: USER    
DOCKED: USER    (1) Final Intermolecular Energy     =  -13.88 kcal/mol
DOCKED: USER        vdW + Hbond + desolv Energy     =  -13.88 kcal/mol
DOCKED: USER        Electrostatic Energy            =   +0.00 kcal/mol
DOCKED: USER    (2) Final Total Internal Energy     =   -1.44 kcal/mol
DOCKED: USER    (3) Torsional Free Energy           =   +1.79 kcal/mol
DOCKED: USER    (4) Unbound System's Energy  [=(2)] =   -1.44 kcal/mol
DOCKED: USER    
DOCKED: USER    
DOCKED: USER    NEWDPF move ligand.pdbqt
DOCKED: USER    NEWDPF about 0.293000 0.181000 0.279000
DOCKED: USER    NEWDPF tran0 24.846014 -15.303265 -1.172244
DOCKED: USER    NEWDPF quaternion0 0.336626 -0.765644 -0.380143 -0.394923
DOCKED: USER    NEWDPF axisangle0 0.366410 -0.833386 -0.413777 -133.477655
DOCKED: USER    NEWDPF quat0 0.366410 -0.833386 -0.413777 -133.477655
DOCKED: USER    NEWDPF dihe0 2.19 -23.52 147.54 -85.44 42.85 138.76 
DOCKED: USER  keepresnum = 1 
DOCKED: USER  
DOCKED: REMARK  Name = 
DOCKED: REMARK  6 active torsions:
DOCKED: REMARK  status: ('A' for Active; 'I' for Inactive)
DOCKED: REMARK    1  A    between atoms: S_2  and  N_3
DOCKED: REMARK    2  A    between atoms: S_2  and  C_10
DOCKED: REMARK    3  A    between atoms: N_3  and  C_4
DOCKED: REMARK    4  A    between atoms: C_12  and  C_13
DOCKED: REMARK    5  A    between atoms: C_14  and  C_15
DOCKED: REMARK    6  A    between atoms: N_16  and  O_17
DOCKED: REMARK                            x       y       z     vdW  Elec       q    Type
DOCKED: REMARK                         _______ _______ _______ _____ _____    ______ ____
DOCKED: USER                              x       y       z     vdW  Elec       q    Type
DOCKED: USER                           _______ _______ _______ _____ _____    ______ ____
DOCKED: ROOT
DOCKED: ATOM      1  C   UNL     1      27.063 -15.633  -0.248 -0.32 -0.00    +0.000 A 
DOCKED: ATOM      2  C   UNL     1      25.676 -15.822  -0.315 -0.02 -0.00    +0.000 A 
DOCKED: ATOM      3  C   UNL     1      25.136 -16.997  -0.867 -0.56 -0.00    +0.000 A 
DOCKED: ATOM      4  C   UNL     1      26.016 -18.001  -1.320 -0.21 -0.00    +0.000 A 
DOCKED: ATOM      5  C   UNL     1      27.399 -17.816  -1.242 -0.03 -0.00    +0.000 A 
DOCKED: ATOM      6  C   UNL     1      27.923 -16.636  -0.712 -0.33 -0.00    +0.000 A 
DOCKED: ENDROOT
DOCKED: BRANCH   1   8
DOCKED: ATOM      7  O   UNL     1      26.657 -13.074   0.472 -0.32 -0.00    +0.000 OA
DOCKED: ATOM      8  S   UNL     1      27.717 -14.139   0.415 -0.31 -0.00    +0.000 S 
DOCKED: ATOM      9  O   UNL     1      28.837 -13.669  -0.469 -0.10 -0.00    +0.000 OA
DOCKED: BRANCH   8  10
DOCKED: ATOM     10  N   UNL     1      28.330 -14.414   2.016 -0.27 -0.00    +0.000 N 
DOCKED: ATOM     11  H   UNL     1      28.840 -15.240   2.180 -1.77 -0.00    +0.000 HD
DOCKED: BRANCH  10  12
DOCKED: ATOM     12  C   UNL     1      28.136 -13.508   3.117 -0.30 -0.00    +0.000 A 
DOCKED: ATOM     13  C   UNL     1      28.114 -12.110   2.938 -0.21 -0.00    +0.000 A 
DOCKED: ATOM     14  C   UNL     1      27.914 -11.262   4.031 -0.28 +0.00    +0.000 A 
DOCKED: ATOM     15  C   UNL     1      27.740 -11.794   5.311 -0.35 +0.00    +0.000 A 
DOCKED: ATOM     16  C   UNL     1      27.768 -13.177   5.501 -0.39 -0.00    +0.000 A 
DOCKED: ATOM     17  C   UNL     1      27.967 -14.030   4.411 -0.50 -0.00    +0.000 A 
DOCKED: ENDBRANCH  10  12
DOCKED: ENDBRANCH   8  10
DOCKED: ENDBRANCH   1   8
DOCKED: BRANCH   3  18
DOCKED: ATOM     18  C   UNL     1      23.660 -17.143  -0.917 -0.70 -0.00    +0.000 C 
DOCKED: ATOM     19  C   UNL     1      23.033 -18.325  -1.020 -0.82 -0.00    +0.000 C 
DOCKED: BRANCH  19  20
DOCKED: ATOM     20  C   UNL     1      21.564 -18.463  -1.075 -0.76 -0.00    +0.000 C 
DOCKED: ATOM     21  N   UNL     1      20.923 -19.681  -1.477 -0.77 -0.00    +0.000 N 
DOCKED: ATOM     22  O   UNL     1      20.855 -17.481  -0.731 -2.07 -0.00    +0.000 OA
DOCKED: ATOM     23  H   UNL     1      21.463 -20.487  -1.649 -0.34 -0.00    +0.000 HD
DOCKED: BRANCH  21  24
DOCKED: ATOM     24  O   UNL     1      19.577 -19.726  -1.622 -1.64 -0.00    +0.000 OA
DOCKED: ATOM     25  H   UNL     1      19.204 -18.847  -1.451 -0.50 -0.00    +0.000 HD
DOCKED: ENDBRANCH  21  24
DOCKED: ENDBRANCH  19  20
DOCKED: ENDBRANCH   3  18
DOCKED: TORSDOF 6
DOCKED: TER
DOCKED: ENDMDL
________________________________________________________________________________


	BEGINNING GENETIC ALGORITHM DOCKING 80 of 100
Run: 80 Seed: 194962918 238522932 [ Run 80 of 100 GA/GALS ]
Beginning LAMARCKIAN GENETIC ALGORITHM (LGA), with a maximum of 2500000 energy evaluations.

Final-Value: -15.891


	FINAL GENETIC ALGORITHM DOCKED STATE
	_______________________________________________


Detailed state:  trans 25.017 -15.488 -1.325 quatxyzw -0.336711 0.809762 0.327088 0.352029 center 0.293 0.181 0.279 ntor 6 -11.0881 158.5513 118.0883 -86.3871 63.2707 148.0962
State:	 25.017 -15.488  -1.325  -0.360  0.865  0.349 138.777    -11.09  158.55  118.09  -86.39   63.27  148.10

DOCKED: MODEL       80
DOCKED: USER    Run = 80
DOCKED: USER    DPF = ligand_dock.biased.dpf
DOCKED: USER  
DOCKED: USER    Estimated Free Energy of Binding    =  -12.68 kcal/mol  [=(1)+(2)+(3)-(4)]
DOCKED: USER    Estimated Inhibition Constant, Ki   =  510.79 pM (picomolar)  [Temperature = 298.15 K]
DOCKED: USER    
DOCKED: USER    (1) Final Intermolecular Energy     =  -14.47 kcal/mol
DOCKED: USER        vdW + Hbond + desolv Energy     =  -14.47 kcal/mol
DOCKED: USER        Electrostatic Energy            =   +0.00 kcal/mol
DOCKED: USER    (2) Final Total Internal Energy     =   -1.42 kcal/mol
DOCKED: USER    (3) Torsional Free Energy           =   +1.79 kcal/mol
DOCKED: USER    (4) Unbound System's Energy  [=(2)] =   -1.42 kcal/mol
DOCKED: USER    
DOCKED: USER    
DOCKED: USER    NEWDPF move ligand.pdbqt
DOCKED: USER    NEWDPF about 0.293000 0.181000 0.279000
DOCKED: USER    NEWDPF tran0 25.016623 -15.488276 -1.325207
DOCKED: USER    NEWDPF quaternion0 -0.336711 0.809762 0.327088 0.352029
DOCKED: USER    NEWDPF axisangle0 -0.359738 0.865141 0.349457 138.777118
DOCKED: USER    NEWDPF quat0 -0.359738 0.865141 0.349457 138.777118
DOCKED: USER    NEWDPF dihe0 -11.09 158.55 118.09 -86.39 63.27 148.10 
DOCKED: USER  keepresnum = 1 
DOCKED: USER  
DOCKED: REMARK  Name = 
DOCKED: REMARK  6 active torsions:
DOCKED: REMARK  status: ('A' for Active; 'I' for Inactive)
DOCKED: REMARK    1  A    between atoms: S_2  and  N_3
DOCKED: REMARK    2  A    between atoms: S_2  and  C_10
DOCKED: REMARK    3  A    between atoms: N_3  and  C_4
DOCKED: REMARK    4  A    between atoms: C_12  and  C_13
DOCKED: REMARK    5  A    between atoms: C_14  and  C_15
DOCKED: REMARK    6  A    between atoms: N_16  and  O_17
DOCKED: REMARK                            x       y       z     vdW  Elec       q    Type
DOCKED: REMARK                         _______ _______ _______ _____ _____    ______ ____
DOCKED: USER                              x       y       z     vdW  Elec       q    Type
DOCKED: USER                           _______ _______ _______ _____ _____    ______ ____
DOCKED: ROOT
DOCKED: ATOM      1  C   UNL     1      27.079 -15.769  -0.082 -0.32 -0.00    +0.000 A 
DOCKED: ATOM      2  C   UNL     1      25.709 -15.942  -0.322 -0.09 -0.00    +0.000 A 
DOCKED: ATOM      3  C   UNL     1      25.219 -17.153  -0.842 -0.57 -0.00    +0.000 A 
DOCKED: ATOM      4  C   UNL     1      26.125 -18.205  -1.084 -0.33 -0.00    +0.000 A 
DOCKED: ATOM      5  C   UNL     1      27.490 -18.034  -0.834 -0.14 -0.00    +0.000 A 
DOCKED: ATOM      6  C   UNL     1      27.967 -16.820  -0.338 -0.31 -0.00    +0.000 A 
DOCKED: ENDROOT
DOCKED: BRANCH   1   8
DOCKED: ATOM      7  O   UNL     1      26.576 -13.208   0.568 -0.34 -0.00    +0.000 OA
DOCKED: ATOM      8  S   UNL     1      27.676 -14.232   0.536 -0.33 -0.00    +0.000 S 
DOCKED: ATOM      9  O   UNL     1      28.774 -13.743  -0.366 -0.11 -0.00    +0.000 OA
DOCKED: BRANCH   8  10
DOCKED: ATOM     10  N   UNL     1      28.305 -14.438   2.142 -0.28 -0.00    +0.000 N 
DOCKED: ATOM     11  H   UNL     1      28.836 -15.245   2.330 -1.87 -0.00    +0.000 HD
DOCKED: BRANCH  10  12
DOCKED: ATOM     12  C   UNL     1      28.095 -13.499   3.213 -0.31 -0.00    +0.000 A 
DOCKED: ATOM     13  C   UNL     1      27.977 -13.914   4.554 -0.50 -0.00    +0.000 A 
DOCKED: ATOM     14  C   UNL     1      27.782 -12.972   5.569 -0.41 -0.00    +0.000 A 
DOCKED: ATOM     15  C   UNL     1      27.699 -11.613   5.259 -0.32 +0.00    +0.000 A 
DOCKED: ATOM     16  C   UNL     1      27.806 -11.192   3.932 -0.28 +0.00    +0.000 A 
DOCKED: ATOM     17  C   UNL     1      28.002 -12.130   2.913 -0.22 -0.00    +0.000 A 
DOCKED: ENDBRANCH  10  12
DOCKED: ENDBRANCH   8  10
DOCKED: ENDBRANCH   1   8
DOCKED: BRANCH   3  18
DOCKED: ATOM     18  C   UNL     1      23.760 -17.282  -1.081 -0.72 -0.00    +0.000 C 
DOCKED: ATOM     19  C   UNL     1      23.052 -18.383  -0.786 -0.83 -0.00    +0.000 C 
DOCKED: BRANCH  19  20
DOCKED: ATOM     20  C   UNL     1      21.601 -18.507  -1.032 -0.79 -0.00    +0.000 C 
DOCKED: ATOM     21  N   UNL     1      21.017 -19.689  -1.594 -0.72 -0.00    +0.000 N 
DOCKED: ATOM     22  O   UNL     1      20.854 -17.546  -0.710 -2.11 -0.00    +0.000 OA
DOCKED: ATOM     23  H   UNL     1      21.575 -20.485  -1.754 -0.38 -0.00    +0.000 HD
DOCKED: BRANCH  21  24
DOCKED: ATOM     24  O   UNL     1      19.699 -19.714  -1.907 -1.74 -0.00    +0.000 OA
DOCKED: ATOM     25  H   UNL     1      19.264 -18.933  -1.534 -0.46 -0.00    +0.000 HD
DOCKED: ENDBRANCH  21  24
DOCKED: ENDBRANCH  19  20
DOCKED: ENDBRANCH   3  18
DOCKED: TORSDOF 6
DOCKED: TER
DOCKED: ENDMDL
________________________________________________________________________________


	BEGINNING GENETIC ALGORITHM DOCKING 81 of 100
Run: 81 Seed: 958473470 209098594 [ Run 81 of 100 GA/GALS ]
Beginning LAMARCKIAN GENETIC ALGORITHM (LGA), with a maximum of 2500000 energy evaluations.

Final-Value: -14.224


	FINAL GENETIC ALGORITHM DOCKED STATE
	_______________________________________________


Detailed state:  trans 25.605 -15.943 0.222 quatxyzw -0.355796 0.196083 0.828829 0.384711 center 0.293 0.181 0.279 ntor 6 -143.4507 45.0047 -89.8797 -0.6140 30.8112 -13.5653
State:	 25.605 -15.943   0.222  -0.385  0.212  0.898 134.748   -143.45   45.00  -89.88   -0.61   30.81  -13.57

DOCKED: MODEL       81
DOCKED: USER    Run = 81
DOCKED: USER    DPF = ligand_dock.biased.dpf
DOCKED: USER  
DOCKED: USER    Estimated Free Energy of Binding    =  -11.26 kcal/mol  [=(1)+(2)+(3)-(4)]
DOCKED: USER    Estimated Inhibition Constant, Ki   =    5.62 nM (nanomolar)  [Temperature = 298.15 K]
DOCKED: USER    
DOCKED: USER    (1) Final Intermolecular Energy     =  -13.05 kcal/mol
DOCKED: USER        vdW + Hbond + desolv Energy     =  -13.05 kcal/mol
DOCKED: USER        Electrostatic Energy            =   +0.00 kcal/mol
DOCKED: USER    (2) Final Total Internal Energy     =   -1.18 kcal/mol
DOCKED: USER    (3) Torsional Free Energy           =   +1.79 kcal/mol
DOCKED: USER    (4) Unbound System's Energy  [=(2)] =   -1.18 kcal/mol
DOCKED: USER    
DOCKED: USER    
DOCKED: USER    NEWDPF move ligand.pdbqt
DOCKED: USER    NEWDPF about 0.293000 0.181000 0.279000
DOCKED: USER    NEWDPF tran0 25.605194 -15.942508 0.221646
DOCKED: USER    NEWDPF quaternion0 -0.355796 0.196083 0.828829 0.384711
DOCKED: USER    NEWDPF axisangle0 -0.385462 0.212432 0.897937 134.748367
DOCKED: USER    NEWDPF quat0 -0.385462 0.212432 0.897937 134.748367
DOCKED: USER    NEWDPF dihe0 -143.45 45.00 -89.88 -0.61 30.81 -13.57 
DOCKED: USER  keepresnum = 1 
DOCKED: USER  
DOCKED: REMARK  Name = 
DOCKED: REMARK  6 active torsions:
DOCKED: REMARK  status: ('A' for Active; 'I' for Inactive)
DOCKED: REMARK    1  A    between atoms: S_2  and  N_3
DOCKED: REMARK    2  A    between atoms: S_2  and  C_10
DOCKED: REMARK    3  A    between atoms: N_3  and  C_4
DOCKED: REMARK    4  A    between atoms: C_12  and  C_13
DOCKED: REMARK    5  A    between atoms: C_14  and  C_15
DOCKED: REMARK    6  A    between atoms: N_16  and  O_17
DOCKED: REMARK                            x       y       z     vdW  Elec       q    Type
DOCKED: REMARK                         _______ _______ _______ _____ _____    ______ ____
DOCKED: USER                              x       y       z     vdW  Elec       q    Type
DOCKED: USER                           _______ _______ _______ _____ _____    ______ ____
DOCKED: ROOT
DOCKED: ATOM      1  C   UNL     1      27.636 -15.822  -1.096 -0.29 -0.00    +0.000 A 
DOCKED: ATOM      2  C   UNL     1      26.504 -16.455  -0.567 -0.42 -0.00    +0.000 A 
DOCKED: ATOM      3  C   UNL     1      25.356 -16.650  -1.354 -0.53 -0.00    +0.000 A 
DOCKED: ATOM      4  C   UNL     1      25.375 -16.229  -2.699 -0.46 -0.00    +0.000 A 
DOCKED: ATOM      5  C   UNL     1      26.509 -15.608  -3.229 -0.42 -0.00    +0.000 A 
DOCKED: ATOM      6  C   UNL     1      27.635 -15.401  -2.431 -0.25 -0.00    +0.000 A 
DOCKED: ENDROOT
DOCKED: BRANCH   1   8
DOCKED: ATOM      7  O   UNL     1      30.024 -14.631  -0.759 -0.09 -0.00    +0.000 OA
DOCKED: ATOM      8  S   UNL     1      29.051 -15.555  -0.082 -0.26 -0.00    +0.000 S 
DOCKED: ATOM      9  O   UNL     1      29.722 -16.876   0.166 -0.11 -0.00    +0.000 OA
DOCKED: BRANCH   8  10
DOCKED: ATOM     10  N   UNL     1      28.575 -14.862   1.437 -0.18 -0.00    +0.000 N 
DOCKED: ATOM     11  H   UNL     1      28.871 -15.309   2.263 -1.84 -0.00    +0.000 HD
DOCKED: BRANCH  10  12
DOCKED: ATOM     12  C   UNL     1      27.772 -13.674   1.561 -0.24 -0.00    +0.000 A 
DOCKED: ATOM     13  C   UNL     1      26.767 -13.352   0.627 -0.27 -0.00    +0.000 A 
DOCKED: ATOM     14  C   UNL     1      26.001 -12.193   0.785 -0.27 +0.00    +0.000 A 
DOCKED: ATOM     15  C   UNL     1      26.230 -11.343   1.869 -0.34 +0.00    +0.000 A 
DOCKED: ATOM     16  C   UNL     1      27.229 -11.648   2.796 -0.26 +0.00    +0.000 A 
DOCKED: ATOM     17  C   UNL     1      27.997 -12.806   2.642 -0.24 -0.00    +0.000 A 
DOCKED: ENDBRANCH  10  12
DOCKED: ENDBRANCH   8  10
DOCKED: ENDBRANCH   1   8
DOCKED: BRANCH   3  18
DOCKED: ATOM     18  C   UNL     1      24.183 -17.323  -0.742 -0.71 -0.00    +0.000 C 
DOCKED: ATOM     19  C   UNL     1      23.109 -17.724  -1.438 -0.58 -0.00    +0.000 C 
DOCKED: BRANCH  19  20
DOCKED: ATOM     20  C   UNL     1      21.942 -18.388  -0.822 -0.83 -0.00    +0.000 C 
DOCKED: ATOM     21  N   UNL     1      21.999 -19.733  -0.329 -0.61 -0.00    +0.000 N 
DOCKED: ATOM     22  O   UNL     1      20.872 -17.736  -0.706 -2.18 -0.00    +0.000 OA
DOCKED: ATOM     23  H   UNL     1      22.856 -20.218  -0.319 -0.37 -0.00    +0.000 HD
DOCKED: BRANCH  21  24
DOCKED: ATOM     24  O   UNL     1      20.875 -20.340   0.124 -0.71 -0.00    +0.000 OA
DOCKED: ATOM     25  H   UNL     1      21.094 -20.902   0.882 -0.60 -0.00    +0.000 HD
DOCKED: ENDBRANCH  21  24
DOCKED: ENDBRANCH  19  20
DOCKED: ENDBRANCH   3  18
DOCKED: TORSDOF 6
DOCKED: TER
DOCKED: ENDMDL
________________________________________________________________________________


	BEGINNING GENETIC ALGORITHM DOCKING 82 of 100
Run: 82 Seed: 1741366356 994446090 [ Run 82 of 100 GA/GALS ]
Beginning LAMARCKIAN GENETIC ALGORITHM (LGA), with a maximum of 2500000 energy evaluations.

Final-Value: -14.920


	FINAL GENETIC ALGORITHM DOCKED STATE
	_______________________________________________


Detailed state:  trans 24.553 -16.934 -2.986 quatxyzw -0.095777 0.812271 -0.208305 0.536332 center 0.293 0.181 0.279 ntor 6 28.9600 -12.9954 131.2923 -118.7510 -49.2845 84.4731
State:	 24.553 -16.934  -2.986  -0.113  0.962 -0.247 115.131     28.96  -13.00  131.29 -118.75  -49.28   84.47

DOCKED: MODEL       82
DOCKED: USER    Run = 82
DOCKED: USER    DPF = ligand_dock.biased.dpf
DOCKED: USER  
DOCKED: USER    Estimated Free Energy of Binding    =  -11.83 kcal/mol  [=(1)+(2)+(3)-(4)]
DOCKED: USER    Estimated Inhibition Constant, Ki   =    2.12 nM (nanomolar)  [Temperature = 298.15 K]
DOCKED: USER    
DOCKED: USER    (1) Final Intermolecular Energy     =  -13.62 kcal/mol
DOCKED: USER        vdW + Hbond + desolv Energy     =  -13.62 kcal/mol
DOCKED: USER        Electrostatic Energy            =   +0.00 kcal/mol
DOCKED: USER    (2) Final Total Internal Energy     =   -1.30 kcal/mol
DOCKED: USER    (3) Torsional Free Energy           =   +1.79 kcal/mol
DOCKED: USER    (4) Unbound System's Energy  [=(2)] =   -1.30 kcal/mol
DOCKED: USER    
DOCKED: USER    
DOCKED: USER    NEWDPF move ligand.pdbqt
DOCKED: USER    NEWDPF about 0.293000 0.181000 0.279000
DOCKED: USER    NEWDPF tran0 24.553181 -16.934431 -2.985769
DOCKED: USER    NEWDPF quaternion0 -0.095777 0.812271 -0.208305 0.536332
DOCKED: USER    NEWDPF axisangle0 -0.113479 0.962398 -0.246804 115.131413
DOCKED: USER    NEWDPF quat0 -0.113479 0.962398 -0.246804 115.131413
DOCKED: USER    NEWDPF dihe0 28.96 -13.00 131.29 -118.75 -49.28 84.47 
DOCKED: USER  keepresnum = 1 
DOCKED: USER  
DOCKED: REMARK  Name = 
DOCKED: REMARK  6 active torsions:
DOCKED: REMARK  status: ('A' for Active; 'I' for Inactive)
DOCKED: REMARK    1  A    between atoms: S_2  and  N_3
DOCKED: REMARK    2  A    between atoms: S_2  and  C_10
DOCKED: REMARK    3  A    between atoms: N_3  and  C_4
DOCKED: REMARK    4  A    between atoms: C_12  and  C_13
DOCKED: REMARK    5  A    between atoms: C_14  and  C_15
DOCKED: REMARK    6  A    between atoms: N_16  and  O_17
DOCKED: REMARK                            x       y       z     vdW  Elec       q    Type
DOCKED: REMARK                         _______ _______ _______ _____ _____    ______ ____
DOCKED: USER                              x       y       z     vdW  Elec       q    Type
DOCKED: USER                           _______ _______ _______ _____ _____    ______ ____
DOCKED: ROOT
DOCKED: ATOM      1  C   UNL     1      26.652 -15.782  -2.609 -0.37 -0.00    +0.000 A 
DOCKED: ATOM      2  C   UNL     1      25.317 -16.107  -2.335 -0.49 -0.00    +0.000 A 
DOCKED: ATOM      3  C   UNL     1      24.994 -17.001  -1.298 -0.58 -0.00    +0.000 A 
DOCKED: ATOM      4  C   UNL     1      26.035 -17.538  -0.514 -0.56 -0.00    +0.000 A 
DOCKED: ATOM      5  C   UNL     1      27.365 -17.203  -0.782 -0.42 -0.00    +0.000 A 
DOCKED: ATOM      6  C   UNL     1      27.675 -16.332  -1.827 -0.31 -0.00    +0.000 A 
DOCKED: ENDROOT
DOCKED: BRANCH   1   8
DOCKED: ATOM      7  O   UNL     1      26.782 -15.349  -5.259 -1.08 +0.00    +0.000 OA
DOCKED: ATOM      8  S   UNL     1      27.037 -14.688  -3.934 -0.49 -0.00    +0.000 S 
DOCKED: ATOM      9  O   UNL     1      28.490 -14.315  -3.845 -0.18 -0.00    +0.000 OA
DOCKED: BRANCH   8  10
DOCKED: ATOM     10  N   UNL     1      26.070 -13.250  -3.822 -0.34 -0.00    +0.000 N 
DOCKED: ATOM     11  H   UNL     1      25.528 -13.120  -3.010 -0.01 -0.00    +0.000 HD
DOCKED: BRANCH  10  12
DOCKED: ATOM     12  C   UNL     1      26.013 -12.239  -4.844 -0.27 -0.00    +0.000 A 
DOCKED: ATOM     13  C   UNL     1      27.065 -12.046  -5.761 -0.17 -0.00    +0.000 A 
DOCKED: ATOM     14  C   UNL     1      26.970 -11.058  -6.746 -0.16 -0.00    +0.000 A 
DOCKED: ATOM     15  C   UNL     1      25.832 -10.252  -6.825 -0.21 -0.00    +0.000 A 
DOCKED: ATOM     16  C   UNL     1      24.787 -10.429  -5.915 -0.37 -0.00    +0.000 A 
DOCKED: ATOM     17  C   UNL     1      24.877 -11.416  -4.929 -0.36 -0.00    +0.000 A 
DOCKED: ENDBRANCH  10  12
DOCKED: ENDBRANCH   8  10
DOCKED: ENDBRANCH   1   8
DOCKED: BRANCH   3  18
DOCKED: ATOM     18  C   UNL     1      23.564 -17.314  -1.053 -0.72 -0.00    +0.000 C 
DOCKED: ATOM     19  C   UNL     1      23.004 -18.501  -1.331 -0.77 -0.00    +0.000 C 
DOCKED: BRANCH  19  20
DOCKED: ATOM     20  C   UNL     1      21.579 -18.804  -1.089 -0.82 -0.00    +0.000 C 
DOCKED: ATOM     21  N   UNL     1      20.845 -19.732  -1.899 -0.69 -0.00    +0.000 N 
DOCKED: ATOM     22  O   UNL     1      21.002 -18.244  -0.121 -1.66 -0.00    +0.000 OA
DOCKED: ATOM     23  H   UNL     1      21.310 -20.254  -2.593 -0.56 -0.00    +0.000 HD
DOCKED: BRANCH  21  24
DOCKED: ATOM     24  O   UNL     1      19.513 -19.893  -1.712 -1.53 -0.00    +0.000 OA
DOCKED: ATOM     25  H   UNL     1      19.132 -19.067  -1.376 -0.51 -0.00    +0.000 HD
DOCKED: ENDBRANCH  21  24
DOCKED: ENDBRANCH  19  20
DOCKED: ENDBRANCH   3  18
DOCKED: TORSDOF 6
DOCKED: TER
DOCKED: ENDMDL
________________________________________________________________________________


	BEGINNING GENETIC ALGORITHM DOCKING 83 of 100
Run: 83 Seed: 869504491 426708902 [ Run 83 of 100 GA/GALS ]
Beginning LAMARCKIAN GENETIC ALGORITHM (LGA), with a maximum of 2500000 energy evaluations.

Final-Value: -15.877


	FINAL GENETIC ALGORITHM DOCKED STATE
	_______________________________________________


Detailed state:  trans 23.982 -17.572 -2.509 quatxyzw -0.152078 0.738951 -0.266718 0.599737 center 0.293 0.181 0.279 ntor 6 3.8463 124.4640 -94.3761 159.8238 -114.2908 -163.0907
State:	 23.982 -17.572  -2.509  -0.190  0.923 -0.333 106.298      3.85  124.46  -94.38  159.82 -114.29 -163.09

DOCKED: MODEL       83
DOCKED: USER    Run = 83
DOCKED: USER    DPF = ligand_dock.biased.dpf
DOCKED: USER  
DOCKED: USER    Estimated Free Energy of Binding    =  -12.51 kcal/mol  [=(1)+(2)+(3)-(4)]
DOCKED: USER    Estimated Inhibition Constant, Ki   =  674.42 pM (picomolar)  [Temperature = 298.15 K]
DOCKED: USER    
DOCKED: USER    (1) Final Intermolecular Energy     =  -14.30 kcal/mol
DOCKED: USER        vdW + Hbond + desolv Energy     =  -14.30 kcal/mol
DOCKED: USER        Electrostatic Energy            =   +0.00 kcal/mol
DOCKED: USER    (2) Final Total Internal Energy     =   -1.58 kcal/mol
DOCKED: USER    (3) Torsional Free Energy           =   +1.79 kcal/mol
DOCKED: USER    (4) Unbound System's Energy  [=(2)] =   -1.58 kcal/mol
DOCKED: USER    
DOCKED: USER    
DOCKED: USER    NEWDPF move ligand.pdbqt
DOCKED: USER    NEWDPF about 0.293000 0.181000 0.279000
DOCKED: USER    NEWDPF tran0 23.981643 -17.572395 -2.509133
DOCKED: USER    NEWDPF quaternion0 -0.152078 0.738951 -0.266718 0.599737
DOCKED: USER    NEWDPF axisangle0 -0.190051 0.923462 -0.333315 106.297892
DOCKED: USER    NEWDPF quat0 -0.190051 0.923462 -0.333315 106.297892
DOCKED: USER    NEWDPF dihe0 3.85 124.46 -94.38 159.82 -114.29 -163.09 
DOCKED: USER  keepresnum = 1 
DOCKED: USER  
DOCKED: REMARK  Name = 
DOCKED: REMARK  6 active torsions:
DOCKED: REMARK  status: ('A' for Active; 'I' for Inactive)
DOCKED: REMARK    1  A    between atoms: S_2  and  N_3
DOCKED: REMARK    2  A    between atoms: S_2  and  C_10
DOCKED: REMARK    3  A    between atoms: N_3  and  C_4
DOCKED: REMARK    4  A    between atoms: C_12  and  C_13
DOCKED: REMARK    5  A    between atoms: C_14  and  C_15
DOCKED: REMARK    6  A    between atoms: N_16  and  O_17
DOCKED: REMARK                            x       y       z     vdW  Elec       q    Type
DOCKED: REMARK                         _______ _______ _______ _____ _____    ______ ____
DOCKED: USER                              x       y       z     vdW  Elec       q    Type
DOCKED: USER                           _______ _______ _______ _____ _____    ______ ____
DOCKED: ROOT
DOCKED: ATOM      1  C   UNL     1      25.920 -16.121  -2.628 -0.46 -0.00    +0.000 A 
DOCKED: ATOM      2  C   UNL     1      24.723 -16.596  -2.075 -0.47 -0.00    +0.000 A 
DOCKED: ATOM      3  C   UNL     1      24.735 -17.427  -0.942 -0.63 -0.00    +0.000 A 
DOCKED: ATOM      4  C   UNL     1      25.972 -17.747  -0.347 -0.58 -0.00    +0.000 A 
DOCKED: ATOM      5  C   UNL     1      27.164 -17.264  -0.893 -0.43 -0.00    +0.000 A 
DOCKED: ATOM      6  C   UNL     1      27.141 -16.457  -2.031 -0.33 -0.00    +0.000 A 
DOCKED: ENDROOT
DOCKED: BRANCH   1   8
DOCKED: ATOM      7  O   UNL     1      24.773 -14.102  -3.984 -1.08 -0.00    +0.000 OA
DOCKED: ATOM      8  S   UNL     1      25.884 -15.110  -4.069 -0.74 -0.00    +0.000 S 
DOCKED: ATOM      9  O   UNL     1      25.660 -15.987  -5.268 -1.08 +0.00    +0.000 OA
DOCKED: BRANCH   8  10
DOCKED: ATOM     10  N   UNL     1      27.395 -14.273  -4.248 -0.29 -0.00    +0.000 N 
DOCKED: ATOM     11  H   UNL     1      27.588 -13.529  -3.632 +0.00 -0.00    +0.000 HD
DOCKED: BRANCH  10  12
DOCKED: ATOM     12  C   UNL     1      28.382 -14.601  -5.243 -0.31 -0.00    +0.000 A 
DOCKED: ATOM     13  C   UNL     1      28.691 -13.725  -6.303 -0.27 -0.00    +0.000 A 
DOCKED: ATOM     14  C   UNL     1      29.662 -14.075  -7.247 -0.26 -0.00    +0.000 A 
DOCKED: ATOM     15  C   UNL     1      30.330 -15.297  -7.148 -0.27 -0.00    +0.000 A 
DOCKED: ATOM     16  C   UNL     1      30.025 -16.176  -6.105 -0.31 -0.00    +0.000 A 
DOCKED: ATOM     17  C   UNL     1      29.055 -15.831  -5.159 -0.30 -0.00    +0.000 A 
DOCKED: ENDBRANCH  10  12
DOCKED: ENDBRANCH   8  10
DOCKED: ENDBRANCH   1   8
DOCKED: BRANCH   3  18
DOCKED: ATOM     18  C   UNL     1      23.438 -17.904  -0.399 -0.78 -0.00    +0.000 C 
DOCKED: ATOM     19  C   UNL     1      22.440 -18.373  -1.163 -0.75 -0.00    +0.000 C 
DOCKED: BRANCH  19  20
DOCKED: ATOM     20  C   UNL     1      21.150 -18.841  -0.617 -0.86 -0.00    +0.000 C 
DOCKED: ATOM     21  N   UNL     1      21.009 -20.111   0.034 -0.64 -0.00    +0.000 N 
DOCKED: ATOM     22  O   UNL     1      20.149 -18.083  -0.708 -2.09 -0.00    +0.000 OA
DOCKED: ATOM     23  H   UNL     1      21.804 -20.667   0.203 -0.58 -0.00    +0.000 HD
DOCKED: BRANCH  21  24
DOCKED: ATOM     24  O   UNL     1      19.785 -20.547   0.417 -0.78 -0.00    +0.000 OA
DOCKED: ATOM     25  H   UNL     1      19.111 -19.914   0.124 -0.03 -0.00    +0.000 HD
DOCKED: ENDBRANCH  21  24
DOCKED: ENDBRANCH  19  20
DOCKED: ENDBRANCH   3  18
DOCKED: TORSDOF 6
DOCKED: TER
DOCKED: ENDMDL
________________________________________________________________________________


	BEGINNING GENETIC ALGORITHM DOCKING 84 of 100
Run: 84 Seed: 1494636482 1684267257 [ Run 84 of 100 GA/GALS ]
Beginning LAMARCKIAN GENETIC ALGORITHM (LGA), with a maximum of 2500000 energy evaluations.

Final-Value: -14.839


	FINAL GENETIC ALGORITHM DOCKED STATE
	_______________________________________________


Detailed state:  trans 24.058 -17.861 -3.062 quatxyzw -0.223106 0.847856 -0.252970 0.409108 center 0.293 0.181 0.279 ntor 6 5.9443 -27.1514 133.7720 -87.8915 76.6859 -57.9277
State:	 24.058 -17.861  -3.062  -0.245  0.929 -0.277 131.702      5.94  -27.15  133.77  -87.89   76.69  -57.93

DOCKED: MODEL       84
DOCKED: USER    Run = 84
DOCKED: USER    DPF = ligand_dock.biased.dpf
DOCKED: USER  
DOCKED: USER    Estimated Free Energy of Binding    =  -11.61 kcal/mol  [=(1)+(2)+(3)-(4)]
DOCKED: USER    Estimated Inhibition Constant, Ki   =    3.09 nM (nanomolar)  [Temperature = 298.15 K]
DOCKED: USER    
DOCKED: USER    (1) Final Intermolecular Energy     =  -13.40 kcal/mol
DOCKED: USER        vdW + Hbond + desolv Energy     =  -13.40 kcal/mol
DOCKED: USER        Electrostatic Energy            =   +0.00 kcal/mol
DOCKED: USER    (2) Final Total Internal Energy     =   -1.44 kcal/mol
DOCKED: USER    (3) Torsional Free Energy           =   +1.79 kcal/mol
DOCKED: USER    (4) Unbound System's Energy  [=(2)] =   -1.44 kcal/mol
DOCKED: USER    
DOCKED: USER    
DOCKED: USER    NEWDPF move ligand.pdbqt
DOCKED: USER    NEWDPF about 0.293000 0.181000 0.279000
DOCKED: USER    NEWDPF tran0 24.058360 -17.860864 -3.062419
DOCKED: USER    NEWDPF quaternion0 -0.223106 0.847856 -0.252970 0.409108
DOCKED: USER    NEWDPF axisangle0 -0.244504 0.929172 -0.277232 131.702425
DOCKED: USER    NEWDPF quat0 -0.244504 0.929172 -0.277232 131.702425
DOCKED: USER    NEWDPF dihe0 5.94 -27.15 133.77 -87.89 76.69 -57.93 
DOCKED: USER  keepresnum = 1 
DOCKED: USER  
DOCKED: REMARK  Name = 
DOCKED: REMARK  6 active torsions:
DOCKED: REMARK  status: ('A' for Active; 'I' for Inactive)
DOCKED: REMARK    1  A    between atoms: S_2  and  N_3
DOCKED: REMARK    2  A    between atoms: S_2  and  C_10
DOCKED: REMARK    3  A    between atoms: N_3  and  C_4
DOCKED: REMARK    4  A    between atoms: C_12  and  C_13
DOCKED: REMARK    5  A    between atoms: C_14  and  C_15
DOCKED: REMARK    6  A    between atoms: N_16  and  O_17
DOCKED: REMARK                            x       y       z     vdW  Elec       q    Type
DOCKED: REMARK                         _______ _______ _______ _____ _____    ______ ____
DOCKED: USER                              x       y       z     vdW  Elec       q    Type
DOCKED: USER                           _______ _______ _______ _____ _____    ______ ____
DOCKED: ROOT
DOCKED: ATOM      1  C   UNL     1      25.599 -16.217  -2.167 -0.49 -0.00    +0.000 A 
DOCKED: ATOM      2  C   UNL     1      24.401 -16.943  -2.207 -0.23 -0.00    +0.000 A 
DOCKED: ATOM      3  C   UNL     1      24.184 -18.020  -1.329 -0.67 -0.00    +0.000 A 
DOCKED: ATOM      4  C   UNL     1      25.180 -18.336  -0.382 -0.61 -0.00    +0.000 A 
DOCKED: ATOM      5  C   UNL     1      26.370 -17.604  -0.337 -0.54 -0.00    +0.000 A 
DOCKED: ATOM      6  C   UNL     1      26.582 -16.550  -1.227 -0.43 -0.00    +0.000 A 
DOCKED: ENDROOT
DOCKED: BRANCH   1   8
DOCKED: ATOM      7  O   UNL     1      26.692 -13.812  -2.666 -0.28 -0.00    +0.000 OA
DOCKED: ATOM      8  S   UNL     1      25.865 -14.895  -3.299 -0.64 -0.00    +0.000 S 
DOCKED: ATOM      9  O   UNL     1      24.533 -14.325  -3.697 -0.94 -0.00    +0.000 OA
DOCKED: BRANCH   8  10
DOCKED: ATOM     10  N   UNL     1      26.683 -15.477  -4.716 -0.52 -0.00    +0.000 N 
DOCKED: ATOM     11  H   UNL     1      26.423 -16.358  -5.071 -0.05 +0.00    +0.000 HD
DOCKED: BRANCH  10  12
DOCKED: ATOM     12  C   UNL     1      27.720 -14.750  -5.400 -0.38 -0.00    +0.000 A 
DOCKED: ATOM     13  C   UNL     1      27.663 -13.353  -5.571 -0.24 -0.00    +0.000 A 
DOCKED: ATOM     14  C   UNL     1      28.693 -12.680  -6.234 -0.18 -0.00    +0.000 A 
DOCKED: ATOM     15  C   UNL     1      29.785 -13.390  -6.738 -0.19 -0.00    +0.000 A 
DOCKED: ATOM     16  C   UNL     1      29.848 -14.777  -6.582 -0.28 -0.00    +0.000 A 
DOCKED: ATOM     17  C   UNL     1      28.820 -15.454  -5.918 -0.34 -0.00    +0.000 A 
DOCKED: ENDBRANCH  10  12
DOCKED: ENDBRANCH   8  10
DOCKED: ENDBRANCH   1   8
DOCKED: BRANCH   3  18
DOCKED: ATOM     18  C   UNL     1      22.900 -18.758  -1.416 -0.77 -0.00    +0.000 C 
DOCKED: ATOM     19  C   UNL     1      22.073 -18.936  -0.375 -0.82 -0.00    +0.000 C 
DOCKED: BRANCH  19  20
DOCKED: ATOM     20  C   UNL     1      20.798 -19.676  -0.468 -0.84 -0.00    +0.000 C 
DOCKED: ATOM     21  N   UNL     1      20.224 -20.358   0.656 -0.68 -0.00    +0.000 N 
DOCKED: ATOM     22  O   UNL     1      20.186 -19.682  -1.568 -1.70 -0.00    +0.000 OA
DOCKED: ATOM     23  H   UNL     1      20.639 -20.275   1.545 -0.51 -0.00    +0.000 HD
DOCKED: BRANCH  21  24
DOCKED: ATOM     24  O   UNL     1      19.113 -21.118   0.496 -0.75 -0.00    +0.000 OA
DOCKED: ATOM     25  H   UNL     1      18.891 -21.170  -0.447 -0.35 -0.00    +0.000 HD
DOCKED: ENDBRANCH  21  24
DOCKED: ENDBRANCH  19  20
DOCKED: ENDBRANCH   3  18
DOCKED: TORSDOF 6
DOCKED: TER
DOCKED: ENDMDL
________________________________________________________________________________


	BEGINNING GENETIC ALGORITHM DOCKING 85 of 100
Run: 85 Seed: 485508384 647383976 [ Run 85 of 100 GA/GALS ]
Beginning LAMARCKIAN GENETIC ALGORITHM (LGA), with a maximum of 2500000 energy evaluations.

Final-Value: -15.296


	FINAL GENETIC ALGORITHM DOCKED STATE
	_______________________________________________


Detailed state:  trans 24.369 -17.675 -2.717 quatxyzw 0.238572 -0.802658 0.284714 -0.466650 center 0.293 0.181 0.279 ntor 6 30.4896 69.7969 -3.9279 -32.4993 156.1676 -56.8335
State:	 24.369 -17.675  -2.717   0.270 -0.908  0.322 -124.366     30.49   69.80   -3.93  -32.50  156.17  -56.83

DOCKED: MODEL       85
DOCKED: USER    Run = 85
DOCKED: USER    DPF = ligand_dock.biased.dpf
DOCKED: USER  
DOCKED: USER    Estimated Free Energy of Binding    =  -12.03 kcal/mol  [=(1)+(2)+(3)-(4)]
DOCKED: USER    Estimated Inhibition Constant, Ki   =    1.52 nM (nanomolar)  [Temperature = 298.15 K]
DOCKED: USER    
DOCKED: USER    (1) Final Intermolecular Energy     =  -13.82 kcal/mol
DOCKED: USER        vdW + Hbond + desolv Energy     =  -13.82 kcal/mol
DOCKED: USER        Electrostatic Energy            =   +0.00 kcal/mol
DOCKED: USER    (2) Final Total Internal Energy     =   -1.48 kcal/mol
DOCKED: USER    (3) Torsional Free Energy           =   +1.79 kcal/mol
DOCKED: USER    (4) Unbound System's Energy  [=(2)] =   -1.48 kcal/mol
DOCKED: USER    
DOCKED: USER    
DOCKED: USER    NEWDPF move ligand.pdbqt
DOCKED: USER    NEWDPF about 0.293000 0.181000 0.279000
DOCKED: USER    NEWDPF tran0 24.368500 -17.675242 -2.717009
DOCKED: USER    NEWDPF quaternion0 0.238572 -0.802658 0.284714 -0.466650
DOCKED: USER    NEWDPF axisangle0 0.269743 -0.907530 0.321914 -124.365923
DOCKED: USER    NEWDPF quat0 0.269743 -0.907530 0.321914 -124.365923
DOCKED: USER    NEWDPF dihe0 30.49 69.80 -3.93 -32.50 156.17 -56.83 
DOCKED: USER  keepresnum = 1 
DOCKED: USER  
DOCKED: REMARK  Name = 
DOCKED: REMARK  6 active torsions:
DOCKED: REMARK  status: ('A' for Active; 'I' for Inactive)
DOCKED: REMARK    1  A    between atoms: S_2  and  N_3
DOCKED: REMARK    2  A    between atoms: S_2  and  C_10
DOCKED: REMARK    3  A    between atoms: N_3  and  C_4
DOCKED: REMARK    4  A    between atoms: C_12  and  C_13
DOCKED: REMARK    5  A    between atoms: C_14  and  C_15
DOCKED: REMARK    6  A    between atoms: N_16  and  O_17
DOCKED: REMARK                            x       y       z     vdW  Elec       q    Type
DOCKED: REMARK                         _______ _______ _______ _____ _____    ______ ____
DOCKED: USER                              x       y       z     vdW  Elec       q    Type
DOCKED: USER                           _______ _______ _______ _____ _____    ______ ____
DOCKED: ROOT
DOCKED: ATOM      1  C   UNL     1      25.928 -15.900  -2.175 -0.45 -0.00    +0.000 A 
DOCKED: ATOM      2  C   UNL     1      24.771 -16.671  -1.996 -0.51 -0.00    +0.000 A 
DOCKED: ATOM      3  C   UNL     1      24.719 -17.669  -1.008 -0.65 -0.00    +0.000 A 
DOCKED: ATOM      4  C   UNL     1      25.840 -17.859  -0.174 -0.58 -0.00    +0.000 A 
DOCKED: ATOM      5  C   UNL     1      26.989 -17.082  -0.347 -0.45 -0.00    +0.000 A 
DOCKED: ATOM      6  C   UNL     1      27.036 -16.108  -1.345 -0.35 -0.00    +0.000 A 
DOCKED: ENDROOT
DOCKED: BRANCH   1   8
DOCKED: ATOM      7  O   UNL     1      26.852 -13.523  -3.028 -0.25 -0.00    +0.000 OA
DOCKED: ATOM      8  S   UNL     1      25.984 -14.678  -3.442 -0.61 -0.00    +0.000 S 
DOCKED: ATOM      9  O   UNL     1      24.590 -14.178  -3.693 -0.98 -0.00    +0.000 OA
DOCKED: BRANCH   8  10
DOCKED: ATOM     10  N   UNL     1      26.616 -15.366  -4.906 -0.53 -0.00    +0.000 N 
DOCKED: ATOM     11  H   UNL     1      25.975 -15.702  -5.574 -0.09 +0.00    +0.000 HD
DOCKED: BRANCH  10  12
DOCKED: ATOM     12  C   UNL     1      28.020 -15.474  -5.202 -0.34 -0.00    +0.000 A 
DOCKED: ATOM     13  C   UNL     1      28.907 -16.177  -4.361 -0.23 -0.00    +0.000 A 
DOCKED: ATOM     14  C   UNL     1      30.264 -16.268  -4.685 -0.20 -0.00    +0.000 A 
DOCKED: ATOM     15  C   UNL     1      30.752 -15.659  -5.843 -0.18 -0.00    +0.000 A 
DOCKED: ATOM     16  C   UNL     1      29.883 -14.953  -6.680 -0.29 -0.00    +0.000 A 
DOCKED: ATOM     17  C   UNL     1      28.525 -14.860  -6.360 -0.35 -0.00    +0.000 A 
DOCKED: ENDBRANCH  10  12
DOCKED: ENDBRANCH   8  10
DOCKED: ENDBRANCH   1   8
DOCKED: BRANCH   3  18
DOCKED: ATOM     18  C   UNL     1      23.471 -18.459  -0.863 -0.82 -0.00    +0.000 C 
DOCKED: ATOM     19  C   UNL     1      22.244 -17.916  -0.856 -0.77 -0.00    +0.000 C 
DOCKED: BRANCH  19  20
DOCKED: ATOM     20  C   UNL     1      21.007 -18.708  -0.706 -0.86 -0.00    +0.000 C 
DOCKED: ATOM     21  N   UNL     1      21.017 -20.070  -0.258 -0.65 -0.00    +0.000 N 
DOCKED: ATOM     22  O   UNL     1      19.905 -18.153  -0.959 -1.84 -0.00    +0.000 OA
DOCKED: ATOM     23  H   UNL     1      21.860 -20.482   0.041 -0.58 -0.00    +0.000 HD
DOCKED: BRANCH  21  24
DOCKED: ATOM     24  O   UNL     1      19.870 -20.791  -0.245 -0.74 -0.00    +0.000 OA
DOCKED: ATOM     25  H   UNL     1      19.287 -20.482  -0.956 -0.50 -0.00    +0.000 HD
DOCKED: ENDBRANCH  21  24
DOCKED: ENDBRANCH  19  20
DOCKED: ENDBRANCH   3  18
DOCKED: TORSDOF 6
DOCKED: TER
DOCKED: ENDMDL
________________________________________________________________________________


	BEGINNING GENETIC ALGORITHM DOCKING 86 of 100
Run: 86 Seed: 657322124 1143754137 [ Run 86 of 100 GA/GALS ]
Beginning LAMARCKIAN GENETIC ALGORITHM (LGA), with a maximum of 2500000 energy evaluations.

Final-Value: -15.418


	FINAL GENETIC ALGORITHM DOCKED STATE
	_______________________________________________


Detailed state:  trans 24.962 -15.407 -1.355 quatxyzw 0.433679 -0.779236 -0.321536 -0.318321 center 0.293 0.181 0.279 ntor 6 -123.6367 159.3552 68.0238 -97.4798 115.9501 168.0790
State:	 24.962 -15.407  -1.355   0.457 -0.822 -0.339 -142.877   -123.64  159.36   68.02  -97.48  115.95  168.08

DOCKED: MODEL       86
DOCKED: USER    Run = 86
DOCKED: USER    DPF = ligand_dock.biased.dpf
DOCKED: USER  
DOCKED: USER    Estimated Free Energy of Binding    =  -12.68 kcal/mol  [=(1)+(2)+(3)-(4)]
DOCKED: USER    Estimated Inhibition Constant, Ki   =  509.25 pM (picomolar)  [Temperature = 298.15 K]
DOCKED: USER    
DOCKED: USER    (1) Final Intermolecular Energy     =  -14.47 kcal/mol
DOCKED: USER        vdW + Hbond + desolv Energy     =  -14.47 kcal/mol
DOCKED: USER        Electrostatic Energy            =   +0.00 kcal/mol
DOCKED: USER    (2) Final Total Internal Energy     =   -0.95 kcal/mol
DOCKED: USER    (3) Torsional Free Energy           =   +1.79 kcal/mol
DOCKED: USER    (4) Unbound System's Energy  [=(2)] =   -0.95 kcal/mol
DOCKED: USER    
DOCKED: USER    
DOCKED: USER    NEWDPF move ligand.pdbqt
DOCKED: USER    NEWDPF about 0.293000 0.181000 0.279000
DOCKED: USER    NEWDPF tran0 24.962031 -15.407478 -1.354867
DOCKED: USER    NEWDPF quaternion0 0.433679 -0.779236 -0.321536 -0.318321
DOCKED: USER    NEWDPF axisangle0 0.457476 -0.821994 -0.339179 -142.877199
DOCKED: USER    NEWDPF quat0 0.457476 -0.821994 -0.339179 -142.877199
DOCKED: USER    NEWDPF dihe0 -123.64 159.36 68.02 -97.48 115.95 168.08 
DOCKED: USER  keepresnum = 1 
DOCKED: USER  
DOCKED: REMARK  Name = 
DOCKED: REMARK  6 active torsions:
DOCKED: REMARK  status: ('A' for Active; 'I' for Inactive)
DOCKED: REMARK    1  A    between atoms: S_2  and  N_3
DOCKED: REMARK    2  A    between atoms: S_2  and  C_10
DOCKED: REMARK    3  A    between atoms: N_3  and  C_4
DOCKED: REMARK    4  A    between atoms: C_12  and  C_13
DOCKED: REMARK    5  A    between atoms: C_14  and  C_15
DOCKED: REMARK    6  A    between atoms: N_16  and  O_17
DOCKED: REMARK                            x       y       z     vdW  Elec       q    Type
DOCKED: REMARK                         _______ _______ _______ _____ _____    ______ ____
DOCKED: USER                              x       y       z     vdW  Elec       q    Type
DOCKED: USER                           _______ _______ _______ _____ _____    ______ ____
DOCKED: ROOT
DOCKED: ATOM      1  C   UNL     1      26.920 -15.502   0.072 -0.27 -0.00    +0.000 A 
DOCKED: ATOM      2  C   UNL     1      25.625 -15.857  -0.330 -0.06 -0.00    +0.000 A 
DOCKED: ATOM      3  C   UNL     1      25.389 -17.064  -1.010 -0.56 -0.00    +0.000 A 
DOCKED: ATOM      4  C   UNL     1      26.474 -17.932  -1.251 -0.19 -0.00    +0.000 A 
DOCKED: ATOM      5  C   UNL     1      27.763 -17.582  -0.840 -0.33 -0.00    +0.000 A 
DOCKED: ATOM      6  C   UNL     1      27.988 -16.370  -0.184 -0.27 -0.00    +0.000 A 
DOCKED: ENDROOT
DOCKED: BRANCH   1   8
DOCKED: ATOM      7  O   UNL     1      25.898 -13.357   1.332 -0.38 -0.00    +0.000 OA
DOCKED: ATOM      8  S   UNL     1      27.198 -13.969   0.891 -0.37 -0.00    +0.000 S 
DOCKED: ATOM      9  O   UNL     1      27.883 -13.030  -0.061 -0.15 -0.00    +0.000 OA
DOCKED: BRANCH   8  10
DOCKED: ATOM     10  N   UNL     1      28.210 -14.210   2.282 -0.29 -0.00    +0.000 N 
DOCKED: ATOM     11  H   UNL     1      28.863 -14.947   2.256 -1.62 -0.00    +0.000 HD
DOCKED: BRANCH  10  12
DOCKED: ATOM     12  C   UNL     1      28.150 -13.400   3.470 -0.32 -0.00    +0.000 A 
DOCKED: ATOM     13  C   UNL     1      28.420 -13.929   4.748 -0.47 -0.00    +0.000 A 
DOCKED: ATOM     14  C   UNL     1      28.360 -13.108   5.878 -0.39 -0.00    +0.000 A 
DOCKED: ATOM     15  C   UNL     1      28.026 -11.758   5.749 -0.35 +0.00    +0.000 A 
DOCKED: ATOM     16  C   UNL     1      27.748 -11.226   4.488 -0.32 +0.00    +0.000 A 
DOCKED: ATOM     17  C   UNL     1      27.808 -12.042   3.354 -0.26 +0.00    +0.000 A 
DOCKED: ENDBRANCH  10  12
DOCKED: ENDBRANCH   8  10
DOCKED: ENDBRANCH   1   8
DOCKED: BRANCH   3  18
DOCKED: ATOM     18  C   UNL     1      23.999 -17.389  -1.416 -0.71 -0.00    +0.000 C 
DOCKED: ATOM     19  C   UNL     1      23.111 -17.992  -0.612 -0.81 -0.00    +0.000 C 
DOCKED: BRANCH  19  20
DOCKED: ATOM     20  C   UNL     1      21.730 -18.317  -1.024 -0.76 -0.00    +0.000 C 
DOCKED: ATOM     21  N   UNL     1      21.400 -19.535  -1.705 -0.58 -0.00    +0.000 N 
DOCKED: ATOM     22  O   UNL     1      20.812 -17.502  -0.742 -2.08 -0.00    +0.000 OA
DOCKED: ATOM     23  H   UNL     1      22.090 -20.225  -1.839 -0.45 -0.00    +0.000 HD
DOCKED: BRANCH  21  24
DOCKED: ATOM     24  O   UNL     1      20.142 -19.738  -2.165 -1.88 -0.00    +0.000 OA
DOCKED: ATOM     25  H   UNL     1      19.789 -20.559  -1.789 -0.61 -0.00    +0.000 HD
DOCKED: ENDBRANCH  21  24
DOCKED: ENDBRANCH  19  20
DOCKED: ENDBRANCH   3  18
DOCKED: TORSDOF 6
DOCKED: TER
DOCKED: ENDMDL
________________________________________________________________________________


	BEGINNING GENETIC ALGORITHM DOCKING 87 of 100
Run: 87 Seed: 1909895660 1533471608 [ Run 87 of 100 GA/GALS ]
Beginning LAMARCKIAN GENETIC ALGORITHM (LGA), with a maximum of 2500000 energy evaluations.

Final-Value: -15.083


	FINAL GENETIC ALGORITHM DOCKED STATE
	_______________________________________________


Detailed state:  trans 24.540 -17.370 -2.752 quatxyzw 0.106584 -0.755331 0.361743 -0.535964 center 0.293 0.181 0.279 ntor 6 46.7793 -51.4050 170.5808 136.1765 -105.0662 -138.4314
State:	 24.540 -17.370  -2.752   0.126 -0.895  0.428 -115.181     46.78  -51.40  170.58  136.18 -105.07 -138.43

DOCKED: MODEL       87
DOCKED: USER    Run = 87
DOCKED: USER    DPF = ligand_dock.biased.dpf
DOCKED: USER  
DOCKED: USER    Estimated Free Energy of Binding    =  -11.99 kcal/mol  [=(1)+(2)+(3)-(4)]
DOCKED: USER    Estimated Inhibition Constant, Ki   =    1.64 nM (nanomolar)  [Temperature = 298.15 K]
DOCKED: USER    
DOCKED: USER    (1) Final Intermolecular Energy     =  -13.77 kcal/mol
DOCKED: USER        vdW + Hbond + desolv Energy     =  -13.77 kcal/mol
DOCKED: USER        Electrostatic Energy            =   +0.00 kcal/mol
DOCKED: USER    (2) Final Total Internal Energy     =   -1.31 kcal/mol
DOCKED: USER    (3) Torsional Free Energy           =   +1.79 kcal/mol
DOCKED: USER    (4) Unbound System's Energy  [=(2)] =   -1.31 kcal/mol
DOCKED: USER    
DOCKED: USER    
DOCKED: USER    NEWDPF move ligand.pdbqt
DOCKED: USER    NEWDPF about 0.293000 0.181000 0.279000
DOCKED: USER    NEWDPF tran0 24.540387 -17.370065 -2.751575
DOCKED: USER    NEWDPF quaternion0 0.106584 -0.755331 0.361743 -0.535964
DOCKED: USER    NEWDPF axisangle0 0.126248 -0.894686 0.428483 -115.181372
DOCKED: USER    NEWDPF quat0 0.126248 -0.894686 0.428483 -115.181372
DOCKED: USER    NEWDPF dihe0 46.78 -51.40 170.58 136.18 -105.07 -138.43 
DOCKED: USER  keepresnum = 1 
DOCKED: USER  
DOCKED: REMARK  Name = 
DOCKED: REMARK  6 active torsions:
DOCKED: REMARK  status: ('A' for Active; 'I' for Inactive)
DOCKED: REMARK    1  A    between atoms: S_2  and  N_3
DOCKED: REMARK    2  A    between atoms: S_2  and  C_10
DOCKED: REMARK    3  A    between atoms: N_3  and  C_4
DOCKED: REMARK    4  A    between atoms: C_12  and  C_13
DOCKED: REMARK    5  A    between atoms: C_14  and  C_15
DOCKED: REMARK    6  A    between atoms: N_16  and  O_17
DOCKED: REMARK                            x       y       z     vdW  Elec       q    Type
DOCKED: REMARK                         _______ _______ _______ _____ _____    ______ ____
DOCKED: USER                              x       y       z     vdW  Elec       q    Type
DOCKED: USER                           _______ _______ _______ _____ _____    ______ ____
DOCKED: ROOT
DOCKED: ATOM      1  C   UNL     1      26.378 -15.789  -2.807 -0.41 -0.00    +0.000 A 
DOCKED: ATOM      2  C   UNL     1      25.135 -16.275  -2.380 -0.49 -0.00    +0.000 A 
DOCKED: ATOM      3  C   UNL     1      25.002 -16.910  -1.133 -0.57 -0.00    +0.000 A 
DOCKED: ATOM      4  C   UNL     1      26.136 -17.020  -0.302 -0.47 -0.00    +0.000 A 
DOCKED: ATOM      5  C   UNL     1      27.373 -16.526  -0.726 -0.37 -0.00    +0.000 A 
DOCKED: ATOM      6  C   UNL     1      27.496 -15.916  -1.975 -0.29 -0.00    +0.000 A 
DOCKED: ENDROOT
DOCKED: BRANCH   1   8
DOCKED: ATOM      7  O   UNL     1      25.761 -13.737  -4.431 -0.53 -0.00    +0.000 OA
DOCKED: ATOM      8  S   UNL     1      26.529 -15.028  -4.388 -0.65 -0.00    +0.000 S 
DOCKED: ATOM      9  O   UNL     1      25.977 -15.961  -5.428 -1.12 +0.00    +0.000 OA
DOCKED: BRANCH   8  10
DOCKED: ATOM     10  N   UNL     1      28.199 -14.706  -4.738 -0.28 -0.00    +0.000 N 
DOCKED: ATOM     11  H   UNL     1      28.545 -13.803  -4.551 +0.00 -0.00    +0.000 HD
DOCKED: BRANCH  10  12
DOCKED: ATOM     12  C   UNL     1      29.107 -15.679  -5.286 -0.31 -0.00    +0.000 A 
DOCKED: ATOM     13  C   UNL     1      29.446 -16.857  -4.591 -0.18 -0.00    +0.000 A 
DOCKED: ATOM     14  C   UNL     1      30.325 -17.783  -5.158 -0.28 -0.00    +0.000 A 
DOCKED: ATOM     15  C   UNL     1      30.879 -17.545  -6.418 -0.29 -0.00    +0.000 A 
DOCKED: ATOM     16  C   UNL     1      30.557 -16.377  -7.113 -0.28 -0.00    +0.000 A 
DOCKED: ATOM     17  C   UNL     1      29.677 -15.447  -6.549 -0.31 -0.00    +0.000 A 
DOCKED: ENDBRANCH  10  12
DOCKED: ENDBRANCH   8  10
DOCKED: ENDBRANCH   1   8
DOCKED: BRANCH   3  18
DOCKED: ATOM     18  C   UNL     1      23.663 -17.409  -0.730 -0.74 -0.00    +0.000 C 
DOCKED: ATOM     19  C   UNL     1      22.917 -18.229  -1.486 -0.64 -0.00    +0.000 C 
DOCKED: BRANCH  19  20
DOCKED: ATOM     20  C   UNL     1      21.583 -18.717  -1.081 -0.81 -0.00    +0.000 C 
DOCKED: ATOM     21  N   UNL     1      20.886 -19.735  -1.811 -0.72 -0.00    +0.000 N 
DOCKED: ATOM     22  O   UNL     1      21.057 -18.236  -0.043 -1.57 -0.00    +0.000 OA
DOCKED: ATOM     23  H   UNL     1      21.329 -20.192  -2.563 -0.57 -0.00    +0.000 HD
DOCKED: BRANCH  21  24
DOCKED: ATOM     24  O   UNL     1      19.618 -20.069  -1.470 -1.43 -0.00    +0.000 OA
DOCKED: ATOM     25  H   UNL     1      19.093 -19.263  -1.348 -0.47 -0.00    +0.000 HD
DOCKED: ENDBRANCH  21  24
DOCKED: ENDBRANCH  19  20
DOCKED: ENDBRANCH   3  18
DOCKED: TORSDOF 6
DOCKED: TER
DOCKED: ENDMDL
________________________________________________________________________________


	BEGINNING GENETIC ALGORITHM DOCKING 88 of 100
Run: 88 Seed: 352369247 317409095 [ Run 88 of 100 GA/GALS ]
Beginning LAMARCKIAN GENETIC ALGORITHM (LGA), with a maximum of 2500000 energy evaluations.

Final-Value: -15.452


	FINAL GENETIC ALGORITHM DOCKED STATE
	_______________________________________________


Detailed state:  trans 24.270 -18.081 -3.003 quatxyzw 0.209851 -0.789863 0.291183 -0.497283 center 0.293 0.181 0.279 ntor 6 28.6037 131.0220 14.2594 168.8982 141.3912 -152.2914
State:	 24.270 -18.081  -3.003   0.242 -0.910  0.336 -120.359     28.60  131.02   14.26  168.90  141.39 -152.29

DOCKED: MODEL       88
DOCKED: USER    Run = 88
DOCKED: USER    DPF = ligand_dock.biased.dpf
DOCKED: USER  
DOCKED: USER    Estimated Free Energy of Binding    =  -12.26 kcal/mol  [=(1)+(2)+(3)-(4)]
DOCKED: USER    Estimated Inhibition Constant, Ki   =    1.03 nM (nanomolar)  [Temperature = 298.15 K]
DOCKED: USER    
DOCKED: USER    (1) Final Intermolecular Energy     =  -14.05 kcal/mol
DOCKED: USER        vdW + Hbond + desolv Energy     =  -14.05 kcal/mol
DOCKED: USER        Electrostatic Energy            =   +0.00 kcal/mol
DOCKED: USER    (2) Final Total Internal Energy     =   -1.40 kcal/mol
DOCKED: USER    (3) Torsional Free Energy           =   +1.79 kcal/mol
DOCKED: USER    (4) Unbound System's Energy  [=(2)] =   -1.40 kcal/mol
DOCKED: USER    
DOCKED: USER    
DOCKED: USER    NEWDPF move ligand.pdbqt
DOCKED: USER    NEWDPF about 0.293000 0.181000 0.279000
DOCKED: USER    NEWDPF tran0 24.270315 -18.081495 -3.002551
DOCKED: USER    NEWDPF quaternion0 0.209851 -0.789863 0.291183 -0.497283
DOCKED: USER    NEWDPF axisangle0 0.241879 -0.910413 0.335623 -120.359134
DOCKED: USER    NEWDPF quat0 0.241879 -0.910413 0.335623 -120.359134
DOCKED: USER    NEWDPF dihe0 28.60 131.02 14.26 168.90 141.39 -152.29 
DOCKED: USER  keepresnum = 1 
DOCKED: USER  
DOCKED: REMARK  Name = 
DOCKED: REMARK  6 active torsions:
DOCKED: REMARK  status: ('A' for Active; 'I' for Inactive)
DOCKED: REMARK    1  A    between atoms: S_2  and  N_3
DOCKED: REMARK    2  A    between atoms: S_2  and  C_10
DOCKED: REMARK    3  A    between atoms: N_3  and  C_4
DOCKED: REMARK    4  A    between atoms: C_12  and  C_13
DOCKED: REMARK    5  A    between atoms: C_14  and  C_15
DOCKED: REMARK    6  A    between atoms: N_16  and  O_17
DOCKED: REMARK                            x       y       z     vdW  Elec       q    Type
DOCKED: REMARK                         _______ _______ _______ _____ _____    ______ ____
DOCKED: USER                              x       y       z     vdW  Elec       q    Type
DOCKED: USER                           _______ _______ _______ _____ _____    ______ ____
DOCKED: ROOT
DOCKED: ATOM      1  C   UNL     1      25.938 -16.362  -2.631 -0.43 -0.00    +0.000 A 
DOCKED: ATOM      2  C   UNL     1      24.754 -17.059  -2.360 -0.36 -0.00    +0.000 A 
DOCKED: ATOM      3  C   UNL     1      24.694 -17.995  -1.312 -0.61 -0.00    +0.000 A 
DOCKED: ATOM      4  C   UNL     1      25.839 -18.195  -0.514 -0.59 -0.00    +0.000 A 
DOCKED: ATOM      5  C   UNL     1      27.017 -17.490  -0.779 -0.46 -0.00    +0.000 A 
DOCKED: ATOM      6  C   UNL     1      27.070 -16.580  -1.836 -0.36 -0.00    +0.000 A 
DOCKED: ENDROOT
DOCKED: BRANCH   1   8
DOCKED: ATOM      7  O   UNL     1      24.878 -14.227  -3.875 -0.99 -0.00    +0.000 OA
DOCKED: ATOM      8  S   UNL     1      26.001 -15.221  -3.971 -0.72 -0.00    +0.000 S 
DOCKED: ATOM      9  O   UNL     1      25.873 -15.982  -5.259 -1.13 +0.00    +0.000 OA
DOCKED: BRANCH   8  10
DOCKED: ATOM     10  N   UNL     1      27.514 -14.368  -3.958 -0.26 -0.00    +0.000 N 
DOCKED: ATOM     11  H   UNL     1      27.710 -13.786  -3.188 +0.00 -0.00    +0.000 HD
DOCKED: BRANCH  10  12
DOCKED: ATOM     12  C   UNL     1      28.497 -14.461  -5.005 -0.26 -0.00    +0.000 A 
DOCKED: ATOM     13  C   UNL     1      28.904 -13.334  -5.747 -0.18 -0.00    +0.000 A 
DOCKED: ATOM     14  C   UNL     1      29.868 -13.462  -6.752 -0.19 -0.00    +0.000 A 
DOCKED: ATOM     15  C   UNL     1      30.432 -14.709  -7.030 -0.24 -0.00    +0.000 A 
DOCKED: ATOM     16  C   UNL     1      30.030 -15.834  -6.305 -0.31 -0.00    +0.000 A 
DOCKED: ATOM     17  C   UNL     1      29.066 -15.711  -5.300 -0.31 -0.00    +0.000 A 
DOCKED: ENDBRANCH  10  12
DOCKED: ENDBRANCH   8  10
DOCKED: ENDBRANCH   1   8
DOCKED: BRANCH   3  18
DOCKED: ATOM     18  C   UNL     1      23.416 -18.708  -1.070 -0.81 -0.00    +0.000 C 
DOCKED: ATOM     19  C   UNL     1      22.266 -18.089  -0.763 -0.82 -0.00    +0.000 C 
DOCKED: BRANCH  19  20
DOCKED: ATOM     20  C   UNL     1      20.998 -18.806  -0.519 -0.83 -0.00    +0.000 C 
DOCKED: ATOM     21  N   UNL     1      20.957 -20.111   0.075 -0.63 -0.00    +0.000 N 
DOCKED: ATOM     22  O   UNL     1      19.917 -18.235  -0.822 -1.89 -0.00    +0.000 OA
DOCKED: ATOM     23  H   UNL     1      21.785 -20.524   0.410 -0.59 -0.00    +0.000 HD
DOCKED: BRANCH  21  24
DOCKED: ATOM     24  O   UNL     1      19.781 -20.776   0.175 -0.79 -0.00    +0.000 OA
DOCKED: ATOM     25  H   UNL     1      19.191 -20.500  -0.544 -0.30 -0.00    +0.000 HD
DOCKED: ENDBRANCH  21  24
DOCKED: ENDBRANCH  19  20
DOCKED: ENDBRANCH   3  18
DOCKED: TORSDOF 6
DOCKED: TER
DOCKED: ENDMDL
________________________________________________________________________________


	BEGINNING GENETIC ALGORITHM DOCKING 89 of 100
Run: 89 Seed: 1776699304 1527044844 [ Run 89 of 100 GA/GALS ]
Beginning LAMARCKIAN GENETIC ALGORITHM (LGA), with a maximum of 2500000 energy evaluations.

Final-Value: -15.804


	FINAL GENETIC ALGORITHM DOCKED STATE
	_______________________________________________


Detailed state:  trans 24.141 -17.936 -2.705 quatxyzw 0.201202 -0.755721 0.276814 -0.558371 center 0.293 0.181 0.279 ntor 6 3.6587 122.5506 -37.9366 156.4078 -171.1978 -155.5545
State:	 24.141 -17.936  -2.705   0.243 -0.911  0.334 -112.114      3.66  122.55  -37.94  156.41 -171.20 -155.55

DOCKED: MODEL       89
DOCKED: USER    Run = 89
DOCKED: USER    DPF = ligand_dock.biased.dpf
DOCKED: USER  
DOCKED: USER    Estimated Free Energy of Binding    =  -12.41 kcal/mol  [=(1)+(2)+(3)-(4)]
DOCKED: USER    Estimated Inhibition Constant, Ki   =  797.03 pM (picomolar)  [Temperature = 298.15 K]
DOCKED: USER    
DOCKED: USER    (1) Final Intermolecular Energy     =  -14.20 kcal/mol
DOCKED: USER        vdW + Hbond + desolv Energy     =  -14.20 kcal/mol
DOCKED: USER        Electrostatic Energy            =   +0.00 kcal/mol
DOCKED: USER    (2) Final Total Internal Energy     =   -1.60 kcal/mol
DOCKED: USER    (3) Torsional Free Energy           =   +1.79 kcal/mol
DOCKED: USER    (4) Unbound System's Energy  [=(2)] =   -1.60 kcal/mol
DOCKED: USER    
DOCKED: USER    
DOCKED: USER    NEWDPF move ligand.pdbqt
DOCKED: USER    NEWDPF about 0.293000 0.181000 0.279000
DOCKED: USER    NEWDPF tran0 24.141499 -17.935936 -2.705035
DOCKED: USER    NEWDPF quaternion0 0.201202 -0.755721 0.276814 -0.558371
DOCKED: USER    NEWDPF axisangle0 0.242531 -0.910955 0.333675 -112.113621
DOCKED: USER    NEWDPF quat0 0.242531 -0.910955 0.333675 -112.113621
DOCKED: USER    NEWDPF dihe0 3.66 122.55 -37.94 156.41 -171.20 -155.55 
DOCKED: USER  keepresnum = 1 
DOCKED: USER  
DOCKED: REMARK  Name = 
DOCKED: REMARK  6 active torsions:
DOCKED: REMARK  status: ('A' for Active; 'I' for Inactive)
DOCKED: REMARK    1  A    between atoms: S_2  and  N_3
DOCKED: REMARK    2  A    between atoms: S_2  and  C_10
DOCKED: REMARK    3  A    between atoms: N_3  and  C_4
DOCKED: REMARK    4  A    between atoms: C_12  and  C_13
DOCKED: REMARK    5  A    between atoms: C_14  and  C_15
DOCKED: REMARK    6  A    between atoms: N_16  and  O_17
DOCKED: REMARK                            x       y       z     vdW  Elec       q    Type
DOCKED: REMARK                         _______ _______ _______ _____ _____    ______ ____
DOCKED: USER                              x       y       z     vdW  Elec       q    Type
DOCKED: USER                           _______ _______ _______ _____ _____    ______ ____
DOCKED: ROOT
DOCKED: ATOM      1  C   UNL     1      25.923 -16.294  -2.614 -0.45 -0.00    +0.000 A 
DOCKED: ATOM      2  C   UNL     1      24.753 -16.922  -2.166 -0.49 -0.00    +0.000 A 
DOCKED: ATOM      3  C   UNL     1      24.789 -17.824  -1.088 -0.65 -0.00    +0.000 A 
DOCKED: ATOM      4  C   UNL     1      26.018 -18.059  -0.440 -0.58 -0.00    +0.000 A 
DOCKED: ATOM      5  C   UNL     1      27.182 -17.424  -0.881 -0.43 -0.00    +0.000 A 
DOCKED: ATOM      6  C   UNL     1      27.138 -16.547  -1.966 -0.34 -0.00    +0.000 A 
DOCKED: ENDROOT
DOCKED: BRANCH   1   8
DOCKED: ATOM      7  O   UNL     1      24.757 -14.192  -3.818 -1.03 -0.00    +0.000 OA
DOCKED: ATOM      8  S   UNL     1      25.862 -15.196  -3.989 -0.73 -0.00    +0.000 S 
DOCKED: ATOM      9  O   UNL     1      25.609 -15.996  -5.235 -1.07 +0.00    +0.000 OA
DOCKED: BRANCH   8  10
DOCKED: ATOM     10  N   UNL     1      27.372 -14.353  -4.147 -0.29 -0.00    +0.000 N 
DOCKED: ATOM     11  H   UNL     1      27.558 -13.615  -3.522 +0.00 -0.00    +0.000 HD
DOCKED: BRANCH  10  12
DOCKED: ATOM     12  C   UNL     1      28.368 -14.669  -5.137 -0.31 -0.00    +0.000 A 
DOCKED: ATOM     13  C   UNL     1      28.656 -13.799  -6.208 -0.28 -0.00    +0.000 A 
DOCKED: ATOM     14  C   UNL     1      29.636 -14.136  -7.147 -0.27 -0.00    +0.000 A 
DOCKED: ATOM     15  C   UNL     1      30.335 -15.340  -7.031 -0.27 -0.00    +0.000 A 
DOCKED: ATOM     16  C   UNL     1      30.051 -16.213  -5.978 -0.30 -0.00    +0.000 A 
DOCKED: ATOM     17  C   UNL     1      29.072 -15.880  -5.037 -0.30 -0.00    +0.000 A 
DOCKED: ENDBRANCH  10  12
DOCKED: ENDBRANCH   8  10
DOCKED: ENDBRANCH   1   8
DOCKED: BRANCH   3  18
DOCKED: ATOM     18  C   UNL     1      23.521 -18.464  -0.657 -0.82 -0.00    +0.000 C 
DOCKED: ATOM     19  C   UNL     1      22.308 -18.060  -1.065 -0.74 -0.00    +0.000 C 
DOCKED: BRANCH  19  20
DOCKED: ATOM     20  C   UNL     1      21.050 -18.698  -0.628 -0.84 -0.00    +0.000 C 
DOCKED: ATOM     21  N   UNL     1      21.013 -20.022  -0.078 -0.65 -0.00    +0.000 N 
DOCKED: ATOM     22  O   UNL     1      19.979 -18.041  -0.722 -1.95 -0.00    +0.000 OA
DOCKED: ATOM     23  H   UNL     1      21.853 -20.505   0.096 -0.58 -0.00    +0.000 HD
DOCKED: BRANCH  21  24
DOCKED: ATOM     24  O   UNL     1      19.824 -20.609   0.203 -0.80 -0.00    +0.000 OA
DOCKED: ATOM     25  H   UNL     1      19.102 -20.027  -0.079 -0.05 -0.00    +0.000 HD
DOCKED: ENDBRANCH  21  24
DOCKED: ENDBRANCH  19  20
DOCKED: ENDBRANCH   3  18
DOCKED: TORSDOF 6
DOCKED: TER
DOCKED: ENDMDL
________________________________________________________________________________


	BEGINNING GENETIC ALGORITHM DOCKING 90 of 100
Run: 90 Seed: 960561446 1514033918 [ Run 90 of 100 GA/GALS ]
Beginning LAMARCKIAN GENETIC ALGORITHM (LGA), with a maximum of 2500000 energy evaluations.

Final-Value: -14.934


	FINAL GENETIC ALGORITHM DOCKED STATE
	_______________________________________________


Detailed state:  trans 24.499 -17.212 -2.806 quatxyzw -0.101024 0.791893 -0.208277 0.565085 center 0.293 0.181 0.279 ntor 6 29.0023 137.8744 157.3747 -115.1952 -75.6823 96.8336
State:	 24.499 -17.212  -2.806  -0.122  0.960 -0.252 111.184     29.00  137.87  157.37 -115.20  -75.68   96.83

DOCKED: MODEL       90
DOCKED: USER    Run = 90
DOCKED: USER    DPF = ligand_dock.biased.dpf
DOCKED: USER  
DOCKED: USER    Estimated Free Energy of Binding    =  -11.83 kcal/mol  [=(1)+(2)+(3)-(4)]
DOCKED: USER    Estimated Inhibition Constant, Ki   =    2.13 nM (nanomolar)  [Temperature = 298.15 K]
DOCKED: USER    
DOCKED: USER    (1) Final Intermolecular Energy     =  -13.62 kcal/mol
DOCKED: USER        vdW + Hbond + desolv Energy     =  -13.62 kcal/mol
DOCKED: USER        Electrostatic Energy            =   +0.00 kcal/mol
DOCKED: USER    (2) Final Total Internal Energy     =   -1.31 kcal/mol
DOCKED: USER    (3) Torsional Free Energy           =   +1.79 kcal/mol
DOCKED: USER    (4) Unbound System's Energy  [=(2)] =   -1.31 kcal/mol
DOCKED: USER    
DOCKED: USER    
DOCKED: USER    NEWDPF move ligand.pdbqt
DOCKED: USER    NEWDPF about 0.293000 0.181000 0.279000
DOCKED: USER    NEWDPF tran0 24.498704 -17.212268 -2.806323
DOCKED: USER    NEWDPF quaternion0 -0.101024 0.791893 -0.208277 0.565085
DOCKED: USER    NEWDPF axisangle0 -0.122448 0.959832 -0.252446 111.183668
DOCKED: USER    NEWDPF quat0 -0.122448 0.959832 -0.252446 111.183668
DOCKED: USER    NEWDPF dihe0 29.00 137.87 157.37 -115.20 -75.68 96.83 
DOCKED: USER  keepresnum = 1 
DOCKED: USER  
DOCKED: REMARK  Name = 
DOCKED: REMARK  6 active torsions:
DOCKED: REMARK  status: ('A' for Active; 'I' for Inactive)
DOCKED: REMARK    1  A    between atoms: S_2  and  N_3
DOCKED: REMARK    2  A    between atoms: S_2  and  C_10
DOCKED: REMARK    3  A    between atoms: N_3  and  C_4
DOCKED: REMARK    4  A    between atoms: C_12  and  C_13
DOCKED: REMARK    5  A    between atoms: C_14  and  C_15
DOCKED: REMARK    6  A    between atoms: N_16  and  O_17
DOCKED: REMARK                            x       y       z     vdW  Elec       q    Type
DOCKED: REMARK                         _______ _______ _______ _____ _____    ______ ____
DOCKED: USER                              x       y       z     vdW  Elec       q    Type
DOCKED: USER                           _______ _______ _______ _____ _____    ______ ____
DOCKED: ROOT
DOCKED: ATOM      1  C   UNL     1      26.618 -16.056  -2.588 -0.37 -0.00    +0.000 A 
DOCKED: ATOM      2  C   UNL     1      25.306 -16.380  -2.218 -0.51 -0.00    +0.000 A 
DOCKED: ATOM      3  C   UNL     1      25.057 -17.265  -1.154 -0.60 -0.00    +0.000 A 
DOCKED: ATOM      4  C   UNL     1      26.152 -17.795  -0.441 -0.56 -0.00    +0.000 A 
DOCKED: ATOM      5  C   UNL     1      27.460 -17.463  -0.805 -0.41 -0.00    +0.000 A 
DOCKED: ATOM      6  C   UNL     1      27.694 -16.599  -1.876 -0.31 -0.00    +0.000 A 
DOCKED: ENDROOT
DOCKED: BRANCH   1   8
DOCKED: ATOM      7  O   UNL     1      26.288 -15.519  -5.202 -1.15 +0.00    +0.000 OA
DOCKED: ATOM      8  S   UNL     1      26.908 -14.974  -3.946 -0.55 -0.00    +0.000 S 
DOCKED: ATOM      9  O   UNL     1      28.390 -14.841  -4.150 -0.25 -0.00    +0.000 OA
DOCKED: BRANCH   8  10
DOCKED: ATOM     10  N   UNL     1      26.234 -13.408  -3.616 -0.32 -0.00    +0.000 N 
DOCKED: ATOM     11  H   UNL     1      25.942 -13.215  -2.695 -0.01 -0.00    +0.000 HD
DOCKED: BRANCH  10  12
DOCKED: ATOM     12  C   UNL     1      26.076 -12.376  -4.606 -0.29 -0.00    +0.000 A 
DOCKED: ATOM     13  C   UNL     1      24.835 -11.749  -4.839 -0.32 -0.00    +0.000 A 
DOCKED: ATOM     14  C   UNL     1      24.722 -10.745  -5.805 -0.38 -0.00    +0.000 A 
DOCKED: ATOM     15  C   UNL     1      25.839 -10.357  -6.550 -0.22 -0.00    +0.000 A 
DOCKED: ATOM     16  C   UNL     1      27.071 -10.977  -6.333 -0.15 -0.00    +0.000 A 
DOCKED: ATOM     17  C   UNL     1      27.189 -11.983  -5.368 -0.18 -0.00    +0.000 A 
DOCKED: ENDBRANCH  10  12
DOCKED: ENDBRANCH   8  10
DOCKED: ENDBRANCH   1   8
DOCKED: BRANCH   3  18
DOCKED: ATOM     18  C   UNL     1      23.649 -17.576  -0.806 -0.76 -0.00    +0.000 C 
DOCKED: ATOM     19  C   UNL     1      22.913 -18.502  -1.440 -0.74 -0.00    +0.000 C 
DOCKED: BRANCH  19  20
DOCKED: ATOM     20  C   UNL     1      21.510 -18.803  -1.091 -0.82 -0.00    +0.000 C 
DOCKED: ATOM     21  N   UNL     1      20.717 -19.733  -1.841 -0.77 -0.00    +0.000 N 
DOCKED: ATOM     22  O   UNL     1      21.007 -18.238  -0.084 -1.63 -0.00    +0.000 OA
DOCKED: ATOM     23  H   UNL     1      21.128 -20.257  -2.565 -0.51 -0.00    +0.000 HD
DOCKED: BRANCH  21  24
DOCKED: ATOM     24  O   UNL     1      19.402 -19.891  -1.554 -1.35 -0.00    +0.000 OA
DOCKED: ATOM     25  H   UNL     1      19.048 -19.063  -1.194 -0.46 -0.00    +0.000 HD
DOCKED: ENDBRANCH  21  24
DOCKED: ENDBRANCH  19  20
DOCKED: ENDBRANCH   3  18
DOCKED: TORSDOF 6
DOCKED: TER
DOCKED: ENDMDL
________________________________________________________________________________


	BEGINNING GENETIC ALGORITHM DOCKING 91 of 100
Run: 91 Seed: 614155096 2020288091 [ Run 91 of 100 GA/GALS ]
Beginning LAMARCKIAN GENETIC ALGORITHM (LGA), with a maximum of 2500000 energy evaluations.

Final-Value: -15.162


	FINAL GENETIC ALGORITHM DOCKED STATE
	_______________________________________________


Detailed state:  trans 23.883 -17.171 -2.605 quatxyzw 0.130088 -0.756202 0.185483 -0.613866 center 0.293 0.181 0.279 ntor 6 -5.5636 67.8881 -125.5037 -6.3664 -74.1952 168.0809
State:	 23.883 -17.171  -2.605   0.165 -0.958  0.235 -104.261     -5.56   67.89 -125.50   -6.37  -74.20  168.08

DOCKED: MODEL       91
DOCKED: USER    Run = 91
DOCKED: USER    DPF = ligand_dock.biased.dpf
DOCKED: USER  
DOCKED: USER    Estimated Free Energy of Binding    =  -11.69 kcal/mol  [=(1)+(2)+(3)-(4)]
DOCKED: USER    Estimated Inhibition Constant, Ki   =    2.71 nM (nanomolar)  [Temperature = 298.15 K]
DOCKED: USER    
DOCKED: USER    (1) Final Intermolecular Energy     =  -13.48 kcal/mol
DOCKED: USER        vdW + Hbond + desolv Energy     =  -13.48 kcal/mol
DOCKED: USER        Electrostatic Energy            =   +0.00 kcal/mol
DOCKED: USER    (2) Final Total Internal Energy     =   -1.69 kcal/mol
DOCKED: USER    (3) Torsional Free Energy           =   +1.79 kcal/mol
DOCKED: USER    (4) Unbound System's Energy  [=(2)] =   -1.69 kcal/mol
DOCKED: USER    
DOCKED: USER    
DOCKED: USER    NEWDPF move ligand.pdbqt
DOCKED: USER    NEWDPF about 0.293000 0.181000 0.279000
DOCKED: USER    NEWDPF tran0 23.882636 -17.171193 -2.604848
DOCKED: USER    NEWDPF quaternion0 0.130088 -0.756202 0.185483 -0.613866
DOCKED: USER    NEWDPF axisangle0 0.164791 -0.957933 0.234964 -104.260877
DOCKED: USER    NEWDPF quat0 0.164791 -0.957933 0.234964 -104.260877
DOCKED: USER    NEWDPF dihe0 -5.56 67.89 -125.50 -6.37 -74.20 168.08 
DOCKED: USER  keepresnum = 1 
DOCKED: USER  
DOCKED: REMARK  Name = 
DOCKED: REMARK  6 active torsions:
DOCKED: REMARK  status: ('A' for Active; 'I' for Inactive)
DOCKED: REMARK    1  A    between atoms: S_2  and  N_3
DOCKED: REMARK    2  A    between atoms: S_2  and  C_10
DOCKED: REMARK    3  A    between atoms: N_3  and  C_4
DOCKED: REMARK    4  A    between atoms: C_12  and  C_13
DOCKED: REMARK    5  A    between atoms: C_14  and  C_15
DOCKED: REMARK    6  A    between atoms: N_16  and  O_17
DOCKED: REMARK                            x       y       z     vdW  Elec       q    Type
DOCKED: REMARK                         _______ _______ _______ _____ _____    ______ ____
DOCKED: USER                              x       y       z     vdW  Elec       q    Type
DOCKED: USER                           _______ _______ _______ _____ _____    ______ ____
DOCKED: ROOT
DOCKED: ATOM      1  C   UNL     1      26.007 -16.004  -2.621 -0.45 -0.00    +0.000 A 
DOCKED: ATOM      2  C   UNL     1      24.758 -16.357  -2.093 -0.47 -0.00    +0.000 A 
DOCKED: ATOM      3  C   UNL     1      24.658 -17.290  -1.046 -0.62 -0.00    +0.000 A 
DOCKED: ATOM      4  C   UNL     1      25.841 -17.840  -0.510 -0.59 -0.00    +0.000 A 
DOCKED: ATOM      5  C   UNL     1      27.087 -17.479  -1.031 -0.43 -0.00    +0.000 A 
DOCKED: ATOM      6  C   UNL     1      27.172 -16.567  -2.085 -0.32 -0.00    +0.000 A 
DOCKED: ENDROOT
DOCKED: BRANCH   1   8
DOCKED: ATOM      7  O   UNL     1      24.793 -14.161  -4.157 -1.09 -0.00    +0.000 OA
DOCKED: ATOM      8  S   UNL     1      26.108 -14.861  -3.956 -0.67 -0.00    +0.000 S 
DOCKED: ATOM      9  O   UNL     1      26.460 -15.611  -5.209 -1.19 +0.00    +0.000 OA
DOCKED: BRANCH   8  10
DOCKED: ATOM     10  N   UNL     1      27.336 -13.675  -3.635 -0.22 -0.00    +0.000 N 
DOCKED: ATOM     11  H   UNL     1      28.081 -13.597  -4.275 +0.00 -0.00    +0.000 HD
DOCKED: BRANCH  10  12
DOCKED: ATOM     12  C   UNL     1      27.331 -12.802  -2.492 -0.14 -0.00    +0.000 A 
DOCKED: ATOM     13  C   UNL     1      27.275 -13.300  -1.174 -0.16 -0.00    +0.000 A 
DOCKED: ATOM     14  C   UNL     1      27.280 -12.420  -0.087 -0.16 -0.00    +0.000 A 
DOCKED: ATOM     15  C   UNL     1      27.336 -11.041  -0.300 -0.12 -0.00    +0.000 A 
DOCKED: ATOM     16  C   UNL     1      27.383 -10.537  -1.602 -0.10 -0.00    +0.000 A 
DOCKED: ATOM     17  C   UNL     1      27.379 -11.413  -2.692 -0.11 -0.00    +0.000 A 
DOCKED: ENDBRANCH  10  12
DOCKED: ENDBRANCH   8  10
DOCKED: ENDBRANCH   1   8
DOCKED: BRANCH   3  18
DOCKED: ATOM     18  C   UNL     1      23.310 -17.630  -0.527 -0.76 -0.00    +0.000 C 
DOCKED: ATOM     19  C   UNL     1      22.512 -18.556  -1.080 -0.82 -0.00    +0.000 C 
DOCKED: BRANCH  19  20
DOCKED: ATOM     20  C   UNL     1      21.169 -18.886  -0.561 -0.86 -0.00    +0.000 C 
DOCKED: ATOM     21  N   UNL     1      20.896 -20.109   0.134 -0.63 -0.00    +0.000 N 
DOCKED: ATOM     22  O   UNL     1      20.243 -18.047  -0.716 -2.17 -0.00    +0.000 OA
DOCKED: ATOM     23  H   UNL     1      21.632 -20.726   0.352 -0.59 -0.00    +0.000 HD
DOCKED: BRANCH  21  24
DOCKED: ATOM     24  O   UNL     1      19.626 -20.420   0.491 -0.78 -0.00    +0.000 OA
DOCKED: ATOM     25  H   UNL     1      19.041 -19.675   0.282 -0.03 -0.00    +0.000 HD
DOCKED: ENDBRANCH  21  24
DOCKED: ENDBRANCH  19  20
DOCKED: ENDBRANCH   3  18
DOCKED: TORSDOF 6
DOCKED: TER
DOCKED: ENDMDL
________________________________________________________________________________


	BEGINNING GENETIC ALGORITHM DOCKING 92 of 100
Run: 92 Seed: 153401769 1695175110 [ Run 92 of 100 GA/GALS ]
Beginning LAMARCKIAN GENETIC ALGORITHM (LGA), with a maximum of 2500000 energy evaluations.

Final-Value: -15.645


	FINAL GENETIC ALGORITHM DOCKED STATE
	_______________________________________________


Detailed state:  trans 24.121 -17.641 -2.544 quatxyzw 0.167177 -0.738810 0.283953 -0.587863 center 0.293 0.181 0.279 ntor 6 3.3038 -56.3847 -76.4427 174.3306 -135.2332 -167.6155
State:	 24.121 -17.641  -2.544   0.207 -0.913  0.351 -107.989      3.30  -56.38  -76.44  174.33 -135.23 -167.62

DOCKED: MODEL       92
DOCKED: USER    Run = 92
DOCKED: USER    DPF = ligand_dock.biased.dpf
DOCKED: USER  
DOCKED: USER    Estimated Free Energy of Binding    =  -12.30 kcal/mol  [=(1)+(2)+(3)-(4)]
DOCKED: USER    Estimated Inhibition Constant, Ki   =  956.06 pM (picomolar)  [Temperature = 298.15 K]
DOCKED: USER    
DOCKED: USER    (1) Final Intermolecular Energy     =  -14.09 kcal/mol
DOCKED: USER        vdW + Hbond + desolv Energy     =  -14.09 kcal/mol
DOCKED: USER        Electrostatic Energy            =   +0.00 kcal/mol
DOCKED: USER    (2) Final Total Internal Energy     =   -1.55 kcal/mol
DOCKED: USER    (3) Torsional Free Energy           =   +1.79 kcal/mol
DOCKED: USER    (4) Unbound System's Energy  [=(2)] =   -1.55 kcal/mol
DOCKED: USER    
DOCKED: USER    
DOCKED: USER    NEWDPF move ligand.pdbqt
DOCKED: USER    NEWDPF about 0.293000 0.181000 0.279000
DOCKED: USER    NEWDPF tran0 24.120763 -17.640796 -2.544271
DOCKED: USER    NEWDPF quaternion0 0.167177 -0.738810 0.283953 -0.587863
DOCKED: USER    NEWDPF axisangle0 0.206656 -0.913283 0.351010 -107.989054
DOCKED: USER    NEWDPF quat0 0.206656 -0.913283 0.351010 -107.989054
DOCKED: USER    NEWDPF dihe0 3.30 -56.38 -76.44 174.33 -135.23 -167.62 
DOCKED: USER  keepresnum = 1 
DOCKED: USER  
DOCKED: REMARK  Name = 
DOCKED: REMARK  6 active torsions:
DOCKED: REMARK  status: ('A' for Active; 'I' for Inactive)
DOCKED: REMARK    1  A    between atoms: S_2  and  N_3
DOCKED: REMARK    2  A    between atoms: S_2  and  C_10
DOCKED: REMARK    3  A    between atoms: N_3  and  C_4
DOCKED: REMARK    4  A    between atoms: C_12  and  C_13
DOCKED: REMARK    5  A    between atoms: C_14  and  C_15
DOCKED: REMARK    6  A    between atoms: N_16  and  O_17
DOCKED: REMARK                            x       y       z     vdW  Elec       q    Type
DOCKED: REMARK                         _______ _______ _______ _____ _____    ______ ____
DOCKED: USER                              x       y       z     vdW  Elec       q    Type
DOCKED: USER                           _______ _______ _______ _____ _____    ______ ____
DOCKED: ROOT
DOCKED: ATOM      1  C   UNL     1      25.987 -16.096  -2.641 -0.45 -0.00    +0.000 A 
DOCKED: ATOM      2  C   UNL     1      24.806 -16.627  -2.104 -0.49 -0.00    +0.000 A 
DOCKED: ATOM      3  C   UNL     1      24.842 -17.453  -0.967 -0.62 -0.00    +0.000 A 
DOCKED: ATOM      4  C   UNL     1      26.085 -17.710  -0.353 -0.57 -0.00    +0.000 A 
DOCKED: ATOM      5  C   UNL     1      27.260 -17.171  -0.883 -0.42 -0.00    +0.000 A 
DOCKED: ATOM      6  C   UNL     1      27.214 -16.369  -2.025 -0.33 -0.00    +0.000 A 
DOCKED: ENDROOT
DOCKED: BRANCH   1   8
DOCKED: ATOM      7  O   UNL     1      24.700 -14.218  -4.073 -1.09 -0.00    +0.000 OA
DOCKED: ATOM      8  S   UNL     1      25.922 -15.093  -4.087 -0.73 -0.00    +0.000 S 
DOCKED: ATOM      9  O   UNL     1      25.871 -15.987  -5.293 -1.12 +0.00    +0.000 OA
DOCKED: BRANCH   8  10
DOCKED: ATOM     10  N   UNL     1      27.336 -14.089  -4.180 -0.27 -0.00    +0.000 N 
DOCKED: ATOM     11  H   UNL     1      27.516 -13.473  -3.433 +0.00 -0.00    +0.000 HD
DOCKED: BRANCH  10  12
DOCKED: ATOM     12  C   UNL     1      28.260 -14.103  -5.283 -0.27 -0.00    +0.000 A 
DOCKED: ATOM     13  C   UNL     1      29.087 -15.213  -5.550 -0.31 -0.00    +0.000 A 
DOCKED: ATOM     14  C   UNL     1      29.966 -15.193  -6.636 -0.29 -0.00    +0.000 A 
DOCKED: ATOM     15  C   UNL     1      30.035 -14.070  -7.464 -0.23 -0.00    +0.000 A 
DOCKED: ATOM     16  C   UNL     1      29.226 -12.961  -7.204 -0.22 -0.00    +0.000 A 
DOCKED: ATOM     17  C   UNL     1      28.345 -12.977  -6.119 -0.21 -0.00    +0.000 A 
DOCKED: ENDBRANCH  10  12
DOCKED: ENDBRANCH   8  10
DOCKED: ENDBRANCH   1   8
DOCKED: BRANCH   3  18
DOCKED: ATOM     18  C   UNL     1      23.563 -17.992  -0.441 -0.79 -0.00    +0.000 C 
DOCKED: ATOM     19  C   UNL     1      22.455 -18.134  -1.184 -0.68 -0.00    +0.000 C 
DOCKED: BRANCH  19  20
DOCKED: ATOM     20  C   UNL     1      21.184 -18.666  -0.653 -0.85 -0.00    +0.000 C 
DOCKED: ATOM     21  N   UNL     1      21.087 -19.966  -0.055 -0.63 -0.00    +0.000 N 
DOCKED: ATOM     22  O   UNL     1      20.159 -17.937  -0.708 -2.11 -0.00    +0.000 OA
DOCKED: ATOM     23  H   UNL     1      21.900 -20.503   0.087 -0.58 -0.00    +0.000 HD
DOCKED: BRANCH  21  24
DOCKED: ATOM     24  O   UNL     1      19.879 -20.457   0.313 -0.80 -0.00    +0.000 OA
DOCKED: ATOM     25  H   UNL     1      19.185 -19.830   0.058 -0.03 -0.00    +0.000 HD
DOCKED: ENDBRANCH  21  24
DOCKED: ENDBRANCH  19  20
DOCKED: ENDBRANCH   3  18
DOCKED: TORSDOF 6
DOCKED: TER
DOCKED: ENDMDL
________________________________________________________________________________


	BEGINNING GENETIC ALGORITHM DOCKING 93 of 100
Run: 93 Seed: 1765088762 1332888741 [ Run 93 of 100 GA/GALS ]
Beginning LAMARCKIAN GENETIC ALGORITHM (LGA), with a maximum of 2500000 energy evaluations.

Final-Value: -15.699


	FINAL GENETIC ALGORITHM DOCKED STATE
	_______________________________________________


Detailed state:  trans 23.702 -17.805 -2.704 quatxyzw -0.160081 0.780600 -0.248486 0.550721 center 0.293 0.181 0.279 ntor 6 12.0780 -75.0262 -60.2994 165.3454 -86.7733 -156.8214
State:	 23.702 -17.805  -2.704  -0.192  0.935 -0.298 113.167     12.08  -75.03  -60.30  165.35  -86.77 -156.82

DOCKED: MODEL       93
DOCKED: USER    Run = 93
DOCKED: USER    DPF = ligand_dock.biased.dpf
DOCKED: USER  
DOCKED: USER    Estimated Free Energy of Binding    =  -12.39 kcal/mol  [=(1)+(2)+(3)-(4)]
DOCKED: USER    Estimated Inhibition Constant, Ki   =  826.62 pM (picomolar)  [Temperature = 298.15 K]
DOCKED: USER    
DOCKED: USER    (1) Final Intermolecular Energy     =  -14.18 kcal/mol
DOCKED: USER        vdW + Hbond + desolv Energy     =  -14.18 kcal/mol
DOCKED: USER        Electrostatic Energy            =   +0.00 kcal/mol
DOCKED: USER    (2) Final Total Internal Energy     =   -1.52 kcal/mol
DOCKED: USER    (3) Torsional Free Energy           =   +1.79 kcal/mol
DOCKED: USER    (4) Unbound System's Energy  [=(2)] =   -1.52 kcal/mol
DOCKED: USER    
DOCKED: USER    
DOCKED: USER    NEWDPF move ligand.pdbqt
DOCKED: USER    NEWDPF about 0.293000 0.181000 0.279000
DOCKED: USER    NEWDPF tran0 23.701957 -17.805230 -2.703514
DOCKED: USER    NEWDPF quaternion0 -0.160081 0.780600 -0.248486 0.550721
DOCKED: USER    NEWDPF axisangle0 -0.191785 0.935197 -0.297699 113.167081
DOCKED: USER    NEWDPF quat0 -0.191785 0.935197 -0.297699 113.167081
DOCKED: USER    NEWDPF dihe0 12.08 -75.03 -60.30 165.35 -86.77 -156.82 
DOCKED: USER  keepresnum = 1 
DOCKED: USER  
DOCKED: REMARK  Name = 
DOCKED: REMARK  6 active torsions:
DOCKED: REMARK  status: ('A' for Active; 'I' for Inactive)
DOCKED: REMARK    1  A    between atoms: S_2  and  N_3
DOCKED: REMARK    2  A    between atoms: S_2  and  C_10
DOCKED: REMARK    3  A    between atoms: N_3  and  C_4
DOCKED: REMARK    4  A    between atoms: C_12  and  C_13
DOCKED: REMARK    5  A    between atoms: C_14  and  C_15
DOCKED: REMARK    6  A    between atoms: N_16  and  O_17
DOCKED: REMARK                            x       y       z     vdW  Elec       q    Type
DOCKED: REMARK                         _______ _______ _______ _____ _____    ______ ____
DOCKED: USER                              x       y       z     vdW  Elec       q    Type
DOCKED: USER                           _______ _______ _______ _____ _____    ______ ____
DOCKED: ROOT
DOCKED: ATOM      1  C   UNL     1      25.630 -16.351  -2.497 -0.49 -0.00    +0.000 A 
DOCKED: ATOM      2  C   UNL     1      24.382 -16.864  -2.119 -0.27 -0.00    +0.000 A 
DOCKED: ATOM      3  C   UNL     1      24.273 -17.776  -1.055 -0.68 -0.00    +0.000 A 
DOCKED: ATOM      4  C   UNL     1      25.438 -18.140  -0.350 -0.62 -0.00    +0.000 A 
DOCKED: ATOM      5  C   UNL     1      26.681 -17.620  -0.721 -0.50 -0.00    +0.000 A 
DOCKED: ATOM      6  C   UNL     1      26.779 -16.731  -1.793 -0.39 -0.00    +0.000 A 
DOCKED: ENDROOT
DOCKED: BRANCH   1   8
DOCKED: ATOM      7  O   UNL     1      24.721 -14.146  -3.739 -1.01 -0.00    +0.000 OA
DOCKED: ATOM      8  S   UNL     1      25.749 -15.236  -3.855 -0.72 -0.00    +0.000 S 
DOCKED: ATOM      9  O   UNL     1      25.513 -15.999  -5.127 -1.00 -0.00    +0.000 OA
DOCKED: BRANCH   8  10
DOCKED: ATOM     10  N   UNL     1      27.330 -14.520  -3.903 -0.29 -0.00    +0.000 N 
DOCKED: ATOM     11  H   UNL     1      27.582 -13.905  -3.176 +0.00 -0.00    +0.000 HD
DOCKED: BRANCH  10  12
DOCKED: ATOM     12  C   UNL     1      28.294 -14.770  -4.942 -0.30 -0.00    +0.000 A 
DOCKED: ATOM     13  C   UNL     1      29.185 -15.861  -4.886 -0.28 -0.00    +0.000 A 
DOCKED: ATOM     14  C   UNL     1      30.102 -16.077  -5.919 -0.28 -0.00    +0.000 A 
DOCKED: ATOM     15  C   UNL     1      30.146 -15.209  -7.012 -0.28 -0.00    +0.000 A 
DOCKED: ATOM     16  C   UNL     1      29.273 -14.119  -7.073 -0.31 -0.00    +0.000 A 
DOCKED: ATOM     17  C   UNL     1      28.354 -13.900  -6.043 -0.29 -0.00    +0.000 A 
DOCKED: ENDBRANCH  10  12
DOCKED: ENDBRANCH   8  10
DOCKED: ENDBRANCH   1   8
DOCKED: BRANCH   3  18
DOCKED: ATOM     18  C   UNL     1      22.928 -18.291  -0.698 -0.84 -0.00    +0.000 C 
DOCKED: ATOM     19  C   UNL     1      22.241 -19.163  -1.452 -0.67 -0.00    +0.000 C 
DOCKED: BRANCH  19  20
DOCKED: ATOM     20  C   UNL     1      20.900 -19.667  -1.094 -0.79 -0.00    +0.000 C 
DOCKED: ATOM     21  N   UNL     1      20.557 -20.046   0.246 -0.70 -0.00    +0.000 N 
DOCKED: ATOM     22  O   UNL     1      20.025 -19.740  -1.997 -1.88 -0.00    +0.000 OA
DOCKED: ATOM     23  H   UNL     1      21.197 -19.897   0.978 -0.49 -0.00    +0.000 HD
DOCKED: BRANCH  21  24
DOCKED: ATOM     24  O   UNL     1      19.352 -20.610   0.505 -0.78 -0.00    +0.000 OA
DOCKED: ATOM     25  H   UNL     1      18.927 -20.861  -0.329 -0.33 -0.00    +0.000 HD
DOCKED: ENDBRANCH  21  24
DOCKED: ENDBRANCH  19  20
DOCKED: ENDBRANCH   3  18
DOCKED: TORSDOF 6
DOCKED: TER
DOCKED: ENDMDL
________________________________________________________________________________


	BEGINNING GENETIC ALGORITHM DOCKING 94 of 100
Run: 94 Seed: 869755946 1381722182 [ Run 94 of 100 GA/GALS ]
Beginning LAMARCKIAN GENETIC ALGORITHM (LGA), with a maximum of 2500000 energy evaluations.

Final-Value: -15.441


	FINAL GENETIC ALGORITHM DOCKED STATE
	_______________________________________________


Detailed state:  trans 24.141 -17.762 -2.476 quatxyzw 0.174077 -0.737788 0.315829 -0.570629 center 0.293 0.181 0.279 ntor 6 -0.9372 -84.2137 -71.3968 122.1563 -140.9488 -154.0354
State:	 24.141 -17.762  -2.476   0.212 -0.898  0.385 -110.412     -0.94  -84.21  -71.40  122.16 -140.95 -154.04

DOCKED: MODEL       94
DOCKED: USER    Run = 94
DOCKED: USER    DPF = ligand_dock.biased.dpf
DOCKED: USER  
DOCKED: USER    Estimated Free Energy of Binding    =  -12.05 kcal/mol  [=(1)+(2)+(3)-(4)]
DOCKED: USER    Estimated Inhibition Constant, Ki   =    1.48 nM (nanomolar)  [Temperature = 298.15 K]
DOCKED: USER    
DOCKED: USER    (1) Final Intermolecular Energy     =  -13.84 kcal/mol
DOCKED: USER        vdW + Hbond + desolv Energy     =  -13.84 kcal/mol
DOCKED: USER        Electrostatic Energy            =   +0.00 kcal/mol
DOCKED: USER    (2) Final Total Internal Energy     =   -1.61 kcal/mol
DOCKED: USER    (3) Torsional Free Energy           =   +1.79 kcal/mol
DOCKED: USER    (4) Unbound System's Energy  [=(2)] =   -1.61 kcal/mol
DOCKED: USER    
DOCKED: USER    
DOCKED: USER    NEWDPF move ligand.pdbqt
DOCKED: USER    NEWDPF about 0.293000 0.181000 0.279000
DOCKED: USER    NEWDPF tran0 24.141438 -17.762376 -2.475581
DOCKED: USER    NEWDPF quaternion0 0.174077 -0.737788 0.315829 -0.570629
DOCKED: USER    NEWDPF axisangle0 0.211977 -0.898418 0.384591 -110.411778
DOCKED: USER    NEWDPF quat0 0.211977 -0.898418 0.384591 -110.411778
DOCKED: USER    NEWDPF dihe0 -0.94 -84.21 -71.40 122.16 -140.95 -154.04 
DOCKED: USER  keepresnum = 1 
DOCKED: USER  
DOCKED: REMARK  Name = 
DOCKED: REMARK  6 active torsions:
DOCKED: REMARK  status: ('A' for Active; 'I' for Inactive)
DOCKED: REMARK    1  A    between atoms: S_2  and  N_3
DOCKED: REMARK    2  A    between atoms: S_2  and  C_10
DOCKED: REMARK    3  A    between atoms: N_3  and  C_4
DOCKED: REMARK    4  A    between atoms: C_12  and  C_13
DOCKED: REMARK    5  A    between atoms: C_14  and  C_15
DOCKED: REMARK    6  A    between atoms: N_16  and  O_17
DOCKED: REMARK                            x       y       z     vdW  Elec       q    Type
DOCKED: REMARK                         _______ _______ _______ _____ _____    ______ ____
DOCKED: USER                              x       y       z     vdW  Elec       q    Type
DOCKED: USER                           _______ _______ _______ _____ _____    ______ ____
DOCKED: ROOT
DOCKED: ATOM      1  C   UNL     1      25.918 -16.116  -2.570 -0.46 -0.00    +0.000 A 
DOCKED: ATOM      2  C   UNL     1      24.754 -16.697  -2.050 -0.50 -0.00    +0.000 A 
DOCKED: ATOM      3  C   UNL     1      24.800 -17.481  -0.884 -0.63 -0.00    +0.000 A 
DOCKED: ATOM      4  C   UNL     1      26.036 -17.645  -0.225 -0.54 -0.00    +0.000 A 
DOCKED: ATOM      5  C   UNL     1      27.194 -17.056  -0.739 -0.43 -0.00    +0.000 A 
DOCKED: ATOM      6  C   UNL     1      27.138 -16.296  -1.909 -0.34 -0.00    +0.000 A 
DOCKED: ENDROOT
DOCKED: BRANCH   1   8
DOCKED: ATOM      7  O   UNL     1      24.759 -14.128  -3.962 -1.08 -0.00    +0.000 OA
DOCKED: ATOM      8  S   UNL     1      25.843 -15.166  -4.051 -0.74 -0.00    +0.000 S 
DOCKED: ATOM      9  O   UNL     1      25.546 -16.087  -5.200 -1.01 -0.00    +0.000 OA
DOCKED: BRANCH   8  10
DOCKED: ATOM     10  N   UNL     1      27.363 -14.375  -4.331 -0.31 -0.00    +0.000 N 
DOCKED: ATOM     11  H   UNL     1      27.399 -13.396  -4.235 +0.00 -0.00    +0.000 HD
DOCKED: BRANCH  10  12
DOCKED: ATOM     12  C   UNL     1      28.573 -15.065  -4.695 -0.28 -0.00    +0.000 A 
DOCKED: ATOM     13  C   UNL     1      29.535 -15.439  -3.736 -0.16 -0.00    +0.000 A 
DOCKED: ATOM     14  C   UNL     1      30.695 -16.115  -4.127 -0.13 -0.00    +0.000 A 
DOCKED: ATOM     15  C   UNL     1      30.909 -16.422  -5.472 -0.19 -0.00    +0.000 A 
DOCKED: ATOM     16  C   UNL     1      29.965 -16.048  -6.432 -0.31 -0.00    +0.000 A 
DOCKED: ATOM     17  C   UNL     1      28.804 -15.372  -6.046 -0.33 -0.00    +0.000 A 
DOCKED: ENDBRANCH  10  12
DOCKED: ENDBRANCH   8  10
DOCKED: ENDBRANCH   1   8
DOCKED: BRANCH   3  18
DOCKED: ATOM     18  C   UNL     1      23.538 -18.076  -0.379 -0.79 -0.00    +0.000 C 
DOCKED: ATOM     19  C   UNL     1      22.428 -18.205  -1.121 -0.75 -0.00    +0.000 C 
DOCKED: BRANCH  19  20
DOCKED: ATOM     20  C   UNL     1      21.173 -18.794  -0.610 -0.85 -0.00    +0.000 C 
DOCKED: ATOM     21  N   UNL     1      21.131 -20.083   0.016 -0.57 -0.00    +0.000 N 
DOCKED: ATOM     22  O   UNL     1      20.112 -18.123  -0.709 -2.06 -0.00    +0.000 OA
DOCKED: ATOM     23  H   UNL     1      21.967 -20.571   0.192 -0.58 -0.00    +0.000 HD
DOCKED: BRANCH  21  24
DOCKED: ATOM     24  O   UNL     1      19.942 -20.630   0.366 -0.78 -0.00    +0.000 OA
DOCKED: ATOM     25  H   UNL     1      19.225 -20.018   0.138 -0.03 -0.00    +0.000 HD
DOCKED: ENDBRANCH  21  24
DOCKED: ENDBRANCH  19  20
DOCKED: ENDBRANCH   3  18
DOCKED: TORSDOF 6
DOCKED: TER
DOCKED: ENDMDL
________________________________________________________________________________


	BEGINNING GENETIC ALGORITHM DOCKING 95 of 100
Run: 95 Seed: 1256302730 1632025800 [ Run 95 of 100 GA/GALS ]
Beginning LAMARCKIAN GENETIC ALGORITHM (LGA), with a maximum of 2500000 energy evaluations.

Final-Value: -14.674


	FINAL GENETIC ALGORITHM DOCKED STATE
	_______________________________________________


Detailed state:  trans 24.901 -16.344 -2.452 quatxyzw 0.280713 -0.890676 -0.054589 -0.353435 center 0.293 0.181 0.279 ntor 6 -5.1681 49.3161 46.1684 115.8596 94.5479 128.1849
State:	 24.901 -16.344  -2.452   0.300 -0.952 -0.058 -138.605     -5.17   49.32   46.17  115.86   94.55  128.18

DOCKED: MODEL       95
DOCKED: USER    Run = 95
DOCKED: USER    DPF = ligand_dock.biased.dpf
DOCKED: USER  
DOCKED: USER    Estimated Free Energy of Binding    =  -11.22 kcal/mol  [=(1)+(2)+(3)-(4)]
DOCKED: USER    Estimated Inhibition Constant, Ki   =    5.99 nM (nanomolar)  [Temperature = 298.15 K]
DOCKED: USER    
DOCKED: USER    (1) Final Intermolecular Energy     =  -13.01 kcal/mol
DOCKED: USER        vdW + Hbond + desolv Energy     =  -13.01 kcal/mol
DOCKED: USER        Electrostatic Energy            =   +0.00 kcal/mol
DOCKED: USER    (2) Final Total Internal Energy     =   -1.67 kcal/mol
DOCKED: USER    (3) Torsional Free Energy           =   +1.79 kcal/mol
DOCKED: USER    (4) Unbound System's Energy  [=(2)] =   -1.67 kcal/mol
DOCKED: USER    
DOCKED: USER    
DOCKED: USER    NEWDPF move ligand.pdbqt
DOCKED: USER    NEWDPF about 0.293000 0.181000 0.279000
DOCKED: USER    NEWDPF tran0 24.900920 -16.344448 -2.452193
DOCKED: USER    NEWDPF quaternion0 0.280713 -0.890676 -0.054589 -0.353435
DOCKED: USER    NEWDPF axisangle0 0.300081 -0.952127 -0.058356 -138.604820
DOCKED: USER    NEWDPF quat0 0.300081 -0.952127 -0.058356 -138.604820
DOCKED: USER    NEWDPF dihe0 -5.17 49.32 46.17 115.86 94.55 128.18 
DOCKED: USER  keepresnum = 1 
DOCKED: USER  
DOCKED: REMARK  Name = 
DOCKED: REMARK  6 active torsions:
DOCKED: REMARK  status: ('A' for Active; 'I' for Inactive)
DOCKED: REMARK    1  A    between atoms: S_2  and  N_3
DOCKED: REMARK    2  A    between atoms: S_2  and  C_10
DOCKED: REMARK    3  A    between atoms: N_3  and  C_4
DOCKED: REMARK    4  A    between atoms: C_12  and  C_13
DOCKED: REMARK    5  A    between atoms: C_14  and  C_15
DOCKED: REMARK    6  A    between atoms: N_16  and  O_17
DOCKED: REMARK                            x       y       z     vdW  Elec       q    Type
DOCKED: REMARK                         _______ _______ _______ _____ _____    ______ ____
DOCKED: USER                              x       y       z     vdW  Elec       q    Type
DOCKED: USER                           _______ _______ _______ _____ _____    ______ ____
DOCKED: ROOT
DOCKED: ATOM      1  C   UNL     1      26.661 -15.748  -0.895 -0.36 -0.00    +0.000 A 
DOCKED: ATOM      2  C   UNL     1      25.368 -16.155  -1.253 -0.48 -0.00    +0.000 A 
DOCKED: ATOM      3  C   UNL     1      24.985 -17.504  -1.151 -0.62 -0.00    +0.000 A 
DOCKED: ATOM      4  C   UNL     1      25.914 -18.437  -0.646 -0.51 -0.00    +0.000 A 
DOCKED: ATOM      5  C   UNL     1      27.199 -18.028  -0.279 -0.28 -0.00    +0.000 A 
DOCKED: ATOM      6  C   UNL     1      27.574 -16.690  -0.405 -0.36 -0.00    +0.000 A 
DOCKED: ENDROOT
DOCKED: BRANCH   1   8
DOCKED: ATOM      7  O   UNL     1      26.332 -13.392  -2.149 -0.21 -0.00    +0.000 OA
DOCKED: ATOM      8  S   UNL     1      27.131 -14.060  -1.065 -0.31 -0.00    +0.000 S 
DOCKED: ATOM      9  O   UNL     1      28.589 -13.999  -1.422 -0.11 -0.00    +0.000 OA
DOCKED: BRANCH   8  10
DOCKED: ATOM     10  N   UNL     1      26.873 -13.215   0.430 -0.26 -0.00    +0.000 N 
DOCKED: ATOM     11  H   UNL     1      26.217 -12.481   0.439 -0.01 -0.00    +0.000 HD
DOCKED: BRANCH  10  12
DOCKED: ATOM     12  C   UNL     1      27.561 -13.523   1.656 -0.26 -0.00    +0.000 A 
DOCKED: ATOM     13  C   UNL     1      28.918 -13.901   1.675 -0.18 -0.00    +0.000 A 
DOCKED: ATOM     14  C   UNL     1      29.555 -14.185   2.887 -0.20 -0.00    +0.000 A 
DOCKED: ATOM     15  C   UNL     1      28.848 -14.101   4.088 -0.39 -0.00    +0.000 A 
DOCKED: ATOM     16  C   UNL     1      27.500 -13.735   4.080 -0.47 -0.00    +0.000 A 
DOCKED: ATOM     17  C   UNL     1      26.859 -13.450   2.871 -0.23 -0.00    +0.000 A 
DOCKED: ENDBRANCH  10  12
DOCKED: ENDBRANCH   8  10
DOCKED: ENDBRANCH   1   8
DOCKED: BRANCH   3  18
DOCKED: ATOM     18  C   UNL     1      23.606 -17.881  -1.547 -0.69 -0.00    +0.000 C 
DOCKED: ATOM     19  C   UNL     1      22.644 -18.208  -0.672 -0.84 -0.00    +0.000 C 
DOCKED: BRANCH  19  20
DOCKED: ATOM     20  C   UNL     1      21.274 -18.588  -1.074 -0.79 -0.00    +0.000 C 
DOCKED: ATOM     21  N   UNL     1      21.000 -19.769  -1.838 -0.61 -0.00    +0.000 N 
DOCKED: ATOM     22  O   UNL     1      20.317 -17.857  -0.707 -2.22 -0.00    +0.000 OA
DOCKED: ATOM     23  H   UNL     1      21.726 -20.402  -2.042 -0.49 -0.00    +0.000 HD
DOCKED: BRANCH  21  24
DOCKED: ATOM     24  O   UNL     1      19.743 -20.016  -2.281 -1.62 -0.00    +0.000 OA
DOCKED: ATOM     25  H   UNL     1      19.139 -19.345  -1.928 -0.52 -0.00    +0.000 HD
DOCKED: ENDBRANCH  21  24
DOCKED: ENDBRANCH  19  20
DOCKED: ENDBRANCH   3  18
DOCKED: TORSDOF 6
DOCKED: TER
DOCKED: ENDMDL
________________________________________________________________________________


	BEGINNING GENETIC ALGORITHM DOCKING 96 of 100
Run: 96 Seed: 967588948 1900843723 [ Run 96 of 100 GA/GALS ]
Beginning LAMARCKIAN GENETIC ALGORITHM (LGA), with a maximum of 2500000 energy evaluations.

Final-Value: -15.520


	FINAL GENETIC ALGORITHM DOCKED STATE
	_______________________________________________


Detailed state:  trans 23.921 -17.314 -2.721 quatxyzw -0.074893 0.785415 -0.221294 0.573187 center 0.293 0.181 0.279 ntor 6 2.6240 -70.9603 -157.8831 149.5598 -45.8676 -153.2236
State:	 23.921 -17.314  -2.721  -0.091  0.958 -0.270 110.054      2.62  -70.96 -157.88  149.56  -45.87 -153.22

DOCKED: MODEL       96
DOCKED: USER    Run = 96
DOCKED: USER    DPF = ligand_dock.biased.dpf
DOCKED: USER  
DOCKED: USER    Estimated Free Energy of Binding    =  -12.17 kcal/mol  [=(1)+(2)+(3)-(4)]
DOCKED: USER    Estimated Inhibition Constant, Ki   =    1.20 nM (nanomolar)  [Temperature = 298.15 K]
DOCKED: USER    
DOCKED: USER    (1) Final Intermolecular Energy     =  -13.96 kcal/mol
DOCKED: USER        vdW + Hbond + desolv Energy     =  -13.96 kcal/mol
DOCKED: USER        Electrostatic Energy            =   +0.00 kcal/mol
DOCKED: USER    (2) Final Total Internal Energy     =   -1.56 kcal/mol
DOCKED: USER    (3) Torsional Free Energy           =   +1.79 kcal/mol
DOCKED: USER    (4) Unbound System's Energy  [=(2)] =   -1.56 kcal/mol
DOCKED: USER    
DOCKED: USER    
DOCKED: USER    NEWDPF move ligand.pdbqt
DOCKED: USER    NEWDPF about 0.293000 0.181000 0.279000
DOCKED: USER    NEWDPF tran0 23.920520 -17.314208 -2.720831
DOCKED: USER    NEWDPF quaternion0 -0.074893 0.785415 -0.221294 0.573187
DOCKED: USER    NEWDPF axisangle0 -0.091398 0.958496 -0.270061 110.054426
DOCKED: USER    NEWDPF quat0 -0.091398 0.958496 -0.270061 110.054426
DOCKED: USER    NEWDPF dihe0 2.62 -70.96 -157.88 149.56 -45.87 -153.22 
DOCKED: USER  keepresnum = 1 
DOCKED: USER  
DOCKED: REMARK  Name = 
DOCKED: REMARK  6 active torsions:
DOCKED: REMARK  status: ('A' for Active; 'I' for Inactive)
DOCKED: REMARK    1  A    between atoms: S_2  and  N_3
DOCKED: REMARK    2  A    between atoms: S_2  and  C_10
DOCKED: REMARK    3  A    between atoms: N_3  and  C_4
DOCKED: REMARK    4  A    between atoms: C_12  and  C_13
DOCKED: REMARK    5  A    between atoms: C_14  and  C_15
DOCKED: REMARK    6  A    between atoms: N_16  and  O_17
DOCKED: REMARK                            x       y       z     vdW  Elec       q    Type
DOCKED: REMARK                         _______ _______ _______ _____ _____    ______ ____
DOCKED: USER                              x       y       z     vdW  Elec       q    Type
DOCKED: USER                           _______ _______ _______ _____ _____    ______ ____
DOCKED: ROOT
DOCKED: ATOM      1  C   UNL     1      26.074 -16.210  -2.578 -0.43 -0.00    +0.000 A 
DOCKED: ATOM      2  C   UNL     1      24.756 -16.475  -2.183 -0.46 -0.00    +0.000 A 
DOCKED: ATOM      3  C   UNL     1      24.490 -17.293  -1.071 -0.63 -0.00    +0.000 A 
DOCKED: ATOM      4  C   UNL     1      25.574 -17.815  -0.337 -0.60 -0.00    +0.000 A 
DOCKED: ATOM      5  C   UNL     1      26.888 -17.541  -0.726 -0.48 -0.00    +0.000 A 
DOCKED: ATOM      6  C   UNL     1      27.139 -16.744  -1.844 -0.36 -0.00    +0.000 A 
DOCKED: ENDROOT
DOCKED: BRANCH   1   8
DOCKED: ATOM      7  O   UNL     1      25.630 -13.915  -3.907 -0.57 -0.00    +0.000 OA
DOCKED: ATOM      8  S   UNL     1      26.384 -15.211  -3.995 -0.66 -0.00    +0.000 S 
DOCKED: ATOM      9  O   UNL     1      25.935 -15.957  -5.219 -1.12 +0.00    +0.000 OA
DOCKED: BRANCH   8  10
DOCKED: ATOM     10  N   UNL     1      28.082 -14.871  -4.125 -0.26 -0.00    +0.000 N 
DOCKED: ATOM     11  H   UNL     1      28.446 -14.124  -3.596 +0.01 -0.00    +0.000 HD
DOCKED: BRANCH  10  12
DOCKED: ATOM     12  C   UNL     1      28.989 -15.614  -4.960 -0.29 -0.00    +0.000 A 
DOCKED: ATOM     13  C   UNL     1      29.561 -16.831  -4.540 -0.22 -0.00    +0.000 A 
DOCKED: ATOM     14  C   UNL     1      30.432 -17.529  -5.382 -0.28 -0.00    +0.000 A 
DOCKED: ATOM     15  C   UNL     1      30.745 -17.022  -6.645 -0.30 -0.00    +0.000 A 
DOCKED: ATOM     16  C   UNL     1      30.190 -15.812  -7.068 -0.26 -0.00    +0.000 A 
DOCKED: ATOM     17  C   UNL     1      29.318 -15.110  -6.229 -0.33 -0.00    +0.000 A 
DOCKED: ENDBRANCH  10  12
DOCKED: ENDBRANCH   8  10
DOCKED: ENDBRANCH   1   8
DOCKED: BRANCH   3  18
DOCKED: ATOM     18  C   UNL     1      23.075 -17.544  -0.699 -0.78 -0.00    +0.000 C 
DOCKED: ATOM     19  C   UNL     1      22.482 -18.743  -0.795 -0.84 -0.00    +0.000 C 
DOCKED: BRANCH  19  20
DOCKED: ATOM     20  C   UNL     1      21.073 -18.985  -0.428 -0.86 -0.00    +0.000 C 
DOCKED: ATOM     21  N   UNL     1      20.654 -20.167   0.268 -0.67 -0.00    +0.000 N 
DOCKED: ATOM     22  O   UNL     1      20.218 -18.106  -0.716 -2.15 -0.00    +0.000 OA
DOCKED: ATOM     23  H   UNL     1      21.325 -20.811   0.590 -0.60 -0.00    +0.000 HD
DOCKED: BRANCH  21  24
DOCKED: ATOM     24  O   UNL     1      19.336 -20.398   0.483 -0.79 -0.00    +0.000 OA
DOCKED: ATOM     25  H   UNL     1      18.813 -19.694   0.070 -0.05 -0.00    +0.000 HD
DOCKED: ENDBRANCH  21  24
DOCKED: ENDBRANCH  19  20
DOCKED: ENDBRANCH   3  18
DOCKED: TORSDOF 6
DOCKED: TER
DOCKED: ENDMDL
________________________________________________________________________________


	BEGINNING GENETIC ALGORITHM DOCKING 97 of 100
Run: 97 Seed: 703457025 960222370 [ Run 97 of 100 GA/GALS ]
Beginning LAMARCKIAN GENETIC ALGORITHM (LGA), with a maximum of 2500000 energy evaluations.

Final-Value: -14.434


	FINAL GENETIC ALGORITHM DOCKED STATE
	_______________________________________________


Detailed state:  trans 24.662 -14.749 -0.857 quatxyzw 0.448105 -0.620762 -0.511854 -0.389694 center 0.293 0.181 0.279 ntor 6 -175.9178 33.0762 133.2933 -111.1659 80.4863 124.3372
State:	 24.662 -14.749  -0.857   0.487 -0.674 -0.556 -134.129   -175.92   33.08  133.29 -111.17   80.49  124.34

DOCKED: MODEL       97
DOCKED: USER    Run = 97
DOCKED: USER    DPF = ligand_dock.biased.dpf
DOCKED: USER  
DOCKED: USER    Estimated Free Energy of Binding    =  -11.76 kcal/mol  [=(1)+(2)+(3)-(4)]
DOCKED: USER    Estimated Inhibition Constant, Ki   =    2.40 nM (nanomolar)  [Temperature = 298.15 K]
DOCKED: USER    
DOCKED: USER    (1) Final Intermolecular Energy     =  -13.55 kcal/mol
DOCKED: USER        vdW + Hbond + desolv Energy     =  -13.55 kcal/mol
DOCKED: USER        Electrostatic Energy            =   +0.00 kcal/mol
DOCKED: USER    (2) Final Total Internal Energy     =   -0.89 kcal/mol
DOCKED: USER    (3) Torsional Free Energy           =   +1.79 kcal/mol
DOCKED: USER    (4) Unbound System's Energy  [=(2)] =   -0.89 kcal/mol
DOCKED: USER    
DOCKED: USER    
DOCKED: USER    NEWDPF move ligand.pdbqt
DOCKED: USER    NEWDPF about 0.293000 0.181000 0.279000
DOCKED: USER    NEWDPF tran0 24.662416 -14.748531 -0.856640
DOCKED: USER    NEWDPF quaternion0 0.448105 -0.620762 -0.511854 -0.389694
DOCKED: USER    NEWDPF axisangle0 0.486571 -0.674050 -0.555793 -134.129051
DOCKED: USER    NEWDPF quat0 0.486571 -0.674050 -0.555793 -134.129051
DOCKED: USER    NEWDPF dihe0 -175.92 33.08 133.29 -111.17 80.49 124.34 
DOCKED: USER  keepresnum = 1 
DOCKED: USER  
DOCKED: REMARK  Name = 
DOCKED: REMARK  6 active torsions:
DOCKED: REMARK  status: ('A' for Active; 'I' for Inactive)
DOCKED: REMARK    1  A    between atoms: S_2  and  N_3
DOCKED: REMARK    2  A    between atoms: S_2  and  C_10
DOCKED: REMARK    3  A    between atoms: N_3  and  C_4
DOCKED: REMARK    4  A    between atoms: C_12  and  C_13
DOCKED: REMARK    5  A    between atoms: C_14  and  C_15
DOCKED: REMARK    6  A    between atoms: N_16  and  O_17
DOCKED: REMARK                            x       y       z     vdW  Elec       q    Type
DOCKED: REMARK                         _______ _______ _______ _____ _____    ______ ____
DOCKED: USER                              x       y       z     vdW  Elec       q    Type
DOCKED: USER                           _______ _______ _______ _____ _____    ______ ____
DOCKED: ROOT
DOCKED: ATOM      1  C   UNL     1      27.010 -15.007  -0.312 -0.29 -0.00    +0.000 A 
DOCKED: ATOM      2  C   UNL     1      25.666 -15.399  -0.345 -0.06 -0.00    +0.000 A 
DOCKED: ATOM      3  C   UNL     1      25.217 -16.348  -1.281 -0.51 -0.00    +0.000 A 
DOCKED: ATOM      4  C   UNL     1      26.151 -16.926  -2.164 -0.34 -0.00    +0.000 A 
DOCKED: ATOM      5  C   UNL     1      27.494 -16.542  -2.123 -0.30 -0.00    +0.000 A 
DOCKED: ATOM      6  C   UNL     1      27.924 -15.584  -1.203 -0.24 -0.00    +0.000 A 
DOCKED: ENDROOT
DOCKED: BRANCH   1   8
DOCKED: ATOM      7  O   UNL     1      26.440 -12.816   1.138 -0.38 -0.00    +0.000 OA
DOCKED: ATOM      8  S   UNL     1      27.545 -13.792   0.844 -0.33 -0.00    +0.000 S 
DOCKED: ATOM      9  O   UNL     1      28.712 -13.048   0.258 -0.10 -0.00    +0.000 OA
DOCKED: BRANCH   8  10
DOCKED: ATOM     10  N   UNL     1      28.038 -14.552   2.325 -0.29 -0.00    +0.000 N 
DOCKED: ATOM     11  H   UNL     1      28.211 -15.522   2.312 -1.23 -0.00    +0.000 HD
DOCKED: BRANCH  10  12
DOCKED: ATOM     12  C   UNL     1      28.207 -13.851   3.570 -0.37 -0.00    +0.000 A 
DOCKED: ATOM     13  C   UNL     1      27.585 -12.612   3.819 -0.29 -0.00    +0.000 A 
DOCKED: ATOM     14  C   UNL     1      27.767 -11.964   5.045 -0.35 +0.00    +0.000 A 
DOCKED: ATOM     15  C   UNL     1      28.571 -12.540   6.031 -0.37 -0.00    +0.000 A 
DOCKED: ATOM     16  C   UNL     1      29.199 -13.765   5.792 -0.35 -0.00    +0.000 A 
DOCKED: ATOM     17  C   UNL     1      29.020 -14.416   4.568 -0.42 -0.00    +0.000 A 
DOCKED: ENDBRANCH  10  12
DOCKED: ENDBRANCH   8  10
DOCKED: ENDBRANCH   1   8
DOCKED: BRANCH   3  18
DOCKED: ATOM     18  C   UNL     1      23.781 -16.725  -1.275 -0.50 -0.00    +0.000 C 
DOCKED: ATOM     19  C   UNL     1      23.342 -17.978  -1.085 -0.79 -0.00    +0.000 C 
DOCKED: BRANCH  19  20
DOCKED: ATOM     20  C   UNL     1      21.912 -18.347  -1.085 -0.76 -0.00    +0.000 C 
DOCKED: ATOM     21  N   UNL     1      21.457 -19.651  -1.472 -0.60 -0.00    +0.000 N 
DOCKED: ATOM     22  O   UNL     1      21.071 -17.489  -0.707 -2.02 -0.00    +0.000 OA
DOCKED: ATOM     23  H   UNL     1      22.110 -20.360  -1.670 -0.36 -0.00    +0.000 HD
DOCKED: BRANCH  21  24
DOCKED: ATOM     24  O   UNL     1      20.130 -19.907  -1.566 -1.69 -0.00    +0.000 OA
DOCKED: ATOM     25  H   UNL     1      19.996 -20.845  -1.774 -0.59 -0.00    +0.000 HD
DOCKED: ENDBRANCH  21  24
DOCKED: ENDBRANCH  19  20
DOCKED: ENDBRANCH   3  18
DOCKED: TORSDOF 6
DOCKED: TER
DOCKED: ENDMDL
________________________________________________________________________________


	BEGINNING GENETIC ALGORITHM DOCKING 98 of 100
Run: 98 Seed: 72731718 795921551 [ Run 98 of 100 GA/GALS ]
Beginning LAMARCKIAN GENETIC ALGORITHM (LGA), with a maximum of 2500000 energy evaluations.

Final-Value: -15.712


	FINAL GENETIC ALGORITHM DOCKED STATE
	_______________________________________________


Detailed state:  trans 24.069 -17.697 -2.536 quatxyzw -0.172257 0.740395 -0.267652 0.592035 center 0.293 0.181 0.279 ntor 6 2.6478 119.2428 -70.0378 167.9912 -137.9751 -165.0778
State:	 24.069 -17.697  -2.536  -0.214  0.919 -0.332 107.397      2.65  119.24  -70.04  167.99 -137.98 -165.08

DOCKED: MODEL       98
DOCKED: USER    Run = 98
DOCKED: USER    DPF = ligand_dock.biased.dpf
DOCKED: USER  
DOCKED: USER    Estimated Free Energy of Binding    =  -12.35 kcal/mol  [=(1)+(2)+(3)-(4)]
DOCKED: USER    Estimated Inhibition Constant, Ki   =  880.97 pM (picomolar)  [Temperature = 298.15 K]
DOCKED: USER    
DOCKED: USER    (1) Final Intermolecular Energy     =  -14.14 kcal/mol
DOCKED: USER        vdW + Hbond + desolv Energy     =  -14.14 kcal/mol
DOCKED: USER        Electrostatic Energy            =   +0.00 kcal/mol
DOCKED: USER    (2) Final Total Internal Energy     =   -1.57 kcal/mol
DOCKED: USER    (3) Torsional Free Energy           =   +1.79 kcal/mol
DOCKED: USER    (4) Unbound System's Energy  [=(2)] =   -1.57 kcal/mol
DOCKED: USER    
DOCKED: USER    
DOCKED: USER    NEWDPF move ligand.pdbqt
DOCKED: USER    NEWDPF about 0.293000 0.181000 0.279000
DOCKED: USER    NEWDPF tran0 24.068773 -17.697116 -2.536203
DOCKED: USER    NEWDPF quaternion0 -0.172257 0.740395 -0.267652 0.592035
DOCKED: USER    NEWDPF axisangle0 -0.213742 0.918704 -0.332111 107.396892
DOCKED: USER    NEWDPF quat0 -0.213742 0.918704 -0.332111 107.396892
DOCKED: USER    NEWDPF dihe0 2.65 119.24 -70.04 167.99 -137.98 -165.08 
DOCKED: USER  keepresnum = 1 
DOCKED: USER  
DOCKED: REMARK  Name = 
DOCKED: REMARK  6 active torsions:
DOCKED: REMARK  status: ('A' for Active; 'I' for Inactive)
DOCKED: REMARK    1  A    between atoms: S_2  and  N_3
DOCKED: REMARK    2  A    between atoms: S_2  and  C_10
DOCKED: REMARK    3  A    between atoms: N_3  and  C_4
DOCKED: REMARK    4  A    between atoms: C_12  and  C_13
DOCKED: REMARK    5  A    between atoms: C_14  and  C_15
DOCKED: REMARK    6  A    between atoms: N_16  and  O_17
DOCKED: REMARK                            x       y       z     vdW  Elec       q    Type
DOCKED: REMARK                         _______ _______ _______ _____ _____    ______ ____
DOCKED: USER                              x       y       z     vdW  Elec       q    Type
DOCKED: USER                           _______ _______ _______ _____ _____    ______ ____
DOCKED: ROOT
DOCKED: ATOM      1  C   UNL     1      25.956 -16.177  -2.611 -0.45 -0.00    +0.000 A 
DOCKED: ATOM      2  C   UNL     1      24.775 -16.707  -2.075 -0.50 -0.00    +0.000 A 
DOCKED: ATOM      3  C   UNL     1      24.813 -17.566  -0.963 -0.63 -0.00    +0.000 A 
DOCKED: ATOM      4  C   UNL     1      26.059 -17.859  -0.373 -0.58 -0.00    +0.000 A 
DOCKED: ATOM      5  C   UNL     1      27.235 -17.321  -0.903 -0.42 -0.00    +0.000 A 
DOCKED: ATOM      6  C   UNL     1      27.186 -16.486  -2.020 -0.33 -0.00    +0.000 A 
DOCKED: ENDROOT
DOCKED: BRANCH   1   8
DOCKED: ATOM      7  O   UNL     1      24.714 -14.197  -3.941 -1.06 -0.00    +0.000 OA
DOCKED: ATOM      8  S   UNL     1      25.888 -15.131  -4.026 -0.73 -0.00    +0.000 S 
DOCKED: ATOM      9  O   UNL     1      25.746 -15.986  -5.253 -1.10 +0.00    +0.000 OA
DOCKED: BRANCH   8  10
DOCKED: ATOM     10  N   UNL     1      27.347 -14.196  -4.147 -0.28 -0.00    +0.000 N 
DOCKED: ATOM     11  H   UNL     1      27.537 -13.542  -3.437 +0.00 -0.00    +0.000 HD
DOCKED: BRANCH  10  12
DOCKED: ATOM     12  C   UNL     1      28.294 -14.321  -5.224 -0.29 -0.00    +0.000 A 
DOCKED: ATOM     13  C   UNL     1      28.428 -13.330  -6.217 -0.24 -0.00    +0.000 A 
DOCKED: ATOM     14  C   UNL     1      29.365 -13.482  -7.244 -0.25 -0.00    +0.000 A 
DOCKED: ATOM     15  C   UNL     1      30.171 -14.621  -7.296 -0.24 -0.00    +0.000 A 
DOCKED: ATOM     16  C   UNL     1      30.041 -15.613  -6.321 -0.30 -0.00    +0.000 A 
DOCKED: ATOM     17  C   UNL     1      29.106 -15.465  -5.292 -0.30 -0.00    +0.000 A 
DOCKED: ENDBRANCH  10  12
DOCKED: ENDBRANCH   8  10
DOCKED: ENDBRANCH   1   8
DOCKED: BRANCH   3  18
DOCKED: ATOM     18  C   UNL     1      23.533 -18.102  -0.437 -0.80 -0.00    +0.000 C 
DOCKED: ATOM     19  C   UNL     1      22.399 -18.157  -1.154 -0.70 -0.00    +0.000 C 
DOCKED: BRANCH  19  20
DOCKED: ATOM     20  C   UNL     1      21.127 -18.687  -0.622 -0.84 -0.00    +0.000 C 
DOCKED: ATOM     21  N   UNL     1      21.036 -19.972   0.007 -0.65 -0.00    +0.000 N 
DOCKED: ATOM     22  O   UNL     1      20.096 -17.969  -0.706 -2.05 -0.00    +0.000 OA
DOCKED: ATOM     23  H   UNL     1      21.852 -20.498   0.171 -0.59 -0.00    +0.000 HD
DOCKED: BRANCH  21  24
DOCKED: ATOM     24  O   UNL     1      19.828 -20.464   0.376 -0.79 -0.00    +0.000 OA
DOCKED: ATOM     25  H   UNL     1      19.132 -19.846   0.107 -0.03 -0.00    +0.000 HD
DOCKED: ENDBRANCH  21  24
DOCKED: ENDBRANCH  19  20
DOCKED: ENDBRANCH   3  18
DOCKED: TORSDOF 6
DOCKED: TER
DOCKED: ENDMDL
________________________________________________________________________________


	BEGINNING GENETIC ALGORITHM DOCKING 99 of 100
Run: 99 Seed: 1352978290 1969095220 [ Run 99 of 100 GA/GALS ]
Beginning LAMARCKIAN GENETIC ALGORITHM (LGA), with a maximum of 2500000 energy evaluations.

Final-Value: -15.872


	FINAL GENETIC ALGORITHM DOCKED STATE
	_______________________________________________


Detailed state:  trans 23.999 -17.685 -2.480 quatxyzw -0.164322 0.739011 -0.279861 0.590371 center 0.293 0.181 0.279 ntor 6 -8.5209 124.8943 -81.6397 146.2845 -126.7549 -157.4650
State:	 23.999 -17.685  -2.480  -0.204  0.916 -0.347 107.633     -8.52  124.89  -81.64  146.28 -126.75 -157.46

DOCKED: MODEL       99
DOCKED: USER    Run = 99
DOCKED: USER    DPF = ligand_dock.biased.dpf
DOCKED: USER  
DOCKED: USER    Estimated Free Energy of Binding    =  -12.47 kcal/mol  [=(1)+(2)+(3)-(4)]
DOCKED: USER    Estimated Inhibition Constant, Ki   =  719.41 pM (picomolar)  [Temperature = 298.15 K]
DOCKED: USER    
DOCKED: USER    (1) Final Intermolecular Energy     =  -14.26 kcal/mol
DOCKED: USER        vdW + Hbond + desolv Energy     =  -14.26 kcal/mol
DOCKED: USER        Electrostatic Energy            =   +0.00 kcal/mol
DOCKED: USER    (2) Final Total Internal Energy     =   -1.61 kcal/mol
DOCKED: USER    (3) Torsional Free Energy           =   +1.79 kcal/mol
DOCKED: USER    (4) Unbound System's Energy  [=(2)] =   -1.61 kcal/mol
DOCKED: USER    
DOCKED: USER    
DOCKED: USER    NEWDPF move ligand.pdbqt
DOCKED: USER    NEWDPF about 0.293000 0.181000 0.279000
DOCKED: USER    NEWDPF tran0 23.998862 -17.684602 -2.479543
DOCKED: USER    NEWDPF quaternion0 -0.164322 0.739011 -0.279861 0.590371
DOCKED: USER    NEWDPF axisangle0 -0.203587 0.915602 -0.346735 107.633261
DOCKED: USER    NEWDPF quat0 -0.203587 0.915602 -0.346735 107.633261
DOCKED: USER    NEWDPF dihe0 -8.52 124.89 -81.64 146.28 -126.75 -157.46 
DOCKED: USER  keepresnum = 1 
DOCKED: USER  
DOCKED: REMARK  Name = 
DOCKED: REMARK  6 active torsions:
DOCKED: REMARK  status: ('A' for Active; 'I' for Inactive)
DOCKED: REMARK    1  A    between atoms: S_2  and  N_3
DOCKED: REMARK    2  A    between atoms: S_2  and  C_10
DOCKED: REMARK    3  A    between atoms: N_3  and  C_4
DOCKED: REMARK    4  A    between atoms: C_12  and  C_13
DOCKED: REMARK    5  A    between atoms: C_14  and  C_15
DOCKED: REMARK    6  A    between atoms: N_16  and  O_17
DOCKED: REMARK                            x       y       z     vdW  Elec       q    Type
DOCKED: REMARK                         _______ _______ _______ _____ _____    ______ ____
DOCKED: USER                              x       y       z     vdW  Elec       q    Type
DOCKED: USER                           _______ _______ _______ _____ _____    ______ ____
DOCKED: ROOT
DOCKED: ATOM      1  C   UNL     1      25.880 -16.159  -2.579 -0.46 -0.00    +0.000 A 
DOCKED: ATOM      2  C   UNL     1      24.697 -16.679  -2.039 -0.47 -0.00    +0.000 A 
DOCKED: ATOM      3  C   UNL     1      24.728 -17.507  -0.904 -0.63 -0.00    +0.000 A 
DOCKED: ATOM      4  C   UNL     1      25.970 -17.779  -0.294 -0.58 -0.00    +0.000 A 
DOCKED: ATOM      5  C   UNL     1      27.149 -17.251  -0.828 -0.44 -0.00    +0.000 A 
DOCKED: ATOM      6  C   UNL     1      27.107 -16.447  -1.968 -0.34 -0.00    +0.000 A 
DOCKED: ENDROOT
DOCKED: BRANCH   1   8
DOCKED: ATOM      7  O   UNL     1      24.758 -14.099  -3.894 -1.06 -0.00    +0.000 OA
DOCKED: ATOM      8  S   UNL     1      25.822 -15.153  -4.023 -0.73 -0.00    +0.000 S 
DOCKED: ATOM      9  O   UNL     1      25.508 -16.024  -5.206 -1.04 -0.00    +0.000 OA
DOCKED: BRANCH   8  10
DOCKED: ATOM     10  N   UNL     1      27.357 -14.380  -4.274 -0.30 -0.00    +0.000 N 
DOCKED: ATOM     11  H   UNL     1      27.524 -13.524  -3.817 +0.00 -0.00    +0.000 HD
DOCKED: BRANCH  10  12
DOCKED: ATOM     12  C   UNL     1      28.398 -14.915  -5.111 -0.32 -0.00    +0.000 A 
DOCKED: ATOM     13  C   UNL     1      28.796 -14.279  -6.304 -0.32 -0.00    +0.000 A 
DOCKED: ATOM     14  C   UNL     1      29.818 -14.824  -7.088 -0.28 -0.00    +0.000 A 
DOCKED: ATOM     15  C   UNL     1      30.449 -16.007  -6.696 -0.29 -0.00    +0.000 A 
DOCKED: ATOM     16  C   UNL     1      30.056 -16.650  -5.519 -0.29 -0.00    +0.000 A 
DOCKED: ATOM     17  C   UNL     1      29.035 -16.108  -4.732 -0.26 -0.00    +0.000 A 
DOCKED: ENDBRANCH  10  12
DOCKED: ENDBRANCH   8  10
DOCKED: ENDBRANCH   1   8
DOCKED: BRANCH   3  18
DOCKED: ATOM     18  C   UNL     1      23.445 -18.034  -0.375 -0.79 -0.00    +0.000 C 
DOCKED: ATOM     19  C   UNL     1      22.383 -18.317  -1.146 -0.75 -0.00    +0.000 C 
DOCKED: BRANCH  19  20
DOCKED: ATOM     20  C   UNL     1      21.107 -18.836  -0.612 -0.86 -0.00    +0.000 C 
DOCKED: ATOM     21  N   UNL     1      21.012 -20.106   0.045 -0.63 -0.00    +0.000 N 
DOCKED: ATOM     22  O   UNL     1      20.077 -18.120  -0.719 -2.03 -0.00    +0.000 OA
DOCKED: ATOM     23  H   UNL     1      21.827 -20.628   0.227 -0.58 -0.00    +0.000 HD
DOCKED: BRANCH  21  24
DOCKED: ATOM     24  O   UNL     1      19.802 -20.591   0.416 -0.78 -0.00    +0.000 OA
DOCKED: ATOM     25  H   UNL     1      19.127 -19.906   0.289 -0.02 -0.00    +0.000 HD
DOCKED: ENDBRANCH  21  24
DOCKED: ENDBRANCH  19  20
DOCKED: ENDBRANCH   3  18
DOCKED: TORSDOF 6
DOCKED: TER
DOCKED: ENDMDL
________________________________________________________________________________


	BEGINNING GENETIC ALGORITHM DOCKING 100 of 100
Run: 100 Seed: 412235571 1210051155 [ Run 100 of 100 GA/GALS ]
Beginning LAMARCKIAN GENETIC ALGORITHM (LGA), with a maximum of 2500000 energy evaluations.

Final-Value: -15.888


	FINAL GENETIC ALGORITHM DOCKED STATE
	_______________________________________________


Detailed state:  trans 24.178 -17.995 -2.754 quatxyzw -0.210124 0.764177 -0.299055 0.531458 center 0.293 0.181 0.279 ntor 6 29.7984 -59.9448 -28.6037 150.3843 180.0000 -149.6001
State:	 24.178 -17.995  -2.754  -0.248  0.902 -0.353 115.792     29.80  -59.94  -28.60  150.38  180.00 -149.60

DOCKED: MODEL      100
DOCKED: USER    Run = 100
DOCKED: USER    DPF = ligand_dock.biased.dpf
DOCKED: USER  
DOCKED: USER    Estimated Free Energy of Binding    =  -12.65 kcal/mol  [=(1)+(2)+(3)-(4)]
DOCKED: USER    Estimated Inhibition Constant, Ki   =  534.61 pM (picomolar)  [Temperature = 298.15 K]
DOCKED: USER    
DOCKED: USER    (1) Final Intermolecular Energy     =  -14.44 kcal/mol
DOCKED: USER        vdW + Hbond + desolv Energy     =  -14.44 kcal/mol
DOCKED: USER        Electrostatic Energy            =   +0.00 kcal/mol
DOCKED: USER    (2) Final Total Internal Energy     =   -1.45 kcal/mol
DOCKED: USER    (3) Torsional Free Energy           =   +1.79 kcal/mol
DOCKED: USER    (4) Unbound System's Energy  [=(2)] =   -1.45 kcal/mol
DOCKED: USER    
DOCKED: USER    
DOCKED: USER    NEWDPF move ligand.pdbqt
DOCKED: USER    NEWDPF about 0.293000 0.181000 0.279000
DOCKED: USER    NEWDPF tran0 24.178256 -17.994622 -2.753861
DOCKED: USER    NEWDPF quaternion0 -0.210124 0.764177 -0.299055 0.531458
DOCKED: USER    NEWDPF axisangle0 -0.248056 0.902126 -0.353040 115.791927
DOCKED: USER    NEWDPF quat0 -0.248056 0.902126 -0.353040 115.791927
DOCKED: USER    NEWDPF dihe0 29.80 -59.94 -28.60 150.38 180.00 -149.60 
DOCKED: USER  keepresnum = 1 
DOCKED: USER  
DOCKED: REMARK  Name = 
DOCKED: REMARK  6 active torsions:
DOCKED: REMARK  status: ('A' for Active; 'I' for Inactive)
DOCKED: REMARK    1  A    between atoms: S_2  and  N_3
DOCKED: REMARK    2  A    between atoms: S_2  and  C_10
DOCKED: REMARK    3  A    between atoms: N_3  and  C_4
DOCKED: REMARK    4  A    between atoms: C_12  and  C_13
DOCKED: REMARK    5  A    between atoms: C_14  and  C_15
DOCKED: REMARK    6  A    between atoms: N_16  and  O_17
DOCKED: REMARK                            x       y       z     vdW  Elec       q    Type
DOCKED: REMARK                         _______ _______ _______ _____ _____    ______ ____
DOCKED: USER                              x       y       z     vdW  Elec       q    Type
DOCKED: USER                           _______ _______ _______ _____ _____    ______ ____
DOCKED: ROOT
DOCKED: ATOM      1  C   UNL     1      25.869 -16.265  -2.582 -0.46 -0.00    +0.000 A 
DOCKED: ATOM      2  C   UNL     1      24.709 -16.948  -2.193 -0.45 -0.00    +0.000 A 
DOCKED: ATOM      3  C   UNL     1      24.730 -17.839  -1.106 -0.65 -0.00    +0.000 A 
DOCKED: ATOM      4  C   UNL     1      25.933 -18.009  -0.390 -0.59 -0.00    +0.000 A 
DOCKED: ATOM      5  C   UNL     1      27.086 -17.319  -0.773 -0.45 -0.00    +0.000 A 
DOCKED: ATOM      6  C   UNL     1      27.057 -16.453  -1.867 -0.36 -0.00    +0.000 A 
DOCKED: ENDROOT
DOCKED: BRANCH   1   8
DOCKED: ATOM      7  O   UNL     1      24.757 -14.140  -3.798 -1.03 -0.00    +0.000 OA
DOCKED: ATOM      8  S   UNL     1      25.828 -15.181  -3.969 -0.73 -0.00    +0.000 S 
DOCKED: ATOM      9  O   UNL     1      25.537 -15.986  -5.203 -1.06 -0.00    +0.000 OA
DOCKED: BRANCH   8  10
DOCKED: ATOM     10  N   UNL     1      27.363 -14.388  -4.152 -0.29 -0.00    +0.000 N 
DOCKED: ATOM     11  H   UNL     1      27.541 -13.593  -3.599 +0.00 -0.00    +0.000 HD
DOCKED: BRANCH  10  12
DOCKED: ATOM     12  C   UNL     1      28.387 -14.823  -5.064 -0.31 -0.00    +0.000 A 
DOCKED: ATOM     13  C   UNL     1      29.136 -15.996  -4.839 -0.29 -0.00    +0.000 A 
DOCKED: ATOM     14  C   UNL     1      30.119 -16.391  -5.752 -0.28 -0.00    +0.000 A 
DOCKED: ATOM     15  C   UNL     1      30.368 -15.624  -6.892 -0.28 -0.00    +0.000 A 
DOCKED: ATOM     16  C   UNL     1      29.637 -14.456  -7.120 -0.29 -0.00    +0.000 A 
DOCKED: ATOM     17  C   UNL     1      28.653 -14.056  -6.210 -0.30 -0.00    +0.000 A 
DOCKED: ENDBRANCH  10  12
DOCKED: ENDBRANCH   8  10
DOCKED: ENDBRANCH   1   8
DOCKED: BRANCH   3  18
DOCKED: ATOM     18  C   UNL     1      23.474 -18.539  -0.738 -0.83 -0.00    +0.000 C 
DOCKED: ATOM     19  C   UNL     1      22.252 -18.100  -1.075 -0.74 -0.00    +0.000 C 
DOCKED: BRANCH  19  20
DOCKED: ATOM     20  C   UNL     1      21.006 -18.798  -0.701 -0.87 -0.00    +0.000 C 
DOCKED: ATOM     21  N   UNL     1      21.006 -20.114  -0.131 -0.64 -0.00    +0.000 N 
DOCKED: ATOM     22  O   UNL     1      19.910 -18.201  -0.868 -1.87 -0.00    +0.000 OA
DOCKED: ATOM     23  H   UNL     1      21.859 -20.549   0.100 -0.58 -0.00    +0.000 HD
DOCKED: BRANCH  21  24
DOCKED: ATOM     24  O   UNL     1      19.836 -20.760   0.090 -0.79 -0.00    +0.000 OA
DOCKED: ATOM     25  H   UNL     1      19.180 -20.472  -0.563 -0.30 -0.00    +0.000 HD
DOCKED: ENDBRANCH  21  24
DOCKED: ENDBRANCH  19  20
DOCKED: ENDBRANCH   3  18
DOCKED: TORSDOF 6
DOCKED: TER
DOCKED: ENDMDL
________________________________________________________________________________

DPF>                           # do this many hybrid GA-LS runs

DPF> analysis                             # perform a ranked cluster analysis


		CLUSTER ANALYSIS OF CONFORMATIONS
		_________________________________

Number of conformations = 100

RMSD cluster analysis will be performed using the ligand atoms only (25 / 25 total atoms).

Outputting structurally similar clusters, ranked in order of increasing energy.


________________________________________________________________________________

Number of distinct conformational clusters found = 5,  out of 100 runs,
Using an rmsd-tolerance of 2.0 A


	CLUSTERING HISTOGRAM
	____________________

________________________________________________________________________________
     |           |     |           |     |                                    
Clus | Lowest    | Run | Mean      | Num | Histogram                          
-ter | Binding   |     | Binding   | in  |                                    
Rank | Energy    |     | Energy    | Clus|    5    10   15   20   25   30   35
_____|___________|_____|___________|_____|____:____|____:____|____:____|____:___
   1 |    -12.88 |  50 |    -12.30 |  64 |################################################################
   2 |    -12.68 |  86 |    -12.06 |  12 |############
   3 |    -12.02 |  66 |    -11.79 |  21 |#####################
   4 |    -11.30 |  38 |    -11.30 |   1 |#
   5 |    -11.30 |  32 |    -11.28 |   2 |##
_____|___________|_____|___________|_____|______________________________________


Number of multi-member conformational clusters found = 4, out of 100 runs.

	RMSD TABLE
	__________

_____________________________________________________________________
     |      |      |           |         |                 |
Rank | Sub- | Run  | Binding   | Cluster | Reference       | Grep
     | Rank |      | Energy    | RMSD    | RMSD            | Pattern
_____|______|______|___________|_________|_________________|___________
   1      1     50      -12.88      0.00     28.10           RANKING
   1      2     64      -12.84      0.28     28.04           RANKING
   1      3     71      -12.80      0.22     28.15           RANKING
   1      4     15      -12.73      0.39     27.96           RANKING
   1      5     13      -12.73      0.38     28.20           RANKING
   1      6     25      -12.73      0.30     28.03           RANKING
   1      7     18      -12.70      0.50     27.91           RANKING
   1      8     19      -12.68      0.21     28.10           RANKING
   1      9    100      -12.65      0.18     28.09           RANKING
   1     10     65      -12.63      0.18     28.11           RANKING
   1     11     36      -12.62      0.22     28.03           RANKING
   1     12     70      -12.62      0.15     28.05           RANKING
   1     13     63      -12.56      0.26     28.02           RANKING
   1     14      6      -12.55      0.19     28.04           RANKING
   1     15     83      -12.51      0.34     28.02           RANKING
   1     16     30      -12.51      0.36     28.02           RANKING
   1     17     31      -12.50      0.68     27.99           RANKING
   1     18     42      -12.50      0.22     28.09           RANKING
   1     19     21      -12.49      0.36     28.12           RANKING
   1     20     53      -12.48      0.34     28.06           RANKING
   1     21     99      -12.47      0.42     28.08           RANKING
   1     22     68      -12.47      0.67     28.01           RANKING
   1     23     46      -12.47      0.39     28.00           RANKING
   1     24     12      -12.43      0.50     28.01           RANKING
   1     25     11      -12.42      0.31     28.10           RANKING
   1     26      3      -12.42      0.42     28.02           RANKING
   1     27     89      -12.41      0.25     28.06           RANKING
   1     28     55      -12.40      0.55     27.87           RANKING
   1     29      5      -12.39      0.69     27.95           RANKING
   1     30     76      -12.39      0.51     27.91           RANKING
   1     31     93      -12.39      0.70     27.97           RANKING
   1     32     48      -12.39      0.50     28.05           RANKING
   1     33      4      -12.37      0.52     27.95           RANKING
   1     34     98      -12.35      0.45     27.94           RANKING
   1     35     60      -12.35      0.54     27.96           RANKING
   1     36     35      -12.32      0.37     28.01           RANKING
   1     37     23      -12.32      0.35     28.10           RANKING
   1     38     92      -12.30      0.54     27.89           RANKING
   1     39     47      -12.30      0.61     27.87           RANKING
   1     40     37      -12.30      0.80     28.25           RANKING
   1     41     88      -12.26      0.42     28.08           RANKING
   1     42     17      -12.23      0.47     27.95           RANKING
   1     43     14      -12.19      0.81     27.83           RANKING
   1     44     96      -12.17      0.82     28.35           RANKING
   1     45     10      -12.15      0.55     27.98           RANKING
   1     46     16      -12.13      0.76     28.32           RANKING
   1     47     56      -12.10      1.02     27.92           RANKING
   1     48     52      -12.10      0.68     28.13           RANKING
   1     49     75      -12.10      0.52     28.38           RANKING
   1     50     33      -12.07      0.64     27.82           RANKING
   1     51     41      -12.07      0.61     27.93           RANKING
   1     52     45      -12.05      0.81     28.39           RANKING
   1     53     94      -12.05      0.69     28.18           RANKING
   1     54     85      -12.03      1.03     28.06           RANKING
   1     55     87      -11.99      1.22     28.53           RANKING
   1     56     54      -11.96      0.78     27.81           RANKING
   1     57     61      -11.92      0.87     28.34           RANKING
   1     58     27      -11.91      1.14     28.67           RANKING
   1     59     34      -11.88      1.09     27.97           RANKING
   1     60     20      -11.76      1.33     28.80           RANKING
   1     61     62      -11.67      1.95     27.44           RANKING
   1     62     84      -11.61      1.27     27.76           RANKING
   1     63     51      -11.39      1.86     27.44           RANKING
   1     64     58      -11.22      1.96     27.41           RANKING
   2      1     86      -12.68      0.00     27.77           RANKING
   2      2     80      -12.68      0.63     27.74           RANKING
   2      3     26      -12.66      0.51     27.78           RANKING
   2      4     39      -12.62      0.50     27.72           RANKING
   2      5     49      -12.10      0.88     27.85           RANKING
   2      6     79      -12.09      0.70     27.70           RANKING
   2      7     57      -11.91      0.67     27.65           RANKING
   2      8     97      -11.76      0.78     27.84           RANKING
   2      9     67      -11.75      1.02     27.63           RANKING
   2     10     59      -11.68      1.52     27.90           RANKING
   2     11     22      -11.53      1.51     27.82           RANKING
   2     12     95      -11.22      1.54     27.62           RANKING
   3      1     66      -12.02      0.00     26.89           RANKING
   3      2     24      -11.99      0.13     26.89           RANKING
   3      3     44      -11.95      1.57     27.37           RANKING
   3      4      1      -11.92      0.50     26.84           RANKING
   3      5      9      -11.92      1.37     26.80           RANKING
   3      6     78      -11.89      0.48     26.92           RANKING
   3      7      7      -11.88      1.55     27.32           RANKING
   3      8     43      -11.86      0.48     26.97           RANKING
   3      9     82      -11.83      1.43     26.95           RANKING
   3     10     90      -11.83      1.31     27.01           RANKING
   3     11      2      -11.78      1.10     26.81           RANKING
   3     12     28      -11.76      1.06     26.94           RANKING
   3     13     73      -11.73      1.39     26.77           RANKING
   3     14     69      -11.73      1.14     26.72           RANKING
   3     15     77      -11.70      1.20     27.14           RANKING
   3     16     74      -11.70      1.40     27.17           RANKING
   3     17     91      -11.69      1.20     27.14           RANKING
   3     18     40      -11.68      1.70     27.35           RANKING
   3     19     72      -11.61      1.48     27.17           RANKING
   3     20      8      -11.59      1.72     27.23           RANKING
   3     21     29      -11.42      1.07     26.77           RANKING
   4      1     38      -11.30      0.00     27.09           RANKING
   5      1     32      -11.30      0.00     27.66           RANKING
   5      2     81      -11.26      0.24     27.79           RANKING
_______________________________________________________________________



	INFORMATION ENTROPY ANALYSIS FOR THIS CLUSTERING
	________________________________________________


Information entropy for this clustering = 0.22  (rmstol = 2.00 Angstrom)

_______________________________________________________________________


	STATISTICAL MECHANICAL ANALYSIS
	_______________________________


Partition function, Q =   102.07            at Temperature, T = 298.15 K
Free energy,        A ~ -2740.61 kcal/mol   at Temperature, T = 298.15 K
Internal energy,    U =   -12.13 kcal/mol   at Temperature, T = 298.15 K
Entropy,            S =     9.15 kcal/mol/K at Temperature, T = 298.15 K

_______________________________________________________________________


	LOWEST ENERGY DOCKED CONFORMATION from EACH CLUSTER
	___________________________________________________



Keeping original residue number (specified in the input PDBQ file) for outputting.

MODEL       50
USER    Run = 50
USER    Cluster Rank = 1
USER    Number of conformations in this cluster = 64
USER  
USER    RMSD from reference structure       = 28.098 A
USER  
USER    Estimated Free Energy of Binding    =  -12.88 kcal/mol  [=(1)+(2)+(3)-(4)]
USER    Estimated Inhibition Constant, Ki   =  362.48 pM (picomolar)  [Temperature = 298.15 K]
USER    
USER    (1) Final Intermolecular Energy     =  -14.67 kcal/mol
USER        vdW + Hbond + desolv Energy     =  -14.67 kcal/mol
USER        Electrostatic Energy            =   +0.00 kcal/mol
USER    (2) Final Total Internal Energy     =   -1.20 kcal/mol
USER    (3) Torsional Free Energy           =   +1.79 kcal/mol
USER    (4) Unbound System's Energy  [=(2)] =   -1.20 kcal/mol
USER    
USER    
USER  
USER    DPF = ligand_dock.biased.dpf
USER    NEWDPF move	ligand.pdbqt
USER    NEWDPF about	0.293000 0.181000 0.279000
USER    NEWDPF tran0	24.222493 -17.936500 -2.686799
USER    NEWDPF axisangle0	-0.245607 0.898067 -0.364900 114.857450
USER    NEWDPF quaternion0	-0.206978 0.756822 -0.307510 0.538348
USER    NEWDPF dihe0	60.63 -52.33 -38.18 154.17 -172.30 -150.26 
USER  
USER                              x       y       z    vdW   Elec        q     RMS 
ATOM      1  C   UNL     1      25.909 -16.199  -2.578 -0.46 -0.00    +0.000    28.098
ATOM      2  C   UNL     1      24.756 -16.875  -2.157 -0.49 -0.00    +0.000    28.098
ATOM      3  C   UNL     1      24.795 -17.741  -1.050 -0.64 -0.00    +0.000    28.098
ATOM      4  C   UNL     1      26.007 -17.889  -0.346 -0.58 -0.00    +0.000    28.098
ATOM      5  C   UNL     1      27.154 -17.205  -0.760 -0.44 -0.00    +0.000    28.098
ATOM      6  C   UNL     1      27.108 -16.365  -1.874 -0.35 -0.00    +0.000    28.098
ATOM      7  O   UNL     1      24.764 -14.116  -3.836 -1.04 -0.00    +0.000    28.098
ATOM      8  S   UNL     1      25.847 -15.147  -3.989 -0.73 -0.00    +0.000    28.098
ATOM      9  O   UNL     1      25.559 -15.984  -5.203 -1.06 -0.00    +0.000    28.098
ATOM     10  N   UNL     1      27.371 -14.341  -4.200 -0.29 -0.00    +0.000    28.098
ATOM     11  H   UNL     1      27.566 -13.564  -3.626 +0.00 -0.00    +0.000    28.098
ATOM     12  C   UNL     1      28.364 -14.738  -5.163 -0.32 -0.00    +0.000    28.098
ATOM     13  C   UNL     1      29.013 -15.987  -5.092 -0.30 -0.00    +0.000    28.098
ATOM     14  C   UNL     1      29.967 -16.341  -6.051 -0.31 -0.00    +0.000    28.098
ATOM     15  C   UNL     1      30.286 -15.458  -7.084 -0.27 -0.00    +0.000    28.098
ATOM     16  C   UNL     1      29.654 -14.215  -7.159 -0.27 -0.00    +0.000    28.098
ATOM     17  C   UNL     1      28.699 -13.855  -6.203 -0.28 -0.00    +0.000    28.098
ATOM     18  C   UNL     1      23.546 -18.435  -0.649 -0.82 -0.00    +0.000    28.098
ATOM     19  C   UNL     1      22.329 -18.097  -1.102 -0.72 -0.00    +0.000    28.098
ATOM     20  C   UNL     1      21.090 -18.789  -0.695 -0.87 -0.00    +0.000    28.098
ATOM     21  N   UNL     1      21.098 -20.107  -0.130 -0.59 -0.00    +0.000    28.098
ATOM     22  O   UNL     1      19.993 -18.184  -0.828 -1.94 -0.00    +0.000    28.098
ATOM     23  H   UNL     1      21.954 -20.548   0.075 -0.57 -0.00    +0.000    28.098
ATOM     24  O   UNL     1      19.930 -20.746   0.122 -0.79 -0.00    +0.000    28.098
ATOM     25  H   UNL     1      19.439 -20.858  -0.706 -0.52 -0.00    +0.000    28.098
TER
ENDMDL
MODEL       86
USER    Run = 86
USER    Cluster Rank = 2
USER    Number of conformations in this cluster = 12
USER  
USER    RMSD from reference structure       = 27.770 A
USER  
USER    Estimated Free Energy of Binding    =  -12.68 kcal/mol  [=(1)+(2)+(3)-(4)]
USER    Estimated Inhibition Constant, Ki   =  509.25 pM (picomolar)  [Temperature = 298.15 K]
USER    
USER    (1) Final Intermolecular Energy     =  -14.47 kcal/mol
USER        vdW + Hbond + desolv Energy     =  -14.47 kcal/mol
USER        Electrostatic Energy            =   +0.00 kcal/mol
USER    (2) Final Total Internal Energy     =   -0.95 kcal/mol
USER    (3) Torsional Free Energy           =   +1.79 kcal/mol
USER    (4) Unbound System's Energy  [=(2)] =   -0.95 kcal/mol
USER    
USER    
USER  
USER    DPF = ligand_dock.biased.dpf
USER    NEWDPF move	ligand.pdbqt
USER    NEWDPF about	0.293000 0.181000 0.279000
USER    NEWDPF tran0	24.962031 -15.407478 -1.354867
USER    NEWDPF axisangle0	0.457476 -0.821994 -0.339179 -142.877199
USER    NEWDPF quaternion0	0.433679 -0.779236 -0.321536 -0.318321
USER    NEWDPF dihe0	-123.64 159.36 68.02 -97.48 115.95 168.08 
USER  
USER                              x       y       z    vdW   Elec        q     RMS 
ATOM      1  C   UNL     1      26.920 -15.502   0.072 -0.27 -0.00    +0.000    27.770
ATOM      2  C   UNL     1      25.625 -15.857  -0.330 -0.06 -0.00    +0.000    27.770
ATOM      3  C   UNL     1      25.389 -17.064  -1.010 -0.56 -0.00    +0.000    27.770
ATOM      4  C   UNL     1      26.474 -17.932  -1.251 -0.19 -0.00    +0.000    27.770
ATOM      5  C   UNL     1      27.763 -17.582  -0.840 -0.33 -0.00    +0.000    27.770
ATOM      6  C   UNL     1      27.988 -16.370  -0.184 -0.27 -0.00    +0.000    27.770
ATOM      7  O   UNL     1      25.898 -13.357   1.332 -0.38 -0.00    +0.000    27.770
ATOM      8  S   UNL     1      27.198 -13.969   0.891 -0.37 -0.00    +0.000    27.770
ATOM      9  O   UNL     1      27.883 -13.030  -0.061 -0.15 -0.00    +0.000    27.770
ATOM     10  N   UNL     1      28.210 -14.210   2.282 -0.29 -0.00    +0.000    27.770
ATOM     11  H   UNL     1      28.863 -14.947   2.256 -1.62 -0.00    +0.000    27.770
ATOM     12  C   UNL     1      28.150 -13.400   3.470 -0.32 -0.00    +0.000    27.770
ATOM     13  C   UNL     1      28.420 -13.929   4.748 -0.47 -0.00    +0.000    27.770
ATOM     14  C   UNL     1      28.360 -13.108   5.878 -0.39 -0.00    +0.000    27.770
ATOM     15  C   UNL     1      28.026 -11.758   5.749 -0.35 +0.00    +0.000    27.770
ATOM     16  C   UNL     1      27.748 -11.226   4.488 -0.32 +0.00    +0.000    27.770
ATOM     17  C   UNL     1      27.808 -12.042   3.354 -0.26 +0.00    +0.000    27.770
ATOM     18  C   UNL     1      23.999 -17.389  -1.416 -0.71 -0.00    +0.000    27.770
ATOM     19  C   UNL     1      23.111 -17.992  -0.612 -0.81 -0.00    +0.000    27.770
ATOM     20  C   UNL     1      21.730 -18.317  -1.024 -0.76 -0.00    +0.000    27.770
ATOM     21  N   UNL     1      21.400 -19.535  -1.705 -0.58 -0.00    +0.000    27.770
ATOM     22  O   UNL     1      20.812 -17.502  -0.742 -2.08 -0.00    +0.000    27.770
ATOM     23  H   UNL     1      22.090 -20.225  -1.839 -0.45 -0.00    +0.000    27.770
ATOM     24  O   UNL     1      20.142 -19.738  -2.165 -1.88 -0.00    +0.000    27.770
ATOM     25  H   UNL     1      19.789 -20.559  -1.789 -0.61 -0.00    +0.000    27.770
TER
ENDMDL
MODEL       66
USER    Run = 66
USER    Cluster Rank = 3
USER    Number of conformations in this cluster = 21
USER  
USER    RMSD from reference structure       = 26.888 A
USER  
USER    Estimated Free Energy of Binding    =  -12.02 kcal/mol  [=(1)+(2)+(3)-(4)]
USER    Estimated Inhibition Constant, Ki   =    1.54 nM (nanomolar)  [Temperature = 298.15 K]
USER    
USER    (1) Final Intermolecular Energy     =  -13.81 kcal/mol
USER        vdW + Hbond + desolv Energy     =  -13.81 kcal/mol
USER        Electrostatic Energy            =   +0.00 kcal/mol
USER    (2) Final Total Internal Energy     =   -1.33 kcal/mol
USER    (3) Torsional Free Energy           =   +1.79 kcal/mol
USER    (4) Unbound System's Energy  [=(2)] =   -1.33 kcal/mol
USER    
USER    
USER  
USER    DPF = ligand_dock.biased.dpf
USER    NEWDPF move	ligand.pdbqt
USER    NEWDPF about	0.293000 0.181000 0.279000
USER    NEWDPF tran0	24.495052 -17.864492 -3.023769
USER    NEWDPF axisangle0	0.243830 -0.899858 0.361666 -125.249363
USER    NEWDPF quaternion0	0.216525 -0.799086 0.321164 -0.459817
USER    NEWDPF dihe0	27.36 -17.27 17.58 -78.78 136.44 179.84 
USER  
USER                              x       y       z    vdW   Elec        q     RMS 
ATOM      1  C   UNL     1      26.028 -16.044  -2.564 -0.45 -0.00    +0.000    26.888
ATOM      2  C   UNL     1      24.868 -16.805  -2.368 -0.38 -0.00    +0.000    26.888
ATOM      3  C   UNL     1      24.781 -17.724  -1.308 -0.63 -0.00    +0.000    26.888
ATOM      4  C   UNL     1      25.870 -17.842  -0.421 -0.59 -0.00    +0.000    26.888
ATOM      5  C   UNL     1      27.023 -17.074  -0.611 -0.45 -0.00    +0.000    26.888
ATOM      6  C   UNL     1      27.104 -16.180  -1.680 -0.34 -0.00    +0.000    26.888
ATOM      7  O   UNL     1      24.756 -14.491  -4.353 -1.03 -0.00    +0.000    26.888
ATOM      8  S   UNL     1      26.128 -14.924  -3.919 -0.67 -0.00    +0.000    26.888
ATOM      9  O   UNL     1      26.810 -15.614  -5.066 -1.06 +0.00    +0.000    26.888
ATOM     10  N   UNL     1      27.048 -13.522  -3.468 -0.23 -0.00    +0.000    26.888
ATOM     11  H   UNL     1      27.915 -13.661  -3.022 +0.01 -0.00    +0.000    26.888
ATOM     12  C   UNL     1      26.619 -12.169  -3.706 -0.20 -0.00    +0.000    26.888
ATOM     13  C   UNL     1      25.782 -11.831  -4.788 -0.31 -0.00    +0.000    26.888
ATOM     14  C   UNL     1      25.379 -10.506  -4.982 -0.31 -0.00    +0.000    26.888
ATOM     15  C   UNL     1      25.808  -9.507  -4.106 -0.20 -0.00    +0.000    26.888
ATOM     16  C   UNL     1      26.644  -9.829  -3.034 -0.13 -0.00    +0.000    26.888
ATOM     17  C   UNL     1      27.049 -11.153  -2.836 -0.10 -0.00    +0.000    26.888
ATOM     18  C   UNL     1      23.531 -18.507  -1.149 -0.81 -0.00    +0.000    26.888
ATOM     19  C   UNL     1      22.343 -17.959  -0.850 -0.78 -0.00    +0.000    26.888
ATOM     20  C   UNL     1      21.103 -18.745  -0.688 -0.86 -0.00    +0.000    26.888
ATOM     21  N   UNL     1      21.097 -20.054  -0.102 -0.61 -0.00    +0.000    26.888
ATOM     22  O   UNL     1      20.014 -18.232  -1.057 -1.91 -0.00    +0.000    26.888
ATOM     23  H   UNL     1      21.924 -20.424   0.283 -0.58 -0.00    +0.000    26.888
ATOM     24  O   UNL     1      19.955 -20.783  -0.079 -0.77 -0.00    +0.000    26.888
ATOM     25  H   UNL     1      19.389 -20.521  -0.821 -0.43 -0.00    +0.000    26.888
TER
ENDMDL
MODEL       38
USER    Run = 38
USER    Cluster Rank = 4
USER    Number of conformations in this cluster = 1
USER  
USER    RMSD from reference structure       = 27.086 A
USER  
USER    Estimated Free Energy of Binding    =  -11.30 kcal/mol  [=(1)+(2)+(3)-(4)]
USER    Estimated Inhibition Constant, Ki   =    5.18 nM (nanomolar)  [Temperature = 298.15 K]
USER    
USER    (1) Final Intermolecular Energy     =  -13.09 kcal/mol
USER        vdW + Hbond + desolv Energy     =  -13.09 kcal/mol
USER        Electrostatic Energy            =   +0.00 kcal/mol
USER    (2) Final Total Internal Energy     =   -1.78 kcal/mol
USER    (3) Torsional Free Energy           =   +1.79 kcal/mol
USER    (4) Unbound System's Energy  [=(2)] =   -1.78 kcal/mol
USER    
USER    
USER  
USER    DPF = ligand_dock.biased.dpf
USER    NEWDPF move	ligand.pdbqt
USER    NEWDPF about	0.293000 0.181000 0.279000
USER    NEWDPF tran0	23.624063 -17.251364 -2.688685
USER    NEWDPF axisangle0	0.139660 -0.980828 0.135913 -120.665946
USER    NEWDPF quaternion0	0.121353 -0.852257 0.118097 -0.494959
USER    NEWDPF dihe0	-15.38 83.34 -95.83 69.10 -20.20 143.99 
USER  
USER                              x       y       z    vdW   Elec        q     RMS 
ATOM      1  C   UNL     1      25.724 -16.309  -1.929 -0.49 -0.00    +0.000    27.086
ATOM      2  C   UNL     1      24.359 -16.610  -1.829 -0.45 -0.00    +0.000    27.086
ATOM      3  C   UNL     1      23.915 -17.670  -1.020 -0.68 -0.00    +0.000    27.086
ATOM      4  C   UNL     1      24.864 -18.405  -0.280 -0.59 -0.00    +0.000    27.086
ATOM      5  C   UNL     1      26.224 -18.096  -0.373 -0.57 -0.00    +0.000    27.086
ATOM      6  C   UNL     1      26.655 -17.055  -1.196 -0.46 -0.00    +0.000    27.086
ATOM      7  O   UNL     1      25.141 -14.529  -3.858 -0.93 -0.00    +0.000    27.086
ATOM      8  S   UNL     1      26.263 -14.999  -2.976 -0.56 -0.00    +0.000    27.086
ATOM      9  O   UNL     1      27.386 -15.501  -3.838 -0.40 -0.00    +0.000    27.086
ATOM     10  N   UNL     1      26.829 -13.665  -2.019 -0.22 -0.00    +0.000    27.086
ATOM     11  H   UNL     1      26.926 -12.789  -2.459 -0.00 -0.00    +0.000    27.086
ATOM     12  C   UNL     1      27.166 -13.763  -0.624 -0.21 -0.00    +0.000    27.086
ATOM     13  C   UNL     1      28.322 -14.435  -0.181 -0.17 -0.00    +0.000    27.086
ATOM     14  C   UNL     1      28.621 -14.502   1.183 -0.19 -0.00    +0.000    27.086
ATOM     15  C   UNL     1      27.771 -13.906   2.118 -0.28 -0.00    +0.000    27.086
ATOM     16  C   UNL     1      26.618 -13.244   1.691 -0.26 -0.00    +0.000    27.086
ATOM     17  C   UNL     1      26.316 -13.174   0.327 -0.27 -0.00    +0.000    27.086
ATOM     18  C   UNL     1      22.458 -17.948  -0.953 -0.77 -0.00    +0.000    27.086
ATOM     19  C   UNL     1      21.936 -19.183  -0.968 -0.80 -0.00    +0.000    27.086
ATOM     20  C   UNL     1      20.485 -19.453  -0.907 -0.90 -0.00    +0.000    27.086
ATOM     21  N   UNL     1      19.742 -19.373   0.317 -0.72 -0.00    +0.000    27.086
ATOM     22  O   UNL     1      19.881 -19.737  -1.975 -1.89 -0.00    +0.000    27.086
ATOM     23  H   UNL     1      20.180 -19.052   1.138 -0.19 -0.00    +0.000    27.086
ATOM     24  O   UNL     1      18.437 -19.739   0.346 -0.74 -0.00    +0.000    27.086
ATOM     25  H   UNL     1      18.098 -19.794  -0.561 -0.38 -0.00    +0.000    27.086
TER
ENDMDL
MODEL       32
USER    Run = 32
USER    Cluster Rank = 5
USER    Number of conformations in this cluster = 2
USER  
USER    RMSD from reference structure       = 27.660 A
USER  
USER    Estimated Free Energy of Binding    =  -11.30 kcal/mol  [=(1)+(2)+(3)-(4)]
USER    Estimated Inhibition Constant, Ki   =    5.22 nM (nanomolar)  [Temperature = 298.15 K]
USER    
USER    (1) Final Intermolecular Energy     =  -13.09 kcal/mol
USER        vdW + Hbond + desolv Energy     =  -13.09 kcal/mol
USER        Electrostatic Energy            =   +0.00 kcal/mol
USER    (2) Final Total Internal Energy     =   -1.14 kcal/mol
USER    (3) Torsional Free Energy           =   +1.79 kcal/mol
USER    (4) Unbound System's Energy  [=(2)] =   -1.14 kcal/mol
USER    
USER    
USER  
USER    DPF = ligand_dock.biased.dpf
USER    NEWDPF move	ligand.pdbqt
USER    NEWDPF about	0.293000 0.181000 0.279000
USER    NEWDPF tran0	25.516144 -15.955434 0.314960
USER    NEWDPF axisangle0	0.376650 -0.164457 -0.911641 -135.899798
USER    NEWDPF quaternion0	0.349100 -0.152428 -0.844960 -0.375417
USER    NEWDPF dihe0	177.98 -132.77 -70.68 2.75 28.02 -17.76 
USER  
USER                              x       y       z    vdW   Elec        q     RMS 
ATOM      1  C   UNL     1      27.475 -15.724  -1.094 -0.29 -0.00    +0.000    27.660
ATOM      2  C   UNL     1      26.372 -16.401  -0.558 -0.42 -0.00    +0.000    27.660
ATOM      3  C   UNL     1      25.183 -16.535  -1.297 -0.53 -0.00    +0.000    27.660
ATOM      4  C   UNL     1      25.132 -16.008  -2.604 -0.45 -0.00    +0.000    27.660
ATOM      5  C   UNL     1      26.238 -15.343  -3.141 -0.44 -0.00    +0.000    27.660
ATOM      6  C   UNL     1      27.405 -15.197  -2.389 -0.25 -0.00    +0.000    27.660
ATOM      7  O   UNL     1      29.922 -14.637  -0.838 -0.09 -0.00    +0.000    27.660
ATOM      8  S   UNL     1      28.942 -15.536  -0.137 -0.27 -0.00    +0.000    27.660
ATOM      9  O   UNL     1      29.569 -16.887   0.056 -0.20 -0.00    +0.000    27.660
ATOM     10  N   UNL     1      28.559 -14.856   1.414 -0.19 -0.00    +0.000    27.660
ATOM     11  H   UNL     1      28.915 -15.304   2.216 -1.82 -0.00    +0.000    27.660
ATOM     12  C   UNL     1      27.753 -13.678   1.599 -0.25 -0.00    +0.000    27.660
ATOM     13  C   UNL     1      28.014 -12.749   2.625 -0.23 -0.00    +0.000    27.660
ATOM     14  C   UNL     1      27.213 -11.612   2.767 -0.26 +0.00    +0.000    27.660
ATOM     15  C   UNL     1      26.145 -11.391   1.896 -0.32 +0.00    +0.000    27.660
ATOM     16  C   UNL     1      25.872 -12.310   0.880 -0.29 +0.00    +0.000    27.660
ATOM     17  C   UNL     1      26.671 -13.449   0.733 -0.28 -0.00    +0.000    27.660
ATOM     18  C   UNL     1      24.043 -17.258  -0.680 -0.70 -0.00    +0.000    27.660
ATOM     19  C   UNL     1      22.911 -17.558  -1.335 -0.48 -0.00    +0.000    27.660
ATOM     20  C   UNL     1      21.778 -18.273  -0.713 -0.86 -0.00    +0.000    27.660
ATOM     21  N   UNL     1      21.944 -19.520  -0.025 -0.49 -0.00    +0.000    27.660
ATOM     22  O   UNL     1      20.634 -17.750  -0.771 -2.26 -0.00    +0.000    27.660
ATOM     23  H   UNL     1      22.846 -19.887   0.117 -0.46 -0.00    +0.000    27.660
ATOM     24  O   UNL     1      20.860 -20.195   0.429 -0.69 -0.00    +0.000    27.660
ATOM     25  H   UNL     1      21.146 -21.026   0.838 -0.60 -0.00    +0.000    27.660
TER
ENDMDL


AVSFLD: # AVS field file
AVSFLD: #
AVSFLD: # Created by AutoDock
AVSFLD: #
AVSFLD: ndim=2           # number of dimensions in the field
AVSFLD: nspace=1         # number of physical coordinates
AVSFLD: veclen=7         # vector size
AVSFLD: dim1=25          # atoms
AVSFLD: dim2=5           # conformations
AVSFLD: data=Real       # data type (byte,integer,Real,double)
AVSFLD: field=uniform    # field coordinate layout
AVSFLD: label= x y z vdW Elec q RMS
AVSFLD: variable 1 file = ligand_dock.biased.dlg.pdb filetype = ascii offset = 5 stride = 12
AVSFLD: variable 2 file = ligand_dock.biased.dlg.pdb filetype = ascii offset = 6 stride = 12
AVSFLD: variable 3 file = ligand_dock.biased.dlg.pdb filetype = ascii offset = 7 stride = 12
AVSFLD: variable 4 file = ligand_dock.biased.dlg.pdb filetype = ascii offset = 8 stride = 12
AVSFLD: variable 5 file = ligand_dock.biased.dlg.pdb filetype = ascii offset = 9 stride = 12
AVSFLD: variable 6 file = ligand_dock.biased.dlg.pdb filetype = ascii offset = 10 stride = 12
AVSFLD: variable 7 file = ligand_dock.biased.dlg.pdb filetype = ascii offset = 11 stride = 12
AVSFLD: # end of file

>>> Closing the docking parameter file (DPF)...
This docking finished at:			10:14 55" a.m., 11/08/2024


________________________________________________________________________________

autodock4: Successful Completion on "ThinkStation-P620"

Real= 11m 38.92s,  CPU= 11m 38.64s,  System= 0.20s
________________________________________________________________________________

