REMARK  Name = 
REMARK  6 active torsions:
REMARK  status: ('A' for Active; 'I' for Inactive)
REMARK    1  A    between atoms: C_2  and  C_5
REMARK    2  A    between atoms: C_5  and  C_6
REMARK    3  A    between atoms: C_6  and  C_7
REMARK    4  A    between atoms: C_7  and  C_8
REMARK    5  A    between atoms: C_8  and  C_9
REMARK    6  A    between atoms: C_9  and  N_10
REMARK                            x       y       z     vdW  Elec       q    Type
REMARK                         _______ _______ _______ _____ _____    ______ ____
ROOT
ATOM      1  N   UNL     1      -0.612   0.773  -0.129  0.00  0.00    +0.000 N 
ATOM      2  C   UNL     1      -1.274  -0.001  -1.147  0.00  0.00    +0.000 C 
ATOM      3  C   UNL     1      -2.728  -0.264  -1.048  0.00  0.00    +0.000 A 
ATOM      4  C   UNL     1      -3.392  -0.993  -2.051  0.00  0.00    +0.000 A 
ATOM      5  C   UNL     1      -4.762  -1.241  -1.959  0.00  0.00    +0.000 A 
ATOM      6  C   UNL     1      -5.491  -0.768  -0.868  0.00  0.00    +0.000 A 
ATOM      7  C   UNL     1      -4.852  -0.041   0.146  0.00  0.00    +0.000 A 
ATOM      8  C   UNL     1      -5.585   0.431   1.244  0.00  0.00    +0.000 A 
ATOM      9  C   UNL     1      -4.949   1.153   2.254  0.00  0.00    +0.000 A 
ATOM     10  C   UNL     1      -3.580   1.411   2.180  0.00  0.00    +0.000 A 
ATOM     11  C   UNL     1      -2.823   0.950   1.088  0.00  0.00    +0.000 A 
ATOM     12  C   UNL     1      -3.459   0.218   0.061  0.00  0.00    +0.000 A 
ATOM     13  O   UNL     1      -0.616  -0.459  -2.122  0.00  0.00    +0.000 OA
ATOM     14  C   UNL     1      -1.370   1.224   1.010  0.00  0.00    +0.000 C 
ATOM     15  O   UNL     1      -0.797   1.851   1.944  0.00  0.00    +0.000 OA
ENDROOT
BRANCH   1  16
ATOM     16  C   UNL     1       0.838   1.008  -0.198  0.00  0.00    +0.000 C 
BRANCH  16  17
ATOM     17  C   UNL     1       1.592  -0.136   0.485  0.00  0.00    +0.000 C 
BRANCH  17  18
ATOM     18  C   UNL     1       3.107   0.087   0.424  0.00  0.00    +0.000 C 
BRANCH  18  19
ATOM     19  C   UNL     1       3.861  -1.065   1.104  0.00  0.00    +0.000 C 
BRANCH  19  20
ATOM     20  C   UNL     1       5.378  -0.835   1.129  0.00  0.00    +0.000 C 
BRANCH  20  22
ATOM     21  O   UNL     1       6.215  -2.033  -0.762  0.00  0.00    +0.000 OA
ATOM     22  C   UNL     1       5.976  -0.909  -0.246  0.00  0.00    +0.000 C 
ATOM     23  N   UNL     1       6.242   0.285  -0.985  0.00  0.00    +0.000 N 
ATOM     24  O   UNL     1       6.765   0.218  -2.231  0.00  0.00    +0.000 OA
ATOM     25  H   UNL     1       6.044   1.163  -0.585  0.00  0.00    +0.000 HD
ENDBRANCH  20  22
ENDBRANCH  19  20
ENDBRANCH  18  19
ENDBRANCH  17  18
ENDBRANCH  16  17
ENDBRANCH   1  16
TORSDOF 6
