          AutoDock 4.2 Release 4.2.6   
         (C) 1989-2012 The Scripps Research Institute
        AutoDock comes with ABSOLUTELY NO WARRANTY.
        AutoDock is free software, and you are welcome
        to redistribute it under certain conditions;
        for details type 'autodock4 -C'

                     main.cc  $Revision: 1.213 $

                   Compiled on Feb 20 2022 at 09:48:33


This file was created at:			11:05 18" a.m., 11/08/2024
                   on host:		"ThinkStation-P620"
Current Working Directory = "/home/antonio/Documenti/buccheri/IDROSSAMICO HDAC/HDAC 2/DP/Ligand_6"

      ________________________________________________________________

                   SETTING UP DEFAULT PARAMETER LIBRARY
      ________________________________________________________________


Random number generator was seeded with values 333844, 1731060318.
Docking parameter file (DPF) used for this docking:		ligand_dock.biased.dpf
DPF> autodock_parameter_version 4.2       # used by autodock to validate parameter set

	Autodock parameter version 4.2.
DPF> outlev 1                             # diagnostic output level

Output Level = 1  ADT-COMPATIBLE OUTPUT DURING DOCKING.
DPF> intelec                              # calculate internal electrostatics

Electrostatic energies will be calculated for all non-bonds between moving atoms.
DPF> seed pid time                        # seeds for random generator

Random number generator was seeded with values 333844, 1731060318.
DPF> ligand_types A C HD OA N             # atoms types in ligand

DPF> fld receptor.maps.fld                # grid_data_file

Opening Grid Map Dimensions file:		receptor.maps.fld
Grid Point Spacing =				0.375 Angstroms

Even Number of User-specified Grid Points =	70 x-points
						70 y-points
						70 z-points

Coordinates of Central Grid Point of Maps =	(24.757, -16.735, 0.794)
Macromolecule file used to create Grid Maps =	receptor.pdbqt
Grid Parameter file used to create Grid Maps =	receptor.gpf
Minimum coordinates in grid = (11.632, -29.860, -12.331)
Maximum coordinates in grid = (37.882, -3.610, 13.919)

DPF> map receptor.A.map                   # atom-specific affinity map

DPF> map receptor.C.map                   # atom-specific affinity map

DPF> map receptor.HD.biased.map

DPF> map receptor.OA.biased.map

DPF> map receptor.N.map                   # atom-specific affinity map

DPF> elecmap receptor.e.map               # electrostatics map

DPF> desolvmap receptor.d.map             # desolvation map

DPF> move ligand.pdbqt                    # small molecule

1,4-interactions will be _ignored_ in the non-bonded internal energy calculation.

Ligand PDBQT file = "ligand.pdbqt"

INPUT LIGAND PDBQT FILE:
________________________

INPUT-LIGAND-PDBQT: REMARK  Name = 
INPUT-LIGAND-PDBQT: REMARK  6 active torsions:
INPUT-LIGAND-PDBQT: REMARK  status: ('A' for Active; 'I' for Inactive)
INPUT-LIGAND-PDBQT: REMARK    1  A    between atoms: C_2  and  C_5
INPUT-LIGAND-PDBQT: REMARK    2  A    between atoms: C_5  and  C_6
INPUT-LIGAND-PDBQT: REMARK    3  A    between atoms: C_6  and  C_7
INPUT-LIGAND-PDBQT: REMARK    4  A    between atoms: C_7  and  C_8
INPUT-LIGAND-PDBQT: REMARK    5  A    between atoms: C_8  and  C_9
INPUT-LIGAND-PDBQT: REMARK    6  A    between atoms: C_9  and  N_10
INPUT-LIGAND-PDBQT: REMARK                            x       y       z     vdW  Elec       q    Type
INPUT-LIGAND-PDBQT: REMARK                         _______ _______ _______ _____ _____    ______ ____
INPUT-LIGAND-PDBQT: ROOT
INPUT-LIGAND-PDBQT: ATOM      1  N   UNL     1      -0.612   0.773  -0.129  0.00  0.00    +0.000 N 
INPUT-LIGAND-PDBQT: ATOM      2  C   UNL     1      -1.274  -0.001  -1.147  0.00  0.00    +0.000 C 
INPUT-LIGAND-PDBQT: ATOM      3  C   UNL     1      -2.728  -0.264  -1.048  0.00  0.00    +0.000 A 
INPUT-LIGAND-PDBQT: ATOM      4  C   UNL     1      -3.392  -0.993  -2.051  0.00  0.00    +0.000 A 
INPUT-LIGAND-PDBQT: ATOM      5  C   UNL     1      -4.762  -1.241  -1.959  0.00  0.00    +0.000 A 
INPUT-LIGAND-PDBQT: ATOM      6  C   UNL     1      -5.491  -0.768  -0.868  0.00  0.00    +0.000 A 
INPUT-LIGAND-PDBQT: ATOM      7  C   UNL     1      -4.852  -0.041   0.146  0.00  0.00    +0.000 A 
INPUT-LIGAND-PDBQT: ATOM      8  C   UNL     1      -5.585   0.431   1.244  0.00  0.00    +0.000 A 
INPUT-LIGAND-PDBQT: ATOM      9  C   UNL     1      -4.949   1.153   2.254  0.00  0.00    +0.000 A 
INPUT-LIGAND-PDBQT: ATOM     10  C   UNL     1      -3.580   1.411   2.180  0.00  0.00    +0.000 A 
INPUT-LIGAND-PDBQT: ATOM     11  C   UNL     1      -2.823   0.950   1.088  0.00  0.00    +0.000 A 
INPUT-LIGAND-PDBQT: ATOM     12  C   UNL     1      -3.459   0.218   0.061  0.00  0.00    +0.000 A 
INPUT-LIGAND-PDBQT: ATOM     13  O   UNL     1      -0.616  -0.459  -2.122  0.00  0.00    +0.000 OA
INPUT-LIGAND-PDBQT: ATOM     14  C   UNL     1      -1.370   1.224   1.010  0.00  0.00    +0.000 C 
INPUT-LIGAND-PDBQT: ATOM     15  O   UNL     1      -0.797   1.851   1.944  0.00  0.00    +0.000 OA
INPUT-LIGAND-PDBQT: ENDROOT
INPUT-LIGAND-PDBQT: BRANCH   1  16
INPUT-LIGAND-PDBQT: ATOM     16  C   UNL     1       0.838   1.008  -0.198  0.00  0.00    +0.000 C 
INPUT-LIGAND-PDBQT: BRANCH  16  17
INPUT-LIGAND-PDBQT: ATOM     17  C   UNL     1       1.592  -0.136   0.485  0.00  0.00    +0.000 C 
INPUT-LIGAND-PDBQT: BRANCH  17  18
INPUT-LIGAND-PDBQT: ATOM     18  C   UNL     1       3.107   0.087   0.424  0.00  0.00    +0.000 C 
INPUT-LIGAND-PDBQT: BRANCH  18  19
INPUT-LIGAND-PDBQT: ATOM     19  C   UNL     1       3.861  -1.065   1.104  0.00  0.00    +0.000 C 
INPUT-LIGAND-PDBQT: BRANCH  19  20
INPUT-LIGAND-PDBQT: ATOM     20  C   UNL     1       5.378  -0.835   1.129  0.00  0.00    +0.000 C 
INPUT-LIGAND-PDBQT: BRANCH  20  22
INPUT-LIGAND-PDBQT: ATOM     21  O   UNL     1       6.215  -2.033  -0.762  0.00  0.00    +0.000 OA
INPUT-LIGAND-PDBQT: ATOM     22  C   UNL     1       5.976  -0.909  -0.246  0.00  0.00    +0.000 C 
INPUT-LIGAND-PDBQT: ATOM     23  N   UNL     1       6.242   0.285  -0.985  0.00  0.00    +0.000 N 
INPUT-LIGAND-PDBQT: ATOM     24  O   UNL     1       6.765   0.218  -2.231  0.00  0.00    +0.000 OA
INPUT-LIGAND-PDBQT: ATOM     25  H   UNL     1       6.044   1.163  -0.585  0.00  0.00    +0.000 HD
INPUT-LIGAND-PDBQT: ENDBRANCH  20  22
INPUT-LIGAND-PDBQT: ENDBRANCH  19  20
INPUT-LIGAND-PDBQT: ENDBRANCH  18  19
INPUT-LIGAND-PDBQT: ENDBRANCH  17  18
INPUT-LIGAND-PDBQT: ENDBRANCH  16  17
INPUT-LIGAND-PDBQT: ENDBRANCH   1  16
INPUT-LIGAND-PDBQT: TORSDOF 6
________________________________________________________________________________

Total charge on ligand                               =	+0.000 e
REMARK  Name = 
REMARK  6 active torsions:
REMARK  status: ('A' for Active; 'I' for Inactive)
REMARK    1  A    between atoms: C_2  and  C_5
REMARK    2  A    between atoms: C_5  and  C_6
REMARK    3  A    between atoms: C_6  and  C_7
REMARK    4  A    between atoms: C_7  and  C_8
REMARK    5  A    between atoms: C_8  and  C_9
REMARK    6  A    between atoms: C_9  and  N_10
REMARK                            x       y       z     vdW  Elec       q    Type
REMARK                         _______ _______ _______ _____ _____    ______ ____


Number of Rotatable Bonds in Small Molecule =	6 torsions
Number of atoms in ligand:  25

Number of non-hydrogen atoms in ligand:  24

Number of vibrational degrees of freedom of ligand:  69


Number of torsional degrees of freedom = 6
Estimated loss of torsional free energy upon binding = +1.7898 kcal/mol


DPF> about -0.011 0.081 -0.051            # small molecule center

Small molecule center of rotation =	(-0.011, +0.081, -0.051)

DPF> tran0 random                         # initial coordinates/A or random

Initial translation =			(35.071, -26.924, -2.735) Angstroms
DPF> quaternion0 random                   # initial orientation

Each run will begin with a new, random initial orientation.
Initial quaternion,  (x,y,z,w) =	( 0.719, 0.496, -0.464, 0.145 ),
DPF> dihe0 random                         # initial dihedrals (relative) or random

DPF> torsdof 6                            # torsional degrees of freedom

Number of torsional degrees of freedom = 6
Free energy coefficient for torsional degrees of freedom = 0.2983, the factory default value.

Estimated loss of torsional free energy upon binding = +1.7898 kcal/mol

DPF> rmstol 2.0                           # cluster_tolerance/A

Maximum RMS tolerance for conformational cluster analysis = 2.00 Angstroms
DPF> extnrg 1000.0                        # external grid energy

External grid energy (beyond grid map walls) = 1000.00

DPF> e0max 0.0 10000                      # max initial energy; max number of retries

Using user-specified maximum number of retries for simanneal initialization, 10000 retries.
If the simanneal initial energy is greater than e0max, 0.000,
then a new, random initial state will be created.

DPF> ga_pop_size 150                      # number of individuals in population

A population of 150 individuals will be used
DPF> ga_num_evals 2500000                 # maximum number of energy evaluations

There will be at most 2500000 function evaluations used.
DPF> ga_num_generations 27000             # maximum number of generations

The GA will run for at most 27000 generations.
DPF> ga_elitism 1                         # number of top individuals to survive to next generation

The 1 best will be preserved each GA generation.
DPF> ga_mutation_rate 0.02                # rate of gene mutation

The mutation rate is 0.020000.
DPF> ga_crossover_rate 0.8                # rate of crossover

The crossover rate is 0.800000.
DPF> ga_window_size 10                    # 

The GA's selection window is 10 generations.
DPF> ga_cauchy_alpha 0.0                  # Alpha parameter of Cauchy distribution

The alpha parameter (for the Cauchy distribution) is being set to 0.000000.
DPF> ga_cauchy_beta 1.0                   # Beta parameter Cauchy distribution

The beta parameter (for the Cauchy distribution) is being set to 1.000000.
DPF> set_ga                               # set the above parameters for GA or LGA

DPF> sw_max_its 300                       # iterations of Solis & Wets local search

Solis & Wets algorithms will perform at most 300 iterations.
DPF> sw_max_succ 4                        # consecutive successes before changing rho

Solis & Wets algorithms expand rho every 4 in a row successes.
DPF> sw_max_fail 4                        # consecutive failures before changing rho

Solis & Wets algorithms contract rho every 4 in a row failures.
DPF> sw_rho 1.0                           # size of local search space to sample

rho is set to 1.000000.
DPF> sw_lb_rho 0.01                       # lower bound on rho

rho will never get smaller than 0.010000.
DPF> ls_search_freq 0.06                  # probability of performing local search on individual

Local search will be performed with frequency 0.060000.
DPF> set_psw1                             # set the above pseudo-Solis & Wets parameters

Creating a new Local Search object using the pseudo-Solis-Wets algorithm (pSW1) with the current settings.

DPF> unbound_model bound                  # state of unbound ligand

DPF> ga_run 100

centering ligand on specified point: -0.011 0.081 -0.051
Furthest true ligand atom from "about" center is 7.119 Angstroms (maxrad).
Number of requested GA dockings = 100 runs
Unbound model to be used is 'same as bound' [AutoDock 4.2 default].

	BEGINNING GENETIC ALGORITHM DOCKING 1 of 100
Run: 1 Seed: 1104299456 2124795405 [ Run 1 of 100 GA/GALS ]
Beginning LAMARCKIAN GENETIC ALGORITHM (LGA), with a maximum of 2500000 energy evaluations.

Final-Value: -14.548


	FINAL GENETIC ALGORITHM DOCKED STATE
	_______________________________________________


Detailed state:  trans 25.545 -16.941 -2.280 quatxyzw -0.115104 0.965699 0.069874 0.222021 center -0.011 0.081 -0.051 ntor 6 -36.7343 -153.0421 -176.6951 -71.6121 -66.7395 17.3284
State:	 25.545 -16.941  -2.280  -0.118  0.990  0.072 154.345    -36.73 -153.04 -176.70  -71.61  -66.74   17.33

DOCKED: MODEL        1
DOCKED: USER    Run = 1
DOCKED: USER    DPF = ligand_dock.biased.dpf
DOCKED: USER  
DOCKED: USER    Estimated Free Energy of Binding    =  -11.99 kcal/mol  [=(1)+(2)+(3)-(4)]
DOCKED: USER    Estimated Inhibition Constant, Ki   =    1.63 nM (nanomolar)  [Temperature = 298.15 K]
DOCKED: USER    
DOCKED: USER    (1) Final Intermolecular Energy     =  -13.78 kcal/mol
DOCKED: USER        vdW + Hbond + desolv Energy     =  -13.78 kcal/mol
DOCKED: USER        Electrostatic Energy            =   +0.00 kcal/mol
DOCKED: USER    (2) Final Total Internal Energy     =   -0.77 kcal/mol
DOCKED: USER    (3) Torsional Free Energy           =   +1.79 kcal/mol
DOCKED: USER    (4) Unbound System's Energy  [=(2)] =   -0.77 kcal/mol
DOCKED: USER    
DOCKED: USER    
DOCKED: USER    NEWDPF move ligand.pdbqt
DOCKED: USER    NEWDPF about -0.011000 0.081000 -0.051000
DOCKED: USER    NEWDPF tran0 25.545330 -16.941074 -2.279699
DOCKED: USER    NEWDPF quaternion0 -0.115104 0.965699 0.069874 0.222021
DOCKED: USER    NEWDPF axisangle0 -0.118051 0.990418 0.071663 154.344510
DOCKED: USER    NEWDPF quat0 -0.118051 0.990418 0.071663 154.344510
DOCKED: USER    NEWDPF dihe0 -36.73 -153.04 -176.70 -71.61 -66.74 17.33 
DOCKED: USER  keepresnum = 1 
DOCKED: USER  
DOCKED: REMARK  Name = 
DOCKED: REMARK  6 active torsions:
DOCKED: REMARK  status: ('A' for Active; 'I' for Inactive)
DOCKED: REMARK    1  A    between atoms: C_2  and  C_5
DOCKED: REMARK    2  A    between atoms: C_5  and  C_6
DOCKED: REMARK    3  A    between atoms: C_6  and  C_7
DOCKED: REMARK    4  A    between atoms: C_7  and  C_8
DOCKED: REMARK    5  A    between atoms: C_8  and  C_9
DOCKED: REMARK    6  A    between atoms: C_9  and  N_10
DOCKED: REMARK                            x       y       z     vdW  Elec       q    Type
DOCKED: REMARK                         _______ _______ _______ _____ _____    ______ ____
DOCKED: USER                              x       y       z     vdW  Elec       q    Type
DOCKED: USER                           _______ _______ _______ _____ _____    ______ ____
DOCKED: ROOT
DOCKED: ATOM      1  N   UNL     1      25.973 -16.128  -2.329 -0.46 -0.00    +0.000 N 
DOCKED: ATOM      2  C   UNL     1      27.154 -16.792  -1.839 -0.40 -0.00    +0.000 C 
DOCKED: ATOM      3  C   UNL     1      28.432 -16.669  -2.576 -0.22 -0.00    +0.000 A 
DOCKED: ATOM      4  C   UNL     1      29.599 -17.287  -2.092 -0.17 -0.00    +0.000 A 
DOCKED: ATOM      5  C   UNL     1      30.804 -17.171  -2.785 -0.14 -0.00    +0.000 A 
DOCKED: ATOM      6  C   UNL     1      30.866 -16.439  -3.971 -0.12 -0.00    +0.000 A 
DOCKED: ATOM      7  C   UNL     1      29.716 -15.816  -4.476 -0.21 -0.00    +0.000 A 
DOCKED: ATOM      8  C   UNL     1      29.779 -15.083  -5.670 -0.24 -0.00    +0.000 A 
DOCKED: ATOM      9  C   UNL     1      28.635 -14.464  -6.174 -0.34 -0.00    +0.000 A 
DOCKED: ATOM     10  C   UNL     1      27.421 -14.568  -5.495 -0.33 -0.00    +0.000 A 
DOCKED: ATOM     11  C   UNL     1      27.333 -15.296  -4.294 -0.38 -0.00    +0.000 A 
DOCKED: ATOM     12  C   UNL     1      28.486 -15.926  -3.777 -0.24 -0.00    +0.000 A 
DOCKED: ATOM     13  O   UNL     1      27.099 -17.482  -0.783 -0.55 -0.00    +0.000 OA
DOCKED: ATOM     14  C   UNL     1      26.044 -15.406  -3.574 -0.55 -0.00    +0.000 C 
DOCKED: ATOM     15  O   UNL     1      25.007 -14.869  -4.054 -0.90 -0.00    +0.000 OA
DOCKED: ENDROOT
DOCKED: BRANCH   1  16
DOCKED: ATOM     16  C   UNL     1      24.691 -16.275  -1.626 -0.51 -0.00    +0.000 C 
DOCKED: BRANCH  16  17
DOCKED: ATOM     17  C   UNL     1      24.150 -17.696  -1.803 -0.64 -0.00    +0.000 C 
DOCKED: BRANCH  17  18
DOCKED: ATOM     18  C   UNL     1      24.143 -18.454  -0.471 -0.75 -0.00    +0.000 C 
DOCKED: BRANCH  18  19
DOCKED: ATOM     19  C   UNL     1      22.710 -18.648   0.045 -0.73 -0.00    +0.000 C 
DOCKED: BRANCH  19  20
DOCKED: ATOM     20  C   UNL     1      21.657 -18.181  -0.969 -0.73 -0.00    +0.000 C 
DOCKED: BRANCH  20  22
DOCKED: ATOM     21  O   UNL     1      20.258 -19.737  -2.124 -2.33 -0.00    +0.000 OA
DOCKED: ATOM     22  C   UNL     1      20.497 -19.131  -1.046 -0.88 -0.00    +0.000 C 
DOCKED: ATOM     23  N   UNL     1      19.686 -19.379   0.105 -0.75 -0.00    +0.000 N 
DOCKED: ATOM     24  O   UNL     1      18.651 -20.248   0.040 -1.00 -0.00    +0.000 OA
DOCKED: ATOM     25  H   UNL     1      19.881 -18.914   0.951 -0.18 -0.00    +0.000 HD
DOCKED: ENDBRANCH  20  22
DOCKED: ENDBRANCH  19  20
DOCKED: ENDBRANCH  18  19
DOCKED: ENDBRANCH  17  18
DOCKED: ENDBRANCH  16  17
DOCKED: ENDBRANCH   1  16
DOCKED: TORSDOF 6
DOCKED: TER
DOCKED: ENDMDL
________________________________________________________________________________


	BEGINNING GENETIC ALGORITHM DOCKING 2 of 100
Run: 2 Seed: 1917526543 240222209 [ Run 2 of 100 GA/GALS ]
Beginning LAMARCKIAN GENETIC ALGORITHM (LGA), with a maximum of 2500000 energy evaluations.

Final-Value: -14.044


	FINAL GENETIC ALGORITHM DOCKED STATE
	_______________________________________________


Detailed state:  trans 26.951 -16.055 -0.519 quatxyzw -0.560366 0.088894 -0.823025 -0.026784 center -0.011 0.081 -0.051 ntor 6 34.8386 -67.0865 134.4871 83.3932 142.5406 178.7548
State:	 26.951 -16.055  -0.519  -0.561  0.089 -0.823 -176.930     34.84  -67.09  134.49   83.39  142.54  178.75

DOCKED: MODEL        2
DOCKED: USER    Run = 2
DOCKED: USER    DPF = ligand_dock.biased.dpf
DOCKED: USER  
DOCKED: USER    Estimated Free Energy of Binding    =  -11.38 kcal/mol  [=(1)+(2)+(3)-(4)]
DOCKED: USER    Estimated Inhibition Constant, Ki   =    4.52 nM (nanomolar)  [Temperature = 298.15 K]
DOCKED: USER    
DOCKED: USER    (1) Final Intermolecular Energy     =  -13.17 kcal/mol
DOCKED: USER        vdW + Hbond + desolv Energy     =  -13.17 kcal/mol
DOCKED: USER        Electrostatic Energy            =   +0.00 kcal/mol
DOCKED: USER    (2) Final Total Internal Energy     =   -0.87 kcal/mol
DOCKED: USER    (3) Torsional Free Energy           =   +1.79 kcal/mol
DOCKED: USER    (4) Unbound System's Energy  [=(2)] =   -0.87 kcal/mol
DOCKED: USER    
DOCKED: USER    
DOCKED: USER    NEWDPF move ligand.pdbqt
DOCKED: USER    NEWDPF about -0.011000 0.081000 -0.051000
DOCKED: USER    NEWDPF tran0 26.950795 -16.054658 -0.519149
DOCKED: USER    NEWDPF quaternion0 -0.560366 0.088894 -0.823025 -0.026784
DOCKED: USER    NEWDPF axisangle0 -0.560568 0.088926 -0.823320 -176.930363
DOCKED: USER    NEWDPF quat0 -0.560568 0.088926 -0.823320 -176.930363
DOCKED: USER    NEWDPF dihe0 34.84 -67.09 134.49 83.39 142.54 178.75 
DOCKED: USER  keepresnum = 1 
DOCKED: USER  
DOCKED: REMARK  Name = 
DOCKED: REMARK  6 active torsions:
DOCKED: REMARK  status: ('A' for Active; 'I' for Inactive)
DOCKED: REMARK    1  A    between atoms: C_2  and  C_5
DOCKED: REMARK    2  A    between atoms: C_5  and  C_6
DOCKED: REMARK    3  A    between atoms: C_6  and  C_7
DOCKED: REMARK    4  A    between atoms: C_7  and  C_8
DOCKED: REMARK    5  A    between atoms: C_8  and  C_9
DOCKED: REMARK    6  A    between atoms: C_9  and  N_10
DOCKED: REMARK                            x       y       z     vdW  Elec       q    Type
DOCKED: REMARK                         _______ _______ _______ _____ _____    ______ ____
DOCKED: USER                              x       y       z     vdW  Elec       q    Type
DOCKED: USER                           _______ _______ _______ _____ _____    ______ ____
DOCKED: ROOT
DOCKED: ATOM      1  N   UNL     1      27.063 -16.639  -1.220 -0.40 -0.00    +0.000 N 
DOCKED: ATOM      2  C   UNL     1      26.407 -15.665  -2.054 -0.44 -0.00    +0.000 C 
DOCKED: ATOM      3  C   UNL     1      27.052 -15.209  -3.307 -0.34 -0.00    +0.000 A 
DOCKED: ATOM      4  C   UNL     1      26.409 -14.281  -4.145 -0.41 -0.00    +0.000 A 
DOCKED: ATOM      5  C   UNL     1      27.016 -13.851  -5.325 -0.17 -0.00    +0.000 A 
DOCKED: ATOM      6  C   UNL     1      28.271 -14.338  -5.689 -0.32 -0.00    +0.000 A 
DOCKED: ATOM      7  C   UNL     1      28.934 -15.262  -4.870 -0.27 -0.00    +0.000 A 
DOCKED: ATOM      8  C   UNL     1      30.197 -15.748  -5.234 -0.21 -0.00    +0.000 A 
DOCKED: ATOM      9  C   UNL     1      30.858 -16.667  -4.418 -0.15 -0.00    +0.000 A 
DOCKED: ATOM     10  C   UNL     1      30.268 -17.108  -3.234 -0.18 -0.00    +0.000 A 
DOCKED: ATOM     11  C   UNL     1      29.001 -16.637  -2.847 -0.22 -0.00    +0.000 A 
DOCKED: ATOM     12  C   UNL     1      28.325 -15.707  -3.667 -0.25 -0.00    +0.000 A 
DOCKED: ATOM     13  O   UNL     1      25.285 -15.196  -1.717 -0.44 -0.00    +0.000 OA
DOCKED: ATOM     14  C   UNL     1      28.375 -17.106  -1.590 -0.32 -0.00    +0.000 C 
DOCKED: ATOM     15  O   UNL     1      28.993 -17.913  -0.842 -0.35 -0.00    +0.000 OA
DOCKED: ENDROOT
DOCKED: BRANCH   1  16
DOCKED: ATOM     16  C   UNL     1      26.448 -17.071   0.044 -0.43 -0.00    +0.000 C 
DOCKED: BRANCH  16  17
DOCKED: ATOM     17  C   UNL     1      25.565 -18.299  -0.189 -0.66 -0.00    +0.000 C 
DOCKED: BRANCH  17  18
DOCKED: ATOM     18  C   UNL     1      24.828 -18.203  -1.530 -0.49 -0.00    +0.000 C 
DOCKED: BRANCH  18  19
DOCKED: ATOM     19  C   UNL     1      23.409 -17.649  -1.340 -0.69 -0.00    +0.000 C 
DOCKED: BRANCH  19  20
DOCKED: ATOM     20  C   UNL     1      22.706 -18.253  -0.117 -0.80 -0.00    +0.000 C 
DOCKED: BRANCH  20  22
DOCKED: ATOM     21  O   UNL     1      20.548 -17.843  -1.060 -2.21 -0.00    +0.000 OA
DOCKED: ATOM     22  C   UNL     1      21.288 -18.640  -0.423 -0.81 -0.00    +0.000 C 
DOCKED: ATOM     23  N   UNL     1      20.785 -19.918  -0.029 -0.71 -0.00    +0.000 N 
DOCKED: ATOM     24  O   UNL     1      19.512 -20.274  -0.320 -1.31 -0.00    +0.000 OA
DOCKED: ATOM     25  H   UNL     1      21.368 -20.545   0.459 -0.59 -0.00    +0.000 HD
DOCKED: ENDBRANCH  20  22
DOCKED: ENDBRANCH  19  20
DOCKED: ENDBRANCH  18  19
DOCKED: ENDBRANCH  17  18
DOCKED: ENDBRANCH  16  17
DOCKED: ENDBRANCH   1  16
DOCKED: TORSDOF 6
DOCKED: TER
DOCKED: ENDMDL
________________________________________________________________________________


	BEGINNING GENETIC ALGORITHM DOCKING 3 of 100
Run: 3 Seed: 785054050 330379023 [ Run 3 of 100 GA/GALS ]
Beginning LAMARCKIAN GENETIC ALGORITHM (LGA), with a maximum of 2500000 energy evaluations.

Final-Value: -13.338


	FINAL GENETIC ALGORITHM DOCKED STATE
	_______________________________________________


Detailed state:  trans 27.047 -14.675 -3.154 quatxyzw -0.155958 -0.287568 -0.921926 0.207448 center -0.011 0.081 -0.051 ntor 6 -7.6143 -160.6606 43.3559 6.7105 -84.6242 171.0982
State:	 27.047 -14.675  -3.154  -0.159 -0.294 -0.942 156.054     -7.61 -160.66   43.36    6.71  -84.62  171.10

DOCKED: MODEL        3
DOCKED: USER    Run = 3
DOCKED: USER    DPF = ligand_dock.biased.dpf
DOCKED: USER  
DOCKED: USER    Estimated Free Energy of Binding    =  -10.81 kcal/mol  [=(1)+(2)+(3)-(4)]
DOCKED: USER    Estimated Inhibition Constant, Ki   =   11.82 nM (nanomolar)  [Temperature = 298.15 K]
DOCKED: USER    
DOCKED: USER    (1) Final Intermolecular Energy     =  -12.60 kcal/mol
DOCKED: USER        vdW + Hbond + desolv Energy     =  -12.60 kcal/mol
DOCKED: USER        Electrostatic Energy            =   +0.00 kcal/mol
DOCKED: USER    (2) Final Total Internal Energy     =   -0.73 kcal/mol
DOCKED: USER    (3) Torsional Free Energy           =   +1.79 kcal/mol
DOCKED: USER    (4) Unbound System's Energy  [=(2)] =   -0.73 kcal/mol
DOCKED: USER    
DOCKED: USER    
DOCKED: USER    NEWDPF move ligand.pdbqt
DOCKED: USER    NEWDPF about -0.011000 0.081000 -0.051000
DOCKED: USER    NEWDPF tran0 27.047077 -14.674745 -3.153980
DOCKED: USER    NEWDPF quaternion0 -0.155958 -0.287568 -0.921926 0.207448
DOCKED: USER    NEWDPF axisangle0 -0.159426 -0.293963 -0.942427 156.054277
DOCKED: USER    NEWDPF quat0 -0.159426 -0.293963 -0.942427 156.054277
DOCKED: USER    NEWDPF dihe0 -7.61 -160.66 43.36 6.71 -84.62 171.10 
DOCKED: USER  keepresnum = 1 
DOCKED: USER  
DOCKED: REMARK  Name = 
DOCKED: REMARK  6 active torsions:
DOCKED: REMARK  status: ('A' for Active; 'I' for Inactive)
DOCKED: REMARK    1  A    between atoms: C_2  and  C_5
DOCKED: REMARK    2  A    between atoms: C_5  and  C_6
DOCKED: REMARK    3  A    between atoms: C_6  and  C_7
DOCKED: REMARK    4  A    between atoms: C_7  and  C_8
DOCKED: REMARK    5  A    between atoms: C_8  and  C_9
DOCKED: REMARK    6  A    between atoms: C_9  and  N_10
DOCKED: REMARK                            x       y       z     vdW  Elec       q    Type
DOCKED: REMARK                         _______ _______ _______ _____ _____    ______ ____
DOCKED: USER                              x       y       z     vdW  Elec       q    Type
DOCKED: USER                           _______ _______ _______ _____ _____    ______ ____
DOCKED: ROOT
DOCKED: ATOM      1  N   UNL     1      27.333 -15.513  -2.905 -0.29 -0.00    +0.000 N 
DOCKED: ATOM      2  C   UNL     1      27.718 -15.720  -4.277 -0.27 -0.00    +0.000 C 
DOCKED: ATOM      3  C   UNL     1      29.093 -16.164  -4.600 -0.25 -0.00    +0.000 A 
DOCKED: ATOM      4  C   UNL     1      29.473 -16.398  -5.934 -0.25 -0.00    +0.000 A 
DOCKED: ATOM      5  C   UNL     1      30.769 -16.817  -6.239 -0.26 -0.00    +0.000 A 
DOCKED: ATOM      6  C   UNL     1      31.705 -17.007  -5.223 -0.11 -0.00    +0.000 A 
DOCKED: ATOM      7  C   UNL     1      31.352 -16.778  -3.886 -0.10 -0.00    +0.000 A 
DOCKED: ATOM      8  C   UNL     1      32.295 -16.966  -2.866 -0.04 -0.00    +0.000 A 
DOCKED: ATOM      9  C   UNL     1      31.944 -16.736  -1.535 -0.06 -0.00    +0.000 A 
DOCKED: ATOM     10  C   UNL     1      30.654 -16.317  -1.210 -0.12 -0.00    +0.000 A 
DOCKED: ATOM     11  C   UNL     1      29.689 -16.123  -2.215 -0.16 -0.00    +0.000 A 
DOCKED: ATOM     12  C   UNL     1      30.036 -16.353  -3.565 -0.17 -0.00    +0.000 A 
DOCKED: ATOM     13  O   UNL     1      26.886 -15.520  -5.205 -1.09 +0.00    +0.000 OA
DOCKED: ATOM     14  C   UNL     1      28.320 -15.678  -1.869 -0.25 -0.00    +0.000 C 
DOCKED: ATOM     15  O   UNL     1      28.021 -15.442  -0.665 -0.26 -0.00    +0.000 OA
DOCKED: ENDROOT
DOCKED: BRANCH   1  16
DOCKED: ATOM     16  C   UNL     1      25.981 -15.036  -2.575 -0.46 -0.00    +0.000 C 
DOCKED: BRANCH  16  17
DOCKED: ATOM     17  C   UNL     1      25.001 -16.211  -2.539 -0.43 -0.00    +0.000 C 
DOCKED: BRANCH  17  18
DOCKED: ATOM     18  C   UNL     1      24.821 -16.736  -1.110 -0.63 -0.00    +0.000 C 
DOCKED: BRANCH  18  19
DOCKED: ATOM     19  C   UNL     1      23.976 -18.018  -1.097 -0.78 -0.00    +0.000 C 
DOCKED: BRANCH  19  20
DOCKED: ATOM     20  C   UNL     1      22.883 -17.986  -0.020 -0.72 -0.00    +0.000 C 
DOCKED: BRANCH  20  22
DOCKED: ATOM     21  O   UNL     1      20.799 -17.486  -1.078 -2.03 -0.00    +0.000 OA
DOCKED: ATOM     22  C   UNL     1      21.542 -18.370  -0.574 -0.82 -0.00    +0.000 C 
DOCKED: ATOM     23  N   UNL     1      21.119 -19.735  -0.565 -0.74 -0.00    +0.000 N 
DOCKED: ATOM     24  O   UNL     1      19.918 -20.085  -1.080 -1.94 -0.00    +0.000 OA
DOCKED: ATOM     25  H   UNL     1      21.706 -20.427  -0.181 -0.36 -0.00    +0.000 HD
DOCKED: ENDBRANCH  20  22
DOCKED: ENDBRANCH  19  20
DOCKED: ENDBRANCH  18  19
DOCKED: ENDBRANCH  17  18
DOCKED: ENDBRANCH  16  17
DOCKED: ENDBRANCH   1  16
DOCKED: TORSDOF 6
DOCKED: TER
DOCKED: ENDMDL
________________________________________________________________________________


	BEGINNING GENETIC ALGORITHM DOCKING 4 of 100
Run: 4 Seed: 507907595 1713833069 [ Run 4 of 100 GA/GALS ]
Beginning LAMARCKIAN GENETIC ALGORITHM (LGA), with a maximum of 2500000 energy evaluations.

Final-Value: -13.630


	FINAL GENETIC ALGORITHM DOCKED STATE
	_______________________________________________


Detailed state:  trans 25.944 -15.205 -2.601 quatxyzw 0.158324 0.315231 0.917966 0.181385 center -0.011 0.081 -0.051 ntor 6 -70.6796 -128.5250 56.9465 -84.9836 -28.0897 -174.6451
State:	 25.944 -15.205  -2.601   0.161  0.321  0.933 159.099    -70.68 -128.53   56.95  -84.98  -28.09 -174.65

DOCKED: MODEL        4
DOCKED: USER    Run = 4
DOCKED: USER    DPF = ligand_dock.biased.dpf
DOCKED: USER  
DOCKED: USER    Estimated Free Energy of Binding    =  -11.14 kcal/mol  [=(1)+(2)+(3)-(4)]
DOCKED: USER    Estimated Inhibition Constant, Ki   =    6.83 nM (nanomolar)  [Temperature = 298.15 K]
DOCKED: USER    
DOCKED: USER    (1) Final Intermolecular Energy     =  -12.93 kcal/mol
DOCKED: USER        vdW + Hbond + desolv Energy     =  -12.93 kcal/mol
DOCKED: USER        Electrostatic Energy            =   +0.00 kcal/mol
DOCKED: USER    (2) Final Total Internal Energy     =   -0.70 kcal/mol
DOCKED: USER    (3) Torsional Free Energy           =   +1.79 kcal/mol
DOCKED: USER    (4) Unbound System's Energy  [=(2)] =   -0.70 kcal/mol
DOCKED: USER    
DOCKED: USER    
DOCKED: USER    NEWDPF move ligand.pdbqt
DOCKED: USER    NEWDPF about -0.011000 0.081000 -0.051000
DOCKED: USER    NEWDPF tran0 25.944315 -15.204747 -2.601302
DOCKED: USER    NEWDPF quaternion0 0.158324 0.315231 0.917966 0.181385
DOCKED: USER    NEWDPF axisangle0 0.160994 0.320549 0.933450 159.099089
DOCKED: USER    NEWDPF quat0 0.160994 0.320549 0.933450 159.099089
DOCKED: USER    NEWDPF dihe0 -70.68 -128.53 56.95 -84.98 -28.09 -174.65 
DOCKED: USER  keepresnum = 1 
DOCKED: USER  
DOCKED: REMARK  Name = 
DOCKED: REMARK  6 active torsions:
DOCKED: REMARK  status: ('A' for Active; 'I' for Inactive)
DOCKED: REMARK    1  A    between atoms: C_2  and  C_5
DOCKED: REMARK    2  A    between atoms: C_5  and  C_6
DOCKED: REMARK    3  A    between atoms: C_6  and  C_7
DOCKED: REMARK    4  A    between atoms: C_7  and  C_8
DOCKED: REMARK    5  A    between atoms: C_8  and  C_9
DOCKED: REMARK    6  A    between atoms: C_9  and  N_10
DOCKED: REMARK                            x       y       z     vdW  Elec       q    Type
DOCKED: REMARK                         _______ _______ _______ _____ _____    ______ ____
DOCKED: USER                              x       y       z     vdW  Elec       q    Type
DOCKED: USER                           _______ _______ _______ _____ _____    ______ ____
DOCKED: ROOT
DOCKED: ATOM      1  N   UNL     1      26.761 -15.623  -2.543 -0.34 -0.00    +0.000 N 
DOCKED: ATOM      2  C   UNL     1      26.832 -15.547  -3.979 -0.44 -0.00    +0.000 C 
DOCKED: ATOM      3  C   UNL     1      28.021 -14.952  -4.630 -0.32 -0.00    +0.000 A 
DOCKED: ATOM      4  C   UNL     1      28.116 -14.899  -6.033 -0.35 -0.00    +0.000 A 
DOCKED: ATOM      5  C   UNL     1      29.236 -14.338  -6.648 -0.31 -0.00    +0.000 A 
DOCKED: ATOM      6  C   UNL     1      30.277 -13.822  -5.877 -0.12 -0.00    +0.000 A 
DOCKED: ATOM      7  C   UNL     1      30.206 -13.861  -4.478 -0.06 -0.00    +0.000 A 
DOCKED: ATOM      8  C   UNL     1      31.252 -13.338  -3.704 -0.02 -0.00    +0.000 A 
DOCKED: ATOM      9  C   UNL     1      31.180 -13.375  -2.311 -0.01 -0.00    +0.000 A 
DOCKED: ATOM     10  C   UNL     1      30.069 -13.931  -1.678 -0.03 -0.00    +0.000 A 
DOCKED: ATOM     11  C   UNL     1      29.007 -14.464  -2.432 -0.10 -0.00    +0.000 A 
DOCKED: ATOM     12  C   UNL     1      29.072 -14.430  -3.842 -0.13 -0.00    +0.000 A 
DOCKED: ATOM     13  O   UNL     1      25.880 -15.984  -4.683 -0.87 -0.00    +0.000 OA
DOCKED: ATOM     14  C   UNL     1      27.828 -15.053  -1.759 -0.24 -0.00    +0.000 C 
DOCKED: ATOM     15  O   UNL     1      27.757 -15.054  -0.498 -0.25 -0.00    +0.000 OA
DOCKED: ENDROOT
DOCKED: BRANCH   1  16
DOCKED: ATOM     16  C   UNL     1      25.569 -16.178  -1.885 -0.56 -0.00    +0.000 C 
DOCKED: BRANCH  16  17
DOCKED: ATOM     17  C   UNL     1      25.804 -17.645  -1.514 -0.47 -0.00    +0.000 C 
DOCKED: BRANCH  17  18
DOCKED: ATOM     18  C   UNL     1      24.971 -18.046  -0.292 -0.70 -0.00    +0.000 C 
DOCKED: BRANCH  18  19
DOCKED: ATOM     19  C   UNL     1      23.649 -18.701  -0.717 -0.81 -0.00    +0.000 C 
DOCKED: BRANCH  19  20
DOCKED: ATOM     20  C   UNL     1      22.425 -17.929  -0.208 -0.79 -0.00    +0.000 C 
DOCKED: BRANCH  20  22
DOCKED: ATOM     21  O   UNL     1      20.246 -17.474  -1.079 -1.99 -0.00    +0.000 OA
DOCKED: ATOM     22  C   UNL     1      21.176 -18.314  -0.946 -0.72 -0.00    +0.000 C 
DOCKED: ATOM     23  N   UNL     1      21.050 -19.614  -1.527 -0.74 -0.00    +0.000 N 
DOCKED: ATOM     24  O   UNL     1      19.931 -19.956  -2.207 -2.24 -0.00    +0.000 OA
DOCKED: ATOM     25  H   UNL     1      21.782 -20.266  -1.432 -0.33 -0.00    +0.000 HD
DOCKED: ENDBRANCH  20  22
DOCKED: ENDBRANCH  19  20
DOCKED: ENDBRANCH  18  19
DOCKED: ENDBRANCH  17  18
DOCKED: ENDBRANCH  16  17
DOCKED: ENDBRANCH   1  16
DOCKED: TORSDOF 6
DOCKED: TER
DOCKED: ENDMDL
________________________________________________________________________________


	BEGINNING GENETIC ALGORITHM DOCKING 5 of 100
Run: 5 Seed: 1065230104 1437577384 [ Run 5 of 100 GA/GALS ]
Beginning LAMARCKIAN GENETIC ALGORITHM (LGA), with a maximum of 2500000 energy evaluations.

Final-Value: -13.803


	FINAL GENETIC ALGORITHM DOCKED STATE
	_______________________________________________


Detailed state:  trans 27.446 -15.175 -1.298 quatxyzw 0.491988 0.025139 0.861753 -0.121232 center -0.011 0.081 -0.051 ntor 6 -34.8854 -177.9512 -116.6216 -25.4790 104.5070 -179.2828
State:	 27.446 -15.175  -1.298   0.496  0.025  0.868 -166.074    -34.89 -177.95 -116.62  -25.48  104.51 -179.28

DOCKED: MODEL        5
DOCKED: USER    Run = 5
DOCKED: USER    DPF = ligand_dock.biased.dpf
DOCKED: USER  
DOCKED: USER    Estimated Free Energy of Binding    =  -11.18 kcal/mol  [=(1)+(2)+(3)-(4)]
DOCKED: USER    Estimated Inhibition Constant, Ki   =    6.42 nM (nanomolar)  [Temperature = 298.15 K]
DOCKED: USER    
DOCKED: USER    (1) Final Intermolecular Energy     =  -12.97 kcal/mol
DOCKED: USER        vdW + Hbond + desolv Energy     =  -12.97 kcal/mol
DOCKED: USER        Electrostatic Energy            =   +0.00 kcal/mol
DOCKED: USER    (2) Final Total Internal Energy     =   -0.84 kcal/mol
DOCKED: USER    (3) Torsional Free Energy           =   +1.79 kcal/mol
DOCKED: USER    (4) Unbound System's Energy  [=(2)] =   -0.84 kcal/mol
DOCKED: USER    
DOCKED: USER    
DOCKED: USER    NEWDPF move ligand.pdbqt
DOCKED: USER    NEWDPF about -0.011000 0.081000 -0.051000
DOCKED: USER    NEWDPF tran0 27.445899 -15.175302 -1.297841
DOCKED: USER    NEWDPF quaternion0 0.491988 0.025139 0.861753 -0.121232
DOCKED: USER    NEWDPF axisangle0 0.495644 0.025326 0.868157 -166.073560
DOCKED: USER    NEWDPF quat0 0.495644 0.025326 0.868157 -166.073560
DOCKED: USER    NEWDPF dihe0 -34.89 -177.95 -116.62 -25.48 104.51 -179.28 
DOCKED: USER  keepresnum = 1 
DOCKED: USER  
DOCKED: REMARK  Name = 
DOCKED: REMARK  6 active torsions:
DOCKED: REMARK  status: ('A' for Active; 'I' for Inactive)
DOCKED: REMARK    1  A    between atoms: C_2  and  C_5
DOCKED: REMARK    2  A    between atoms: C_5  and  C_6
DOCKED: REMARK    3  A    between atoms: C_6  and  C_7
DOCKED: REMARK    4  A    between atoms: C_7  and  C_8
DOCKED: REMARK    5  A    between atoms: C_8  and  C_9
DOCKED: REMARK    6  A    between atoms: C_9  and  N_10
DOCKED: REMARK                            x       y       z     vdW  Elec       q    Type
DOCKED: REMARK                         _______ _______ _______ _____ _____    ______ ____
DOCKED: USER                              x       y       z     vdW  Elec       q    Type
DOCKED: USER                           _______ _______ _______ _____ _____    ______ ____
DOCKED: ROOT
DOCKED: ATOM      1  N   UNL     1      27.544 -15.981  -1.731 -0.29 -0.00    +0.000 N 
DOCKED: ATOM      2  C   UNL     1      27.139 -15.308  -2.938 -0.35 -0.00    +0.000 C 
DOCKED: ATOM      3  C   UNL     1      27.980 -15.400  -4.154 -0.30 -0.00    +0.000 A 
DOCKED: ATOM      4  C   UNL     1      27.581 -14.772  -5.348 -0.38 -0.00    +0.000 A 
DOCKED: ATOM      5  C   UNL     1      28.371 -14.859  -6.494 -0.26 -0.00    +0.000 A 
DOCKED: ATOM      6  C   UNL     1      29.571 -15.571  -6.470 -0.30 -0.00    +0.000 A 
DOCKED: ATOM      7  C   UNL     1      29.992 -16.203  -5.292 -0.26 -0.00    +0.000 A 
DOCKED: ATOM      8  C   UNL     1      31.199 -16.915  -5.267 -0.16 -0.00    +0.000 A 
DOCKED: ATOM      9  C   UNL     1      31.619 -17.543  -4.094 -0.12 -0.00    +0.000 A 
DOCKED: ATOM     10  C   UNL     1      30.843 -17.468  -2.938 -0.15 -0.00    +0.000 A 
DOCKED: ATOM     11  C   UNL     1      29.627 -16.761  -2.938 -0.20 -0.00    +0.000 A 
DOCKED: ATOM     12  C   UNL     1      29.194 -16.122  -4.121 -0.24 -0.00    +0.000 A 
DOCKED: ATOM     13  O   UNL     1      26.071 -14.636  -2.961 -0.42 -0.00    +0.000 OA
DOCKED: ATOM     14  C   UNL     1      28.803 -16.681  -1.710 -0.29 -0.00    +0.000 C 
DOCKED: ATOM     15  O   UNL     1      29.206 -17.226  -0.645 -0.32 -0.00    +0.000 OA
DOCKED: ENDROOT
DOCKED: BRANCH   1  16
DOCKED: ATOM     16  C   UNL     1      26.737 -15.864  -0.508 -0.41 -0.00    +0.000 C 
DOCKED: BRANCH  16  17
DOCKED: ATOM     17  C   UNL     1      25.741 -17.024  -0.420 -0.54 -0.00    +0.000 C 
DOCKED: BRANCH  17  18
DOCKED: ATOM     18  C   UNL     1      24.569 -16.820  -1.386 -0.65 -0.00    +0.000 C 
DOCKED: BRANCH  18  19
DOCKED: ATOM     19  C   UNL     1      23.934 -18.164  -1.773 -0.66 -0.00    +0.000 C 
DOCKED: BRANCH  19  20
DOCKED: ATOM     20  C   UNL     1      23.250 -18.850  -0.583 -0.79 -0.00    +0.000 C 
DOCKED: BRANCH  20  22
DOCKED: ATOM     21  O   UNL     1      21.006 -18.294   0.022 -1.50 -0.00    +0.000 OA
DOCKED: ATOM     22  C   UNL     1      21.762 -18.925  -0.763 -0.85 -0.00    +0.000 C 
DOCKED: ATOM     23  N   UNL     1      21.200 -19.679  -1.839 -0.56 -0.00    +0.000 N 
DOCKED: ATOM     24  O   UNL     1      19.859 -19.733  -2.012 -2.34 -0.00    +0.000 OA
DOCKED: ATOM     25  H   UNL     1      21.792 -20.164  -2.460 -0.61 -0.00    +0.000 HD
DOCKED: ENDBRANCH  20  22
DOCKED: ENDBRANCH  19  20
DOCKED: ENDBRANCH  18  19
DOCKED: ENDBRANCH  17  18
DOCKED: ENDBRANCH  16  17
DOCKED: ENDBRANCH   1  16
DOCKED: TORSDOF 6
DOCKED: TER
DOCKED: ENDMDL
________________________________________________________________________________


	BEGINNING GENETIC ALGORITHM DOCKING 6 of 100
Run: 6 Seed: 713293938 91112786 [ Run 6 of 100 GA/GALS ]
Beginning LAMARCKIAN GENETIC ALGORITHM (LGA), with a maximum of 2500000 energy evaluations.

Final-Value: -13.572


	FINAL GENETIC ALGORITHM DOCKED STATE
	_______________________________________________


Detailed state:  trans 28.137 -15.861 -0.890 quatxyzw -0.737906 0.219179 -0.637988 -0.020654 center -0.011 0.081 -0.051 ntor 6 163.0281 -75.5527 56.3606 -12.7123 98.6039 -180.0000
State:	 28.137 -15.861  -0.890  -0.738  0.219 -0.638 -177.633    163.03  -75.55   56.36  -12.71   98.60 -180.00

DOCKED: MODEL        6
DOCKED: USER    Run = 6
DOCKED: USER    DPF = ligand_dock.biased.dpf
DOCKED: USER  
DOCKED: USER    Estimated Free Energy of Binding    =  -10.93 kcal/mol  [=(1)+(2)+(3)-(4)]
DOCKED: USER    Estimated Inhibition Constant, Ki   =    9.73 nM (nanomolar)  [Temperature = 298.15 K]
DOCKED: USER    
DOCKED: USER    (1) Final Intermolecular Energy     =  -12.72 kcal/mol
DOCKED: USER        vdW + Hbond + desolv Energy     =  -12.72 kcal/mol
DOCKED: USER        Electrostatic Energy            =   +0.00 kcal/mol
DOCKED: USER    (2) Final Total Internal Energy     =   -0.85 kcal/mol
DOCKED: USER    (3) Torsional Free Energy           =   +1.79 kcal/mol
DOCKED: USER    (4) Unbound System's Energy  [=(2)] =   -0.85 kcal/mol
DOCKED: USER    
DOCKED: USER    
DOCKED: USER    NEWDPF move ligand.pdbqt
DOCKED: USER    NEWDPF about -0.011000 0.081000 -0.051000
DOCKED: USER    NEWDPF tran0 28.136778 -15.861025 -0.889762
DOCKED: USER    NEWDPF quaternion0 -0.737906 0.219179 -0.637988 -0.020654
DOCKED: USER    NEWDPF axisangle0 -0.738064 0.219226 -0.638124 -177.633085
DOCKED: USER    NEWDPF quat0 -0.738064 0.219226 -0.638124 -177.633085
DOCKED: USER    NEWDPF dihe0 163.03 -75.55 56.36 -12.71 98.60 -180.00 
DOCKED: USER  keepresnum = 1 
DOCKED: USER  
DOCKED: REMARK  Name = 
DOCKED: REMARK  6 active torsions:
DOCKED: REMARK  status: ('A' for Active; 'I' for Inactive)
DOCKED: REMARK    1  A    between atoms: C_2  and  C_5
DOCKED: REMARK    2  A    between atoms: C_5  and  C_6
DOCKED: REMARK    3  A    between atoms: C_6  and  C_7
DOCKED: REMARK    4  A    between atoms: C_7  and  C_8
DOCKED: REMARK    5  A    between atoms: C_8  and  C_9
DOCKED: REMARK    6  A    between atoms: C_9  and  N_10
DOCKED: REMARK                            x       y       z     vdW  Elec       q    Type
DOCKED: REMARK                         _______ _______ _______ _____ _____    ______ ____
DOCKED: USER                              x       y       z     vdW  Elec       q    Type
DOCKED: USER                           _______ _______ _______ _____ _____    ______ ____
DOCKED: ROOT
DOCKED: ATOM      1  N   UNL     1      27.803 -16.256  -1.650 -0.30 -0.00    +0.000 N 
DOCKED: ATOM      2  C   UNL     1      27.006 -15.072  -1.839 -0.32 -0.00    +0.000 C 
DOCKED: ATOM      3  C   UNL     1      27.047 -14.351  -3.132 -0.27 -0.00    +0.000 A 
DOCKED: ATOM      4  C   UNL     1      26.251 -13.210  -3.339 -0.21 -0.00    +0.000 A 
DOCKED: ATOM      5  C   UNL     1      26.289 -12.530  -4.557 -0.29 -0.00    +0.000 A 
DOCKED: ATOM      6  C   UNL     1      27.120 -12.974  -5.585 -0.13 -0.00    +0.000 A 
DOCKED: ATOM      7  C   UNL     1      27.925 -14.106  -5.403 -0.30 -0.00    +0.000 A 
DOCKED: ATOM      8  C   UNL     1      28.763 -14.550  -6.436 -0.33 -0.00    +0.000 A 
DOCKED: ATOM      9  C   UNL     1      29.566 -15.676  -6.254 -0.32 -0.00    +0.000 A 
DOCKED: ATOM     10  C   UNL     1      29.542 -16.370  -5.043 -0.28 -0.00    +0.000 A 
DOCKED: ATOM     11  C   UNL     1      28.709 -15.946  -3.992 -0.25 -0.00    +0.000 A 
DOCKED: ATOM     12  C   UNL     1      27.893 -14.806  -4.168 -0.28 -0.00    +0.000 A 
DOCKED: ATOM     13  O   UNL     1      26.274 -14.646  -0.903 -0.36 -0.00    +0.000 OA
DOCKED: ATOM     14  C   UNL     1      28.684 -16.682  -2.708 -0.25 -0.00    +0.000 C 
DOCKED: ATOM     15  O   UNL     1      29.437 -17.682  -2.541 -0.11 -0.00    +0.000 OA
DOCKED: ENDROOT
DOCKED: BRANCH   1  16
DOCKED: ATOM     16  C   UNL     1      27.798 -16.959  -0.358 -0.39 -0.00    +0.000 C 
DOCKED: BRANCH  16  17
DOCKED: ATOM     17  C   UNL     1      26.737 -18.063  -0.361 -0.57 -0.00    +0.000 C 
DOCKED: BRANCH  17  18
DOCKED: ATOM     18  C   UNL     1      25.346 -17.492  -0.066 -0.48 -0.00    +0.000 C 
DOCKED: BRANCH  18  19
DOCKED: ATOM     19  C   UNL     1      24.251 -18.526  -0.369 -0.72 -0.00    +0.000 C 
DOCKED: BRANCH  19  20
DOCKED: ATOM     20  C   UNL     1      23.259 -18.031  -1.430 -0.72 -0.00    +0.000 C 
DOCKED: BRANCH  20  22
DOCKED: ATOM     21  O   UNL     1      21.144 -17.865  -0.331 -1.84 +0.00    +0.000 OA
DOCKED: ATOM     22  C   UNL     1      21.861 -18.500  -1.148 -0.71 -0.00    +0.000 C 
DOCKED: ATOM     23  N   UNL     1      21.329 -19.640  -1.826 -0.52 -0.00    +0.000 N 
DOCKED: ATOM     24  O   UNL     1      20.063 -20.052  -1.585 -2.16 -0.00    +0.000 OA
DOCKED: ATOM     25  H   UNL     1      21.887 -20.129  -2.474 -0.61 -0.00    +0.000 HD
DOCKED: ENDBRANCH  20  22
DOCKED: ENDBRANCH  19  20
DOCKED: ENDBRANCH  18  19
DOCKED: ENDBRANCH  17  18
DOCKED: ENDBRANCH  16  17
DOCKED: ENDBRANCH   1  16
DOCKED: TORSDOF 6
DOCKED: TER
DOCKED: ENDMDL
________________________________________________________________________________


	BEGINNING GENETIC ALGORITHM DOCKING 7 of 100
Run: 7 Seed: 1056710254 1126987613 [ Run 7 of 100 GA/GALS ]
Beginning LAMARCKIAN GENETIC ALGORITHM (LGA), with a maximum of 2500000 energy evaluations.

Final-Value: -13.772


	FINAL GENETIC ALGORITHM DOCKED STATE
	_______________________________________________


Detailed state:  trans 26.168 -15.059 -2.376 quatxyzw -0.304924 0.002041 -0.944007 0.125970 center -0.011 0.081 -0.051 ntor 6 140.2829 -24.1574 120.8992 6.6187 -29.8921 -149.7163
State:	 26.168 -15.059  -2.376  -0.307  0.002 -0.952 165.527    140.28  -24.16  120.90    6.62  -29.89 -149.72

DOCKED: MODEL        7
DOCKED: USER    Run = 7
DOCKED: USER    DPF = ligand_dock.biased.dpf
DOCKED: USER  
DOCKED: USER    Estimated Free Energy of Binding    =  -11.27 kcal/mol  [=(1)+(2)+(3)-(4)]
DOCKED: USER    Estimated Inhibition Constant, Ki   =    5.44 nM (nanomolar)  [Temperature = 298.15 K]
DOCKED: USER    
DOCKED: USER    (1) Final Intermolecular Energy     =  -13.06 kcal/mol
DOCKED: USER        vdW + Hbond + desolv Energy     =  -13.06 kcal/mol
DOCKED: USER        Electrostatic Energy            =   +0.00 kcal/mol
DOCKED: USER    (2) Final Total Internal Energy     =   -0.71 kcal/mol
DOCKED: USER    (3) Torsional Free Energy           =   +1.79 kcal/mol
DOCKED: USER    (4) Unbound System's Energy  [=(2)] =   -0.71 kcal/mol
DOCKED: USER    
DOCKED: USER    
DOCKED: USER    NEWDPF move ligand.pdbqt
DOCKED: USER    NEWDPF about -0.011000 0.081000 -0.051000
DOCKED: USER    NEWDPF tran0 26.168097 -15.059493 -2.376270
DOCKED: USER    NEWDPF quaternion0 -0.304924 0.002041 -0.944007 0.125970
DOCKED: USER    NEWDPF axisangle0 -0.307372 0.002058 -0.951587 165.526500
DOCKED: USER    NEWDPF quat0 -0.307372 0.002058 -0.951587 165.526500
DOCKED: USER    NEWDPF dihe0 140.28 -24.16 120.90 6.62 -29.89 -149.72 
DOCKED: USER  keepresnum = 1 
DOCKED: USER  
DOCKED: REMARK  Name = 
DOCKED: REMARK  6 active torsions:
DOCKED: REMARK  status: ('A' for Active; 'I' for Inactive)
DOCKED: REMARK    1  A    between atoms: C_2  and  C_5
DOCKED: REMARK    2  A    between atoms: C_5  and  C_6
DOCKED: REMARK    3  A    between atoms: C_6  and  C_7
DOCKED: REMARK    4  A    between atoms: C_7  and  C_8
DOCKED: REMARK    5  A    between atoms: C_8  and  C_9
DOCKED: REMARK    6  A    between atoms: C_9  and  N_10
DOCKED: REMARK                            x       y       z     vdW  Elec       q    Type
DOCKED: REMARK                         _______ _______ _______ _____ _____    ______ ____
DOCKED: USER                              x       y       z     vdW  Elec       q    Type
DOCKED: USER                           _______ _______ _______ _____ _____    ______ ____
DOCKED: ROOT
DOCKED: ATOM      1  N   UNL     1      26.428 -15.865  -2.736 -0.41 -0.00    +0.000 N 
DOCKED: ATOM      2  C   UNL     1      26.545 -15.190  -4.002 -0.52 -0.00    +0.000 C 
DOCKED: ATOM      3  C   UNL     1      27.803 -15.288  -4.779 -0.37 -0.00    +0.000 A 
DOCKED: ATOM      4  C   UNL     1      27.919 -14.658  -6.031 -0.28 -0.00    +0.000 A 
DOCKED: ATOM      5  C   UNL     1      29.103 -14.750  -6.764 -0.30 -0.00    +0.000 A 
DOCKED: ATOM      6  C   UNL     1      30.188 -15.468  -6.261 -0.27 -0.00    +0.000 A 
DOCKED: ATOM      7  C   UNL     1      30.098 -16.103  -5.014 -0.23 -0.00    +0.000 A 
DOCKED: ATOM      8  C   UNL     1      31.190 -16.822  -4.508 -0.13 -0.00    +0.000 A 
DOCKED: ATOM      9  C   UNL     1      31.101 -17.452  -3.267 -0.14 -0.00    +0.000 A 
DOCKED: ATOM     10  C   UNL     1      29.925 -17.372  -2.520 -0.16 -0.00    +0.000 A 
DOCKED: ATOM     11  C   UNL     1      28.815 -16.658  -3.006 -0.20 -0.00    +0.000 A 
DOCKED: ATOM     12  C   UNL     1      28.897 -16.017  -4.262 -0.26 -0.00    +0.000 A 
DOCKED: ATOM     13  O   UNL     1      25.579 -14.513  -4.450 -0.77 -0.00    +0.000 OA
DOCKED: ATOM     14  C   UNL     1      27.568 -16.573  -2.212 -0.33 -0.00    +0.000 C 
DOCKED: ATOM     15  O   UNL     1      27.507 -17.120  -1.076 -0.46 -0.00    +0.000 OA
DOCKED: ENDROOT
DOCKED: BRANCH   1  16
DOCKED: ATOM     16  C   UNL     1      25.198 -15.744  -1.939 -0.49 -0.00    +0.000 C 
DOCKED: BRANCH  16  17
DOCKED: ATOM     17  C   UNL     1      24.606 -17.130  -1.666 -0.66 -0.00    +0.000 C 
DOCKED: BRANCH  17  18
DOCKED: ATOM     18  C   UNL     1      23.849 -17.154  -0.334 -0.54 -0.00    +0.000 C 
DOCKED: BRANCH  18  19
DOCKED: ATOM     19  C   UNL     1      23.403 -18.581   0.020 -0.69 -0.00    +0.000 C 
DOCKED: BRANCH  19  20
DOCKED: ATOM     20  C   UNL     1      22.554 -19.218  -1.088 -0.75 -0.00    +0.000 C 
DOCKED: BRANCH  20  22
DOCKED: ATOM     21  O   UNL     1      20.634 -17.823  -0.809 -2.29 -0.00    +0.000 OA
DOCKED: ATOM     22  C   UNL     1      21.086 -18.997  -0.863 -0.88 -0.00    +0.000 C 
DOCKED: ATOM     23  N   UNL     1      20.196 -20.109  -0.744 -0.68 -0.00    +0.000 N 
DOCKED: ATOM     24  O   UNL     1      18.871 -19.910  -0.558 -1.26 -0.00    +0.000 OA
DOCKED: ATOM     25  H   UNL     1      20.549 -21.027  -0.798 -0.02 -0.00    +0.000 HD
DOCKED: ENDBRANCH  20  22
DOCKED: ENDBRANCH  19  20
DOCKED: ENDBRANCH  18  19
DOCKED: ENDBRANCH  17  18
DOCKED: ENDBRANCH  16  17
DOCKED: ENDBRANCH   1  16
DOCKED: TORSDOF 6
DOCKED: TER
DOCKED: ENDMDL
________________________________________________________________________________


	BEGINNING GENETIC ALGORITHM DOCKING 8 of 100
Run: 8 Seed: 618630374 873012160 [ Run 8 of 100 GA/GALS ]
Beginning LAMARCKIAN GENETIC ALGORITHM (LGA), with a maximum of 2500000 energy evaluations.

Final-Value: -13.700


	FINAL GENETIC ALGORITHM DOCKED STATE
	_______________________________________________


Detailed state:  trans 26.577 -16.710 -3.399 quatxyzw 0.406335 -0.708744 -0.333657 -0.470368 center -0.011 0.081 -0.051 ntor 6 127.1743 -100.8854 -119.1465 67.7324 4.1017 -138.6536
State:	 26.577 -16.710  -3.399   0.460 -0.803 -0.378 -123.884    127.17 -100.89 -119.15   67.73    4.10 -138.65

DOCKED: MODEL        8
DOCKED: USER    Run = 8
DOCKED: USER    DPF = ligand_dock.biased.dpf
DOCKED: USER  
DOCKED: USER    Estimated Free Energy of Binding    =  -11.19 kcal/mol  [=(1)+(2)+(3)-(4)]
DOCKED: USER    Estimated Inhibition Constant, Ki   =    6.32 nM (nanomolar)  [Temperature = 298.15 K]
DOCKED: USER    
DOCKED: USER    (1) Final Intermolecular Energy     =  -12.98 kcal/mol
DOCKED: USER        vdW + Hbond + desolv Energy     =  -12.98 kcal/mol
DOCKED: USER        Electrostatic Energy            =   +0.00 kcal/mol
DOCKED: USER    (2) Final Total Internal Energy     =   -0.72 kcal/mol
DOCKED: USER    (3) Torsional Free Energy           =   +1.79 kcal/mol
DOCKED: USER    (4) Unbound System's Energy  [=(2)] =   -0.72 kcal/mol
DOCKED: USER    
DOCKED: USER    
DOCKED: USER    NEWDPF move ligand.pdbqt
DOCKED: USER    NEWDPF about -0.011000 0.081000 -0.051000
DOCKED: USER    NEWDPF tran0 26.577185 -16.709708 -3.398658
DOCKED: USER    NEWDPF quaternion0 0.406335 -0.708744 -0.333657 -0.470368
DOCKED: USER    NEWDPF axisangle0 0.460452 -0.803137 -0.378095 -123.883658
DOCKED: USER    NEWDPF quat0 0.460452 -0.803137 -0.378095 -123.883658
DOCKED: USER    NEWDPF dihe0 127.17 -100.89 -119.15 67.73 4.10 -138.65 
DOCKED: USER  keepresnum = 1 
DOCKED: USER  
DOCKED: REMARK  Name = 
DOCKED: REMARK  6 active torsions:
DOCKED: REMARK  status: ('A' for Active; 'I' for Inactive)
DOCKED: REMARK    1  A    between atoms: C_2  and  C_5
DOCKED: REMARK    2  A    between atoms: C_5  and  C_6
DOCKED: REMARK    3  A    between atoms: C_6  and  C_7
DOCKED: REMARK    4  A    between atoms: C_7  and  C_8
DOCKED: REMARK    5  A    between atoms: C_8  and  C_9
DOCKED: REMARK    6  A    between atoms: C_9  and  N_10
DOCKED: REMARK                            x       y       z     vdW  Elec       q    Type
DOCKED: REMARK                         _______ _______ _______ _____ _____    ______ ____
DOCKED: USER                              x       y       z     vdW  Elec       q    Type
DOCKED: USER                           _______ _______ _______ _____ _____    ______ ____
DOCKED: ROOT
DOCKED: ATOM      1  N   UNL     1      26.606 -15.873  -3.018 -0.40 -0.00    +0.000 N 
DOCKED: ATOM      2  C   UNL     1      27.914 -15.722  -3.601 -0.30 -0.00    +0.000 C 
DOCKED: ATOM      3  C   UNL     1      28.220 -14.537  -4.435 -0.25 -0.00    +0.000 A 
DOCKED: ATOM      4  C   UNL     1      29.503 -14.363  -4.985 -0.15 -0.00    +0.000 A 
DOCKED: ATOM      5  C   UNL     1      29.793 -13.246  -5.770 -0.11 -0.00    +0.000 A 
DOCKED: ATOM      6  C   UNL     1      28.812 -12.287  -6.019 -0.13 -0.00    +0.000 A 
DOCKED: ATOM      7  C   UNL     1      27.525 -12.439  -5.484 -0.19 -0.00    +0.000 A 
DOCKED: ATOM      8  C   UNL     1      26.538 -11.476  -5.738 -0.19 -0.00    +0.000 A 
DOCKED: ATOM      9  C   UNL     1      25.257 -11.627  -5.207 -0.24 -0.00    +0.000 A 
DOCKED: ATOM     10  C   UNL     1      24.947 -12.737  -4.420 -0.18 -0.00    +0.000 A 
DOCKED: ATOM     11  C   UNL     1      25.920 -13.716  -4.149 -0.41 -0.00    +0.000 A 
DOCKED: ATOM     12  C   UNL     1      27.220 -13.570  -4.683 -0.28 -0.00    +0.000 A 
DOCKED: ATOM     13  O   UNL     1      28.799 -16.601  -3.406 -0.31 -0.00    +0.000 OA
DOCKED: ATOM     14  C   UNL     1      25.591 -14.893  -3.314 -0.54 -0.00    +0.000 C 
DOCKED: ATOM     15  O   UNL     1      24.421 -15.038  -2.864 -0.25 -0.00    +0.000 OA
DOCKED: ENDROOT
DOCKED: BRANCH   1  16
DOCKED: ATOM     16  C   UNL     1      26.279 -17.064  -2.221 -0.25 -0.00    +0.000 C 
DOCKED: BRANCH  16  17
DOCKED: ATOM     17  C   UNL     1      25.570 -16.656  -0.927 -0.57 -0.00    +0.000 C 
DOCKED: BRANCH  17  18
DOCKED: ATOM     18  C   UNL     1      25.309 -17.873  -0.033 -0.63 -0.00    +0.000 C 
DOCKED: BRANCH  18  19
DOCKED: ATOM     19  C   UNL     1      23.806 -18.172   0.066 -0.69 -0.00    +0.000 C 
DOCKED: BRANCH  19  20
DOCKED: ATOM     20  C   UNL     1      23.200 -18.568  -1.287 -0.79 -0.00    +0.000 C 
DOCKED: BRANCH  20  22
DOCKED: ATOM     21  O   UNL     1      21.069 -17.656  -0.708 -2.06 -0.00    +0.000 OA
DOCKED: ATOM     22  C   UNL     1      21.701 -18.609  -1.236 -0.63 -0.00    +0.000 C 
DOCKED: ATOM     23  N   UNL     1      20.986 -19.704  -1.814 -0.69 -0.00    +0.000 N 
DOCKED: ATOM     24  O   UNL     1      19.634 -19.733  -1.783 -2.22 -0.00    +0.000 OA
DOCKED: ATOM     25  H   UNL     1      21.481 -20.443  -2.237 -0.53 -0.00    +0.000 HD
DOCKED: ENDBRANCH  20  22
DOCKED: ENDBRANCH  19  20
DOCKED: ENDBRANCH  18  19
DOCKED: ENDBRANCH  17  18
DOCKED: ENDBRANCH  16  17
DOCKED: ENDBRANCH   1  16
DOCKED: TORSDOF 6
DOCKED: TER
DOCKED: ENDMDL
________________________________________________________________________________


	BEGINNING GENETIC ALGORITHM DOCKING 9 of 100
Run: 9 Seed: 1707465080 142015238 [ Run 9 of 100 GA/GALS ]
Beginning LAMARCKIAN GENETIC ALGORITHM (LGA), with a maximum of 2500000 energy evaluations.

Final-Value: -13.978


	FINAL GENETIC ALGORITHM DOCKED STATE
	_______________________________________________


Detailed state:  trans 26.207 -15.135 -2.873 quatxyzw -0.523382 0.263517 -0.773427 -0.241745 center -0.011 0.081 -0.051 ntor 6 -5.4398 143.7393 -29.5323 -124.2841 -43.8114 33.6211
State:	 26.207 -15.135  -2.873  -0.539  0.272 -0.797 -152.021     -5.44  143.74  -29.53 -124.28  -43.81   33.62

DOCKED: MODEL        9
DOCKED: USER    Run = 9
DOCKED: USER    DPF = ligand_dock.biased.dpf
DOCKED: USER  
DOCKED: USER    Estimated Free Energy of Binding    =  -11.50 kcal/mol  [=(1)+(2)+(3)-(4)]
DOCKED: USER    Estimated Inhibition Constant, Ki   =    3.74 nM (nanomolar)  [Temperature = 298.15 K]
DOCKED: USER    
DOCKED: USER    (1) Final Intermolecular Energy     =  -13.29 kcal/mol
DOCKED: USER        vdW + Hbond + desolv Energy     =  -13.29 kcal/mol
DOCKED: USER        Electrostatic Energy            =   +0.00 kcal/mol
DOCKED: USER    (2) Final Total Internal Energy     =   -0.69 kcal/mol
DOCKED: USER    (3) Torsional Free Energy           =   +1.79 kcal/mol
DOCKED: USER    (4) Unbound System's Energy  [=(2)] =   -0.69 kcal/mol
DOCKED: USER    
DOCKED: USER    
DOCKED: USER    NEWDPF move ligand.pdbqt
DOCKED: USER    NEWDPF about -0.011000 0.081000 -0.051000
DOCKED: USER    NEWDPF tran0 26.206586 -15.134667 -2.872844
DOCKED: USER    NEWDPF quaternion0 -0.523382 0.263517 -0.773427 -0.241745
DOCKED: USER    NEWDPF axisangle0 -0.539380 0.271572 -0.797068 -152.020903
DOCKED: USER    NEWDPF quat0 -0.539380 0.271572 -0.797068 -152.020903
DOCKED: USER    NEWDPF dihe0 -5.44 143.74 -29.53 -124.28 -43.81 33.62 
DOCKED: USER  keepresnum = 1 
DOCKED: USER  
DOCKED: REMARK  Name = 
DOCKED: REMARK  6 active torsions:
DOCKED: REMARK  status: ('A' for Active; 'I' for Inactive)
DOCKED: REMARK    1  A    between atoms: C_2  and  C_5
DOCKED: REMARK    2  A    between atoms: C_5  and  C_6
DOCKED: REMARK    3  A    between atoms: C_6  and  C_7
DOCKED: REMARK    4  A    between atoms: C_7  and  C_8
DOCKED: REMARK    5  A    between atoms: C_8  and  C_9
DOCKED: REMARK    6  A    between atoms: C_9  and  N_10
DOCKED: REMARK                            x       y       z     vdW  Elec       q    Type
DOCKED: REMARK                         _______ _______ _______ _____ _____    ______ ____
DOCKED: USER                              x       y       z     vdW  Elec       q    Type
DOCKED: USER                           _______ _______ _______ _____ _____    ______ ____
DOCKED: ROOT
DOCKED: ATOM      1  N   UNL     1      26.403 -15.247  -3.764 -0.46 -0.00    +0.000 N 
DOCKED: ATOM      2  C   UNL     1      25.595 -14.084  -4.024 -0.52 -0.00    +0.000 C 
DOCKED: ATOM      3  C   UNL     1      26.149 -12.958  -4.811 -0.20 -0.00    +0.000 A 
DOCKED: ATOM      4  C   UNL     1      25.361 -11.829  -5.096 -0.21 -0.00    +0.000 A 
DOCKED: ATOM      5  C   UNL     1      25.882 -10.769  -5.838 -0.24 -0.00    +0.000 A 
DOCKED: ATOM      6  C   UNL     1      27.195 -10.816  -6.306 -0.14 -0.00    +0.000 A 
DOCKED: ATOM      7  C   UNL     1      28.002 -11.929  -6.033 -0.15 -0.00    +0.000 A 
DOCKED: ATOM      8  C   UNL     1      29.323 -11.973  -6.501 -0.10 -0.00    +0.000 A 
DOCKED: ATOM      9  C   UNL     1      30.127 -13.080  -6.228 -0.11 -0.00    +0.000 A 
DOCKED: ATOM     10  C   UNL     1      29.624 -14.150  -5.487 -0.17 -0.00    +0.000 A 
DOCKED: ATOM     11  C   UNL     1      28.302 -14.130  -5.008 -0.25 -0.00    +0.000 A 
DOCKED: ATOM     12  C   UNL     1      27.481 -13.013  -5.280 -0.23 -0.00    +0.000 A 
DOCKED: ATOM     13  O   UNL     1      24.416 -14.020  -3.578 -0.86 -0.00    +0.000 OA
DOCKED: ATOM     14  C   UNL     1      27.769 -15.266  -4.223 -0.38 -0.00    +0.000 C 
DOCKED: ATOM     15  O   UNL     1      28.513 -16.250  -3.953 -0.33 -0.00    +0.000 OA
DOCKED: ENDROOT
DOCKED: BRANCH   1  16
DOCKED: ATOM     16  C   UNL     1      25.875 -16.354  -2.952 -0.45 -0.00    +0.000 C 
DOCKED: BRANCH  16  17
DOCKED: ATOM     17  C   UNL     1      25.376 -15.828  -1.604 -0.50 -0.00    +0.000 C 
DOCKED: BRANCH  17  18
DOCKED: ATOM     18  C   UNL     1      24.026 -16.451  -1.234 -0.34 -0.00    +0.000 C 
DOCKED: BRANCH  18  19
DOCKED: ATOM     19  C   UNL     1      24.110 -17.985  -1.229 -0.76 -0.00    +0.000 C 
DOCKED: BRANCH  19  20
DOCKED: ATOM     20  C   UNL     1      23.076 -18.623  -0.291 -0.80 -0.00    +0.000 C 
DOCKED: BRANCH  20  22
DOCKED: ATOM     21  O   UNL     1      20.978 -17.559  -0.712 -2.09 -0.00    +0.000 OA
DOCKED: ATOM     22  C   UNL     1      21.694 -18.583  -0.874 -0.83 -0.00    +0.000 C 
DOCKED: ATOM     23  N   UNL     1      21.199 -19.683  -1.640 -0.63 -0.00    +0.000 N 
DOCKED: ATOM     24  O   UNL     1      19.960 -19.640  -2.181 -2.12 -0.00    +0.000 OA
DOCKED: ATOM     25  H   UNL     1      21.764 -20.479  -1.776 -0.40 -0.00    +0.000 HD
DOCKED: ENDBRANCH  20  22
DOCKED: ENDBRANCH  19  20
DOCKED: ENDBRANCH  18  19
DOCKED: ENDBRANCH  17  18
DOCKED: ENDBRANCH  16  17
DOCKED: ENDBRANCH   1  16
DOCKED: TORSDOF 6
DOCKED: TER
DOCKED: ENDMDL
________________________________________________________________________________


	BEGINNING GENETIC ALGORITHM DOCKING 10 of 100
Run: 10 Seed: 1307235060 295470731 [ Run 10 of 100 GA/GALS ]
Beginning LAMARCKIAN GENETIC ALGORITHM (LGA), with a maximum of 2500000 energy evaluations.

Final-Value: -13.894


	FINAL GENETIC ALGORITHM DOCKED STATE
	_______________________________________________


Detailed state:  trans 26.116 -16.850 -1.826 quatxyzw -0.079159 0.934058 0.092276 0.335790 center -0.011 0.081 -0.051 ntor 6 86.3957 -141.1513 -40.5054 -8.8746 29.5243 9.2971
State:	 26.116 -16.850  -1.826  -0.084  0.992  0.098 140.759     86.40 -141.15  -40.51   -8.87   29.52    9.30

DOCKED: MODEL       10
DOCKED: USER    Run = 10
DOCKED: USER    DPF = ligand_dock.biased.dpf
DOCKED: USER  
DOCKED: USER    Estimated Free Energy of Binding    =  -11.51 kcal/mol  [=(1)+(2)+(3)-(4)]
DOCKED: USER    Estimated Inhibition Constant, Ki   =    3.64 nM (nanomolar)  [Temperature = 298.15 K]
DOCKED: USER    
DOCKED: USER    (1) Final Intermolecular Energy     =  -13.30 kcal/mol
DOCKED: USER        vdW + Hbond + desolv Energy     =  -13.30 kcal/mol
DOCKED: USER        Electrostatic Energy            =   +0.00 kcal/mol
DOCKED: USER    (2) Final Total Internal Energy     =   -0.59 kcal/mol
DOCKED: USER    (3) Torsional Free Energy           =   +1.79 kcal/mol
DOCKED: USER    (4) Unbound System's Energy  [=(2)] =   -0.59 kcal/mol
DOCKED: USER    
DOCKED: USER    
DOCKED: USER    NEWDPF move ligand.pdbqt
DOCKED: USER    NEWDPF about -0.011000 0.081000 -0.051000
DOCKED: USER    NEWDPF tran0 26.115722 -16.849936 -1.825982
DOCKED: USER    NEWDPF quaternion0 -0.079159 0.934058 0.092276 0.335790
DOCKED: USER    NEWDPF axisangle0 -0.084038 0.991635 0.097964 140.758780
DOCKED: USER    NEWDPF quat0 -0.084038 0.991635 0.097964 140.758780
DOCKED: USER    NEWDPF dihe0 86.40 -141.15 -40.51 -8.87 29.52 9.30 
DOCKED: USER  keepresnum = 1 
DOCKED: USER  
DOCKED: REMARK  Name = 
DOCKED: REMARK  6 active torsions:
DOCKED: REMARK  status: ('A' for Active; 'I' for Inactive)
DOCKED: REMARK    1  A    between atoms: C_2  and  C_5
DOCKED: REMARK    2  A    between atoms: C_5  and  C_6
DOCKED: REMARK    3  A    between atoms: C_6  and  C_7
DOCKED: REMARK    4  A    between atoms: C_7  and  C_8
DOCKED: REMARK    5  A    between atoms: C_8  and  C_9
DOCKED: REMARK    6  A    between atoms: C_9  and  N_10
DOCKED: REMARK                            x       y       z     vdW  Elec       q    Type
DOCKED: REMARK                         _______ _______ _______ _____ _____    ______ ____
DOCKED: USER                              x       y       z     vdW  Elec       q    Type
DOCKED: USER                           _______ _______ _______ _____ _____    ______ ____
DOCKED: ROOT
DOCKED: ATOM      1  N   UNL     1      26.564 -16.062  -1.979 -0.38 -0.00    +0.000 N 
DOCKED: ATOM      2  C   UNL     1      27.789 -16.795  -1.788 -0.36 -0.00    +0.000 C 
DOCKED: ATOM      3  C   UNL     1      28.856 -16.733  -2.813 -0.22 -0.00    +0.000 A 
DOCKED: ATOM      4  C   UNL     1      30.068 -17.421  -2.625 -0.16 -0.00    +0.000 A 
DOCKED: ATOM      5  C   UNL     1      31.074 -17.363  -3.590 -0.14 -0.00    +0.000 A 
DOCKED: ATOM      6  C   UNL     1      30.889 -16.621  -4.756 -0.16 -0.00    +0.000 A 
DOCKED: ATOM      7  C   UNL     1      29.688 -15.929  -4.969 -0.25 -0.00    +0.000 A 
DOCKED: ATOM      8  C   UNL     1      29.502 -15.186  -6.143 -0.31 -0.00    +0.000 A 
DOCKED: ATOM      9  C   UNL     1      28.307 -14.499  -6.356 -0.31 -0.00    +0.000 A 
DOCKED: ATOM     10  C   UNL     1      27.289 -14.544  -5.403 -0.31 -0.00    +0.000 A 
DOCKED: ATOM     11  C   UNL     1      27.453 -15.281  -4.216 -0.36 -0.00    +0.000 A 
DOCKED: ATOM     12  C   UNL     1      28.659 -15.980  -3.992 -0.25 -0.00    +0.000 A 
DOCKED: ATOM     13  O   UNL     1      27.952 -17.494  -0.750 -0.46 -0.00    +0.000 OA
DOCKED: ATOM     14  C   UNL     1      26.372 -15.329  -3.204 -0.48 -0.00    +0.000 C 
DOCKED: ATOM     15  O   UNL     1      25.282 -14.729  -3.419 -0.71 -0.00    +0.000 OA
DOCKED: ENDROOT
DOCKED: BRANCH   1  16
DOCKED: ATOM     16  C   UNL     1      25.484 -16.146  -0.985 -0.52 -0.00    +0.000 C 
DOCKED: BRANCH  16  17
DOCKED: ATOM     17  C   UNL     1      24.708 -17.455  -1.158 -0.70 -0.00    +0.000 C 
DOCKED: BRANCH  17  18
DOCKED: ATOM     18  C   UNL     1      23.248 -17.293  -0.721 -0.74 -0.00    +0.000 C 
DOCKED: BRANCH  18  19
DOCKED: ATOM     19  C   UNL     1      22.422 -18.534  -1.091 -0.81 -0.00    +0.000 C 
DOCKED: BRANCH  19  20
DOCKED: ATOM     20  C   UNL     1      21.379 -18.881  -0.020 -0.78 -0.00    +0.000 C 
DOCKED: BRANCH  20  22
DOCKED: ATOM     21  O   UNL     1      20.170 -19.862  -1.833 -2.33 -0.00    +0.000 OA
DOCKED: ATOM     22  C   UNL     1      20.173 -19.550  -0.613 -0.87 -0.00    +0.000 C 
DOCKED: ATOM     23  N   UNL     1      19.045 -19.867   0.206 -0.74 -0.00    +0.000 N 
DOCKED: ATOM     24  O   UNL     1      17.965 -20.485  -0.325 -0.88 -0.00    +0.000 OA
DOCKED: ATOM     25  H   UNL     1      19.053 -19.633   1.162 -0.07 -0.00    +0.000 HD
DOCKED: ENDBRANCH  20  22
DOCKED: ENDBRANCH  19  20
DOCKED: ENDBRANCH  18  19
DOCKED: ENDBRANCH  17  18
DOCKED: ENDBRANCH  16  17
DOCKED: ENDBRANCH   1  16
DOCKED: TORSDOF 6
DOCKED: TER
DOCKED: ENDMDL
________________________________________________________________________________


	BEGINNING GENETIC ALGORITHM DOCKING 11 of 100
Run: 11 Seed: 1360610894 2067699087 [ Run 11 of 100 GA/GALS ]
Beginning LAMARCKIAN GENETIC ALGORITHM (LGA), with a maximum of 2500000 energy evaluations.

Final-Value: -13.996


	FINAL GENETIC ALGORITHM DOCKED STATE
	_______________________________________________


Detailed state:  trans 26.751 -16.215 -2.601 quatxyzw -0.113841 -0.969987 0.169811 -0.131645 center -0.011 0.081 -0.051 ntor 6 52.9183 -86.2132 -86.7160 -39.0664 -99.6261 6.2290
State:	 26.751 -16.215  -2.601  -0.115 -0.979  0.171 -164.871     52.92  -86.21  -86.72  -39.07  -99.63    6.23

DOCKED: MODEL       11
DOCKED: USER    Run = 11
DOCKED: USER    DPF = ligand_dock.biased.dpf
DOCKED: USER  
DOCKED: USER    Estimated Free Energy of Binding    =  -11.52 kcal/mol  [=(1)+(2)+(3)-(4)]
DOCKED: USER    Estimated Inhibition Constant, Ki   =    3.58 nM (nanomolar)  [Temperature = 298.15 K]
DOCKED: USER    
DOCKED: USER    (1) Final Intermolecular Energy     =  -13.31 kcal/mol
DOCKED: USER        vdW + Hbond + desolv Energy     =  -13.31 kcal/mol
DOCKED: USER        Electrostatic Energy            =   +0.00 kcal/mol
DOCKED: USER    (2) Final Total Internal Energy     =   -0.68 kcal/mol
DOCKED: USER    (3) Torsional Free Energy           =   +1.79 kcal/mol
DOCKED: USER    (4) Unbound System's Energy  [=(2)] =   -0.68 kcal/mol
DOCKED: USER    
DOCKED: USER    
DOCKED: USER    NEWDPF move ligand.pdbqt
DOCKED: USER    NEWDPF about -0.011000 0.081000 -0.051000
DOCKED: USER    NEWDPF tran0 26.751189 -16.214565 -2.601071
DOCKED: USER    NEWDPF quaternion0 -0.113841 -0.969987 0.169811 -0.131645
DOCKED: USER    NEWDPF axisangle0 -0.114840 -0.978503 0.171302 -164.870631
DOCKED: USER    NEWDPF quat0 -0.114840 -0.978503 0.171302 -164.870631
DOCKED: USER    NEWDPF dihe0 52.92 -86.21 -86.72 -39.07 -99.63 6.23 
DOCKED: USER  keepresnum = 1 
DOCKED: USER  
DOCKED: REMARK  Name = 
DOCKED: REMARK  6 active torsions:
DOCKED: REMARK  status: ('A' for Active; 'I' for Inactive)
DOCKED: REMARK    1  A    between atoms: C_2  and  C_5
DOCKED: REMARK    2  A    between atoms: C_5  and  C_6
DOCKED: REMARK    3  A    between atoms: C_6  and  C_7
DOCKED: REMARK    4  A    between atoms: C_7  and  C_8
DOCKED: REMARK    5  A    between atoms: C_8  and  C_9
DOCKED: REMARK    6  A    between atoms: C_9  and  N_10
DOCKED: REMARK                            x       y       z     vdW  Elec       q    Type
DOCKED: REMARK                         _______ _______ _______ _____ _____    ______ ____
DOCKED: USER                              x       y       z     vdW  Elec       q    Type
DOCKED: USER                           _______ _______ _______ _____ _____    ______ ____
DOCKED: ROOT
DOCKED: ATOM      1  N   UNL     1      27.461 -15.717  -2.909 -0.30 -0.00    +0.000 N 
DOCKED: ATOM      2  C   UNL     1      28.246 -16.297  -1.851 -0.30 -0.00    +0.000 C 
DOCKED: ATOM      3  C   UNL     1      29.536 -16.954  -2.161 -0.21 -0.00    +0.000 A 
DOCKED: ATOM      4  C   UNL     1      30.326 -17.498  -1.132 -0.20 -0.00    +0.000 A 
DOCKED: ATOM      5  C   UNL     1      31.543 -18.116  -1.424 -0.13 -0.00    +0.000 A 
DOCKED: ATOM      6  C   UNL     1      31.990 -18.203  -2.742 -0.09 -0.00    +0.000 A 
DOCKED: ATOM      7  C   UNL     1      31.220 -17.671  -3.785 -0.15 -0.00    +0.000 A 
DOCKED: ATOM      8  C   UNL     1      31.668 -17.762  -5.110 -0.14 -0.00    +0.000 A 
DOCKED: ATOM      9  C   UNL     1      30.901 -17.234  -6.149 -0.26 -0.00    +0.000 A 
DOCKED: ATOM     10  C   UNL     1      29.682 -16.612  -5.878 -0.29 -0.00    +0.000 A 
DOCKED: ATOM     11  C   UNL     1      29.211 -16.506  -4.557 -0.21 -0.00    +0.000 A 
DOCKED: ATOM     12  C   UNL     1      29.982 -17.038  -3.499 -0.21 -0.00    +0.000 A 
DOCKED: ATOM     13  O   UNL     1      27.833 -16.250  -0.658 -0.35 -0.00    +0.000 OA
DOCKED: ATOM     14  C   UNL     1      27.917 -15.846  -4.269 -0.21 -0.00    +0.000 C 
DOCKED: ATOM     15  O   UNL     1      27.215 -15.399  -5.218 -0.98 +0.00    +0.000 OA
DOCKED: ENDROOT
DOCKED: BRANCH   1  16
DOCKED: ATOM     16  C   UNL     1      26.160 -15.096  -2.617 -0.45 -0.00    +0.000 C 
DOCKED: BRANCH  16  17
DOCKED: ATOM     17  C   UNL     1      25.074 -16.169  -2.509 -0.49 -0.00    +0.000 C 
DOCKED: BRANCH  17  18
DOCKED: ATOM     18  C   UNL     1      25.100 -16.845  -1.134 -0.63 -0.00    +0.000 C 
DOCKED: BRANCH  18  19
DOCKED: ATOM     19  C   UNL     1      23.676 -17.123  -0.631 -0.66 -0.00    +0.000 C 
DOCKED: BRANCH  19  20
DOCKED: ATOM     20  C   UNL     1      23.222 -18.558  -0.929 -0.82 -0.00    +0.000 C 
DOCKED: BRANCH  20  22
DOCKED: ATOM     21  O   UNL     1      21.008 -17.851  -0.372 -1.94 +0.00    +0.000 OA
DOCKED: ATOM     22  C   UNL     1      21.726 -18.664  -1.012 -0.82 -0.00    +0.000 C 
DOCKED: ATOM     23  N   UNL     1      21.116 -19.656  -1.840 -0.61 -0.00    +0.000 N 
DOCKED: ATOM     24  O   UNL     1      19.768 -19.740  -1.929 -2.28 -0.00    +0.000 OA
DOCKED: ATOM     25  H   UNL     1      21.679 -20.283  -2.349 -0.58 -0.00    +0.000 HD
DOCKED: ENDBRANCH  20  22
DOCKED: ENDBRANCH  19  20
DOCKED: ENDBRANCH  18  19
DOCKED: ENDBRANCH  17  18
DOCKED: ENDBRANCH  16  17
DOCKED: ENDBRANCH   1  16
DOCKED: TORSDOF 6
DOCKED: TER
DOCKED: ENDMDL
________________________________________________________________________________


	BEGINNING GENETIC ALGORITHM DOCKING 12 of 100
Run: 12 Seed: 15040063 93760749 [ Run 12 of 100 GA/GALS ]
Beginning LAMARCKIAN GENETIC ALGORITHM (LGA), with a maximum of 2500000 energy evaluations.

Final-Value: -13.888


	FINAL GENETIC ALGORITHM DOCKED STATE
	_______________________________________________


Detailed state:  trans 27.099 -14.581 -1.898 quatxyzw 0.462871 -0.156443 0.850075 -0.196592 center -0.011 0.081 -0.051 ntor 6 -10.2824 -160.8629 62.5397 18.6361 -64.9687 -174.7933
State:	 27.099 -14.581  -1.898   0.472 -0.160  0.867 -157.325    -10.28 -160.86   62.54   18.64  -64.97 -174.79

DOCKED: MODEL       12
DOCKED: USER    Run = 12
DOCKED: USER    DPF = ligand_dock.biased.dpf
DOCKED: USER  
DOCKED: USER    Estimated Free Energy of Binding    =  -11.36 kcal/mol  [=(1)+(2)+(3)-(4)]
DOCKED: USER    Estimated Inhibition Constant, Ki   =    4.70 nM (nanomolar)  [Temperature = 298.15 K]
DOCKED: USER    
DOCKED: USER    (1) Final Intermolecular Energy     =  -13.15 kcal/mol
DOCKED: USER        vdW + Hbond + desolv Energy     =  -13.15 kcal/mol
DOCKED: USER        Electrostatic Energy            =   +0.00 kcal/mol
DOCKED: USER    (2) Final Total Internal Energy     =   -0.74 kcal/mol
DOCKED: USER    (3) Torsional Free Energy           =   +1.79 kcal/mol
DOCKED: USER    (4) Unbound System's Energy  [=(2)] =   -0.74 kcal/mol
DOCKED: USER    
DOCKED: USER    
DOCKED: USER    NEWDPF move ligand.pdbqt
DOCKED: USER    NEWDPF about -0.011000 0.081000 -0.051000
DOCKED: USER    NEWDPF tran0 27.098616 -14.581227 -1.898188
DOCKED: USER    NEWDPF quaternion0 0.462871 -0.156443 0.850075 -0.196592
DOCKED: USER    NEWDPF axisangle0 0.472084 -0.159557 0.866994 -157.324539
DOCKED: USER    NEWDPF quat0 0.472084 -0.159557 0.866994 -157.324539
DOCKED: USER    NEWDPF dihe0 -10.28 -160.86 62.54 18.64 -64.97 -174.79 
DOCKED: USER  keepresnum = 1 
DOCKED: USER  
DOCKED: REMARK  Name = 
DOCKED: REMARK  6 active torsions:
DOCKED: REMARK  status: ('A' for Active; 'I' for Inactive)
DOCKED: REMARK    1  A    between atoms: C_2  and  C_5
DOCKED: REMARK    2  A    between atoms: C_5  and  C_6
DOCKED: REMARK    3  A    between atoms: C_6  and  C_7
DOCKED: REMARK    4  A    between atoms: C_7  and  C_8
DOCKED: REMARK    5  A    between atoms: C_8  and  C_9
DOCKED: REMARK    6  A    between atoms: C_9  and  N_10
DOCKED: REMARK                            x       y       z     vdW  Elec       q    Type
DOCKED: REMARK                         _______ _______ _______ _____ _____    ______ ____
DOCKED: USER                              x       y       z     vdW  Elec       q    Type
DOCKED: USER                           _______ _______ _______ _____ _____    ______ ____
DOCKED: ROOT
DOCKED: ATOM      1  N   UNL     1      27.008 -15.265  -2.507 -0.29 -0.00    +0.000 N 
DOCKED: ATOM      2  C   UNL     1      26.967 -14.258  -3.536 -0.34 -0.00    +0.000 C 
DOCKED: ATOM      3  C   UNL     1      27.883 -14.348  -4.695 -0.29 -0.00    +0.000 A 
DOCKED: ATOM      4  C   UNL     1      27.833 -13.387  -5.722 -0.24 -0.00    +0.000 A 
DOCKED: ATOM      5  C   UNL     1      28.696 -13.471  -6.815 -0.27 -0.00    +0.000 A 
DOCKED: ATOM      6  C   UNL     1      29.621 -14.511  -6.903 -0.29 -0.00    +0.000 A 
DOCKED: ATOM      7  C   UNL     1      29.692 -15.480  -5.892 -0.29 -0.00    +0.000 A 
DOCKED: ATOM      8  C   UNL     1      30.625 -16.523  -5.980 -0.25 -0.00    +0.000 A 
DOCKED: ATOM      9  C   UNL     1      30.698 -17.486  -4.973 -0.24 -0.00    +0.000 A 
DOCKED: ATOM     10  C   UNL     1      29.844 -17.419  -3.872 -0.16 -0.00    +0.000 A 
DOCKED: ATOM     11  C   UNL     1      28.898 -16.383  -3.762 -0.20 -0.00    +0.000 A 
DOCKED: ATOM     12  C   UNL     1      28.818 -15.404  -4.777 -0.28 -0.00    +0.000 A 
DOCKED: ATOM     13  O   UNL     1      26.154 -13.296  -3.448 -0.34 -0.00    +0.000 OA
DOCKED: ATOM     14  C   UNL     1      27.992 -16.313  -2.593 -0.30 -0.00    +0.000 C 
DOCKED: ATOM     15  O   UNL     1      28.086 -17.170  -1.671 -0.39 -0.00    +0.000 OA
DOCKED: ENDROOT
DOCKED: BRANCH   1  16
DOCKED: ATOM     16  C   UNL     1      26.128 -15.165  -1.333 -0.40 -0.00    +0.000 C 
DOCKED: BRANCH  16  17
DOCKED: ATOM     17  C   UNL     1      24.883 -16.034  -1.529 -0.46 -0.00    +0.000 C 
DOCKED: BRANCH  17  18
DOCKED: ATOM     18  C   UNL     1      24.844 -17.180  -0.512 -0.59 -0.00    +0.000 C 
DOCKED: BRANCH  18  19
DOCKED: ATOM     19  C   UNL     1      23.896 -18.295  -0.976 -0.80 -0.00    +0.000 C 
DOCKED: BRANCH  19  20
DOCKED: ATOM     20  C   UNL     1      22.678 -18.446  -0.055 -0.78 -0.00    +0.000 C 
DOCKED: BRANCH  20  22
DOCKED: ATOM     21  O   UNL     1      20.779 -17.403  -1.066 -1.98 -0.00    +0.000 OA
DOCKED: ATOM     22  C   UNL     1      21.393 -18.478  -0.831 -0.82 -0.00    +0.000 C 
DOCKED: ATOM     23  N   UNL     1      20.882 -19.714  -1.335 -0.78 -0.00    +0.000 N 
DOCKED: ATOM     24  O   UNL     1      19.733 -19.741  -2.049 -2.20 -0.00    +0.000 OA
DOCKED: ATOM     25  H   UNL     1      21.369 -20.553  -1.161 -0.16 -0.00    +0.000 HD
DOCKED: ENDBRANCH  20  22
DOCKED: ENDBRANCH  19  20
DOCKED: ENDBRANCH  18  19
DOCKED: ENDBRANCH  17  18
DOCKED: ENDBRANCH  16  17
DOCKED: ENDBRANCH   1  16
DOCKED: TORSDOF 6
DOCKED: TER
DOCKED: ENDMDL
________________________________________________________________________________


	BEGINNING GENETIC ALGORITHM DOCKING 13 of 100
Run: 13 Seed: 560829865 444773991 [ Run 13 of 100 GA/GALS ]
Beginning LAMARCKIAN GENETIC ALGORITHM (LGA), with a maximum of 2500000 energy evaluations.

Final-Value: -13.012


	FINAL GENETIC ALGORITHM DOCKED STATE
	_______________________________________________


Detailed state:  trans 25.641 -17.514 -2.258 quatxyzw 0.282128 -0.921859 -0.241634 -0.110418 center -0.011 0.081 -0.051 ntor 6 -170.0232 174.2382 -100.2364 -164.2143 -29.2581 125.7772
State:	 25.641 -17.514  -2.258   0.284 -0.928 -0.243 -167.321   -170.02  174.24 -100.24 -164.21  -29.26  125.78

DOCKED: MODEL       13
DOCKED: USER    Run = 13
DOCKED: USER    DPF = ligand_dock.biased.dpf
DOCKED: USER  
DOCKED: USER    Estimated Free Energy of Binding    =  -10.75 kcal/mol  [=(1)+(2)+(3)-(4)]
DOCKED: USER    Estimated Inhibition Constant, Ki   =   13.28 nM (nanomolar)  [Temperature = 298.15 K]
DOCKED: USER    
DOCKED: USER    (1) Final Intermolecular Energy     =  -12.54 kcal/mol
DOCKED: USER        vdW + Hbond + desolv Energy     =  -12.54 kcal/mol
DOCKED: USER        Electrostatic Energy            =   +0.00 kcal/mol
DOCKED: USER    (2) Final Total Internal Energy     =   -0.48 kcal/mol
DOCKED: USER    (3) Torsional Free Energy           =   +1.79 kcal/mol
DOCKED: USER    (4) Unbound System's Energy  [=(2)] =   -0.48 kcal/mol
DOCKED: USER    
DOCKED: USER    
DOCKED: USER    NEWDPF move ligand.pdbqt
DOCKED: USER    NEWDPF about -0.011000 0.081000 -0.051000
DOCKED: USER    NEWDPF tran0 25.640662 -17.513868 -2.258434
DOCKED: USER    NEWDPF quaternion0 0.282128 -0.921859 -0.241634 -0.110418
DOCKED: USER    NEWDPF axisangle0 0.283864 -0.927531 -0.243120 -167.321136
DOCKED: USER    NEWDPF quat0 0.283864 -0.927531 -0.243120 -167.321136
DOCKED: USER    NEWDPF dihe0 -170.02 174.24 -100.24 -164.21 -29.26 125.78 
DOCKED: USER  keepresnum = 1 
DOCKED: USER  
DOCKED: REMARK  Name = 
DOCKED: REMARK  6 active torsions:
DOCKED: REMARK  status: ('A' for Active; 'I' for Inactive)
DOCKED: REMARK    1  A    between atoms: C_2  and  C_5
DOCKED: REMARK    2  A    between atoms: C_5  and  C_6
DOCKED: REMARK    3  A    between atoms: C_6  and  C_7
DOCKED: REMARK    4  A    between atoms: C_7  and  C_8
DOCKED: REMARK    5  A    between atoms: C_8  and  C_9
DOCKED: REMARK    6  A    between atoms: C_9  and  N_10
DOCKED: REMARK                            x       y       z     vdW  Elec       q    Type
DOCKED: REMARK                         _______ _______ _______ _____ _____    ______ ____
DOCKED: USER                              x       y       z     vdW  Elec       q    Type
DOCKED: USER                           _______ _______ _______ _____ _____    ______ ____
DOCKED: ROOT
DOCKED: ATOM      1  N   UNL     1      25.835 -16.698  -1.880 -0.50 -0.00    +0.000 N 
DOCKED: ATOM      2  C   UNL     1      27.083 -17.269  -1.444 -0.41 -0.00    +0.000 C 
DOCKED: ATOM      3  C   UNL     1      28.359 -16.587  -1.760 -0.28 -0.00    +0.000 A 
DOCKED: ATOM      4  C   UNL     1      29.582 -17.119  -1.313 -0.23 -0.00    +0.000 A 
DOCKED: ATOM      5  C   UNL     1      30.785 -16.477  -1.611 -0.11 -0.00    +0.000 A 
DOCKED: ATOM      6  C   UNL     1      30.789 -15.299  -2.356 -0.05 -0.00    +0.000 A 
DOCKED: ATOM      7  C   UNL     1      29.583 -14.750  -2.815 -0.09 -0.00    +0.000 A 
DOCKED: ATOM      8  C   UNL     1      29.588 -13.567  -3.568 -0.06 -0.00    +0.000 A 
DOCKED: ATOM      9  C   UNL     1      28.388 -13.022  -4.026 -0.12 -0.00    +0.000 A 
DOCKED: ATOM     10  C   UNL     1      27.175 -13.649  -3.739 -0.24 -0.00    +0.000 A 
DOCKED: ATOM     11  C   UNL     1      27.144 -14.835  -2.984 -0.28 -0.00    +0.000 A 
DOCKED: ATOM     12  C   UNL     1      28.354 -15.394  -2.517 -0.19 -0.00    +0.000 A 
DOCKED: ATOM     13  O   UNL     1      27.091 -18.351  -0.795 -0.53 -0.00    +0.000 OA
DOCKED: ATOM     14  C   UNL     1      25.856 -15.500  -2.681 -0.51 -0.00    +0.000 C 
DOCKED: ATOM     15  O   UNL     1      24.778 -15.017  -3.126 -0.64 -0.00    +0.000 OA
DOCKED: ENDROOT
DOCKED: BRANCH   1  16
DOCKED: ATOM     16  C   UNL     1      24.565 -17.386  -1.604 -0.68 -0.00    +0.000 C 
DOCKED: BRANCH  16  17
DOCKED: ATOM     17  C   UNL     1      24.601 -18.024  -0.213 -0.70 -0.00    +0.000 C 
DOCKED: BRANCH  17  18
DOCKED: ATOM     18  C   UNL     1      23.197 -18.096   0.398 -0.39 -0.00    +0.000 C 
DOCKED: BRANCH  18  19
DOCKED: ATOM     19  C   UNL     1      22.118 -17.888  -0.675 -0.82 -0.00    +0.000 C 
DOCKED: BRANCH  19  20
DOCKED: ATOM     20  C   UNL     1      21.801 -19.180  -1.440 -0.66 -0.00    +0.000 C 
DOCKED: BRANCH  20  22
DOCKED: ATOM     21  O   UNL     1      19.508 -19.732  -1.828 -2.14 -0.00    +0.000 OA
DOCKED: ATOM     22  C   UNL     1      20.480 -19.762  -1.027 -0.79 -0.00    +0.000 C 
DOCKED: ATOM     23  N   UNL     1      20.330 -20.382   0.252 -0.69 -0.00    +0.000 N 
DOCKED: ATOM     24  O   UNL     1      19.145 -20.922   0.617 -0.85 -0.00    +0.000 OA
DOCKED: ATOM     25  H   UNL     1      21.094 -20.415   0.872 -0.57 -0.00    +0.000 HD
DOCKED: ENDBRANCH  20  22
DOCKED: ENDBRANCH  19  20
DOCKED: ENDBRANCH  18  19
DOCKED: ENDBRANCH  17  18
DOCKED: ENDBRANCH  16  17
DOCKED: ENDBRANCH   1  16
DOCKED: TORSDOF 6
DOCKED: TER
DOCKED: ENDMDL
________________________________________________________________________________


	BEGINNING GENETIC ALGORITHM DOCKING 14 of 100
Run: 14 Seed: 593290651 1826722186 [ Run 14 of 100 GA/GALS ]
Beginning LAMARCKIAN GENETIC ALGORITHM (LGA), with a maximum of 2500000 energy evaluations.

Final-Value: -13.988


	FINAL GENETIC ALGORITHM DOCKED STATE
	_______________________________________________


Detailed state:  trans 27.393 -15.994 -1.659 quatxyzw 0.659520 -0.231204 0.695207 0.168121 center -0.011 0.081 -0.051 ntor 6 -179.7917 -138.4480 -179.1948 -21.4123 21.7576 135.4686
State:	 27.393 -15.994  -1.659   0.669 -0.235  0.705 160.643   -179.79 -138.45 -179.19  -21.41   21.76  135.47

DOCKED: MODEL       14
DOCKED: USER    Run = 14
DOCKED: USER    DPF = ligand_dock.biased.dpf
DOCKED: USER  
DOCKED: USER    Estimated Free Energy of Binding    =  -11.50 kcal/mol  [=(1)+(2)+(3)-(4)]
DOCKED: USER    Estimated Inhibition Constant, Ki   =    3.71 nM (nanomolar)  [Temperature = 298.15 K]
DOCKED: USER    
DOCKED: USER    (1) Final Intermolecular Energy     =  -13.29 kcal/mol
DOCKED: USER        vdW + Hbond + desolv Energy     =  -13.29 kcal/mol
DOCKED: USER        Electrostatic Energy            =   +0.00 kcal/mol
DOCKED: USER    (2) Final Total Internal Energy     =   -0.70 kcal/mol
DOCKED: USER    (3) Torsional Free Energy           =   +1.79 kcal/mol
DOCKED: USER    (4) Unbound System's Energy  [=(2)] =   -0.70 kcal/mol
DOCKED: USER    
DOCKED: USER    
DOCKED: USER    NEWDPF move ligand.pdbqt
DOCKED: USER    NEWDPF about -0.011000 0.081000 -0.051000
DOCKED: USER    NEWDPF tran0 27.392660 -15.994254 -1.658742
DOCKED: USER    NEWDPF quaternion0 0.659520 -0.231204 0.695207 0.168121
DOCKED: USER    NEWDPF axisangle0 0.669043 -0.234542 0.705246 160.642793
DOCKED: USER    NEWDPF quat0 0.669043 -0.234542 0.705246 160.642793
DOCKED: USER    NEWDPF dihe0 -179.79 -138.45 -179.19 -21.41 21.76 135.47 
DOCKED: USER  keepresnum = 1 
DOCKED: USER  
DOCKED: REMARK  Name = 
DOCKED: REMARK  6 active torsions:
DOCKED: REMARK  status: ('A' for Active; 'I' for Inactive)
DOCKED: REMARK    1  A    between atoms: C_2  and  C_5
DOCKED: REMARK    2  A    between atoms: C_5  and  C_6
DOCKED: REMARK    3  A    between atoms: C_6  and  C_7
DOCKED: REMARK    4  A    between atoms: C_7  and  C_8
DOCKED: REMARK    5  A    between atoms: C_8  and  C_9
DOCKED: REMARK    6  A    between atoms: C_9  and  N_10
DOCKED: REMARK                            x       y       z     vdW  Elec       q    Type
DOCKED: REMARK                         _______ _______ _______ _____ _____    ______ ____
DOCKED: USER                              x       y       z     vdW  Elec       q    Type
DOCKED: USER                           _______ _______ _______ _____ _____    ______ ____
DOCKED: ROOT
DOCKED: ATOM      1  N   UNL     1      27.310 -16.242  -2.541 -0.32 -0.00    +0.000 N 
DOCKED: ATOM      2  C   UNL     1      26.401 -15.136  -2.700 -0.43 -0.00    +0.000 C 
DOCKED: ATOM      3  C   UNL     1      26.625 -14.143  -3.775 -0.35 -0.00    +0.000 A 
DOCKED: ATOM      4  C   UNL     1      25.728 -13.075  -3.959 -0.27 -0.00    +0.000 A 
DOCKED: ATOM      5  C   UNL     1      25.938 -12.139  -4.972 -0.22 -0.00    +0.000 A 
DOCKED: ATOM      6  C   UNL     1      27.043 -12.250  -5.816 -0.15 -0.00    +0.000 A 
DOCKED: ATOM      7  C   UNL     1      27.953 -13.304  -5.651 -0.23 -0.00    +0.000 A 
DOCKED: ATOM      8  C   UNL     1      29.066 -13.413  -6.497 -0.23 -0.00    +0.000 A 
DOCKED: ATOM      9  C   UNL     1      29.972 -14.461  -6.332 -0.23 -0.00    +0.000 A 
DOCKED: ATOM     10  C   UNL     1      29.780 -15.407  -5.325 -0.23 -0.00    +0.000 A 
DOCKED: ATOM     11  C   UNL     1      28.671 -15.320  -4.464 -0.27 -0.00    +0.000 A 
DOCKED: ATOM     12  C   UNL     1      27.748 -14.263  -4.624 -0.29 -0.00    +0.000 A 
DOCKED: ATOM     13  O   UNL     1      25.415 -15.010  -1.921 -0.44 -0.00    +0.000 OA
DOCKED: ATOM     14  C   UNL     1      28.467 -16.324  -3.396 -0.22 -0.00    +0.000 C 
DOCKED: ATOM     15  O   UNL     1      29.309 -17.250  -3.234 -0.28 -0.00    +0.000 OA
DOCKED: ENDROOT
DOCKED: BRANCH   1  16
DOCKED: ATOM     16  C   UNL     1      27.118 -17.212  -1.453 -0.42 -0.00    +0.000 C 
DOCKED: BRANCH  16  17
DOCKED: ATOM     17  C   UNL     1      25.658 -17.672  -1.406 -0.56 -0.00    +0.000 C 
DOCKED: BRANCH  17  18
DOCKED: ATOM     18  C   UNL     1      25.299 -18.231  -0.025 -0.67 -0.00    +0.000 C 
DOCKED: BRANCH  18  19
DOCKED: ATOM     19  C   UNL     1      23.781 -18.201   0.203 -0.61 -0.00    +0.000 C 
DOCKED: BRANCH  19  20
DOCKED: ATOM     20  C   UNL     1      23.014 -17.717  -1.035 -0.75 -0.00    +0.000 C 
DOCKED: BRANCH  20  22
DOCKED: ATOM     21  O   UNL     1      20.653 -17.558  -0.706 -2.13 +0.00    +0.000 OA
DOCKED: ATOM     22  C   UNL     1      21.620 -18.272  -1.080 -0.72 -0.00    +0.000 C 
DOCKED: ATOM     23  N   UNL     1      21.382 -19.590  -1.578 -0.62 -0.00    +0.000 N 
DOCKED: ATOM     24  O   UNL     1      20.124 -20.085  -1.635 -2.18 -0.00    +0.000 OA
DOCKED: ATOM     25  H   UNL     1      22.138 -20.144  -1.881 -0.48 -0.00    +0.000 HD
DOCKED: ENDBRANCH  20  22
DOCKED: ENDBRANCH  19  20
DOCKED: ENDBRANCH  18  19
DOCKED: ENDBRANCH  17  18
DOCKED: ENDBRANCH  16  17
DOCKED: ENDBRANCH   1  16
DOCKED: TORSDOF 6
DOCKED: TER
DOCKED: ENDMDL
________________________________________________________________________________


	BEGINNING GENETIC ALGORITHM DOCKING 15 of 100
Run: 15 Seed: 1705475528 387470678 [ Run 15 of 100 GA/GALS ]
Beginning LAMARCKIAN GENETIC ALGORITHM (LGA), with a maximum of 2500000 energy evaluations.

Final-Value: -13.888


	FINAL GENETIC ALGORITHM DOCKED STATE
	_______________________________________________


Detailed state:  trans 26.784 -16.963 -1.684 quatxyzw 0.111961 -0.864402 -0.206787 -0.444424 center -0.011 0.081 -0.051 ntor 6 66.2112 -56.5389 94.0730 98.8712 99.3305 20.5970
State:	 26.784 -16.963  -1.684   0.125 -0.965 -0.231 -127.227     66.21  -56.54   94.07   98.87   99.33   20.60

DOCKED: MODEL       15
DOCKED: USER    Run = 15
DOCKED: USER    DPF = ligand_dock.biased.dpf
DOCKED: USER  
DOCKED: USER    Estimated Free Energy of Binding    =  -11.29 kcal/mol  [=(1)+(2)+(3)-(4)]
DOCKED: USER    Estimated Inhibition Constant, Ki   =    5.33 nM (nanomolar)  [Temperature = 298.15 K]
DOCKED: USER    
DOCKED: USER    (1) Final Intermolecular Energy     =  -13.08 kcal/mol
DOCKED: USER        vdW + Hbond + desolv Energy     =  -13.08 kcal/mol
DOCKED: USER        Electrostatic Energy            =   +0.00 kcal/mol
DOCKED: USER    (2) Final Total Internal Energy     =   -0.81 kcal/mol
DOCKED: USER    (3) Torsional Free Energy           =   +1.79 kcal/mol
DOCKED: USER    (4) Unbound System's Energy  [=(2)] =   -0.81 kcal/mol
DOCKED: USER    
DOCKED: USER    
DOCKED: USER    NEWDPF move ligand.pdbqt
DOCKED: USER    NEWDPF about -0.011000 0.081000 -0.051000
DOCKED: USER    NEWDPF tran0 26.783952 -16.962674 -1.684128
DOCKED: USER    NEWDPF quaternion0 0.111961 -0.864402 -0.206787 -0.444424
DOCKED: USER    NEWDPF axisangle0 0.124982 -0.964932 -0.230836 -127.227013
DOCKED: USER    NEWDPF quat0 0.124982 -0.964932 -0.230836 -127.227013
DOCKED: USER    NEWDPF dihe0 66.21 -56.54 94.07 98.87 99.33 20.60 
DOCKED: USER  keepresnum = 1 
DOCKED: USER  
DOCKED: REMARK  Name = 
DOCKED: REMARK  6 active torsions:
DOCKED: REMARK  status: ('A' for Active; 'I' for Inactive)
DOCKED: REMARK    1  A    between atoms: C_2  and  C_5
DOCKED: REMARK    2  A    between atoms: C_5  and  C_6
DOCKED: REMARK    3  A    between atoms: C_6  and  C_7
DOCKED: REMARK    4  A    between atoms: C_7  and  C_8
DOCKED: REMARK    5  A    between atoms: C_8  and  C_9
DOCKED: REMARK    6  A    between atoms: C_9  and  N_10
DOCKED: REMARK                            x       y       z     vdW  Elec       q    Type
DOCKED: REMARK                         _______ _______ _______ _____ _____    ______ ____
DOCKED: USER                              x       y       z     vdW  Elec       q    Type
DOCKED: USER                           _______ _______ _______ _____ _____    ______ ____
DOCKED: ROOT
DOCKED: ATOM      1  N   UNL     1      27.189 -16.141  -1.761 -0.33 -0.00    +0.000 N 
DOCKED: ATOM      2  C   UNL     1      28.410 -16.842  -2.064 -0.28 -0.00    +0.000 C 
DOCKED: ATOM      3  C   UNL     1      29.175 -16.501  -3.286 -0.22 -0.00    +0.000 A 
DOCKED: ATOM      4  C   UNL     1      30.384 -17.158  -3.577 -0.19 -0.00    +0.000 A 
DOCKED: ATOM      5  C   UNL     1      31.106 -16.838  -4.727 -0.15 -0.00    +0.000 A 
DOCKED: ATOM      6  C   UNL     1      30.636 -15.861  -5.604 -0.19 -0.00    +0.000 A 
DOCKED: ATOM      7  C   UNL     1      29.432 -15.194  -5.338 -0.26 -0.00    +0.000 A 
DOCKED: ATOM      8  C   UNL     1      28.958 -14.214  -6.221 -0.30 -0.00    +0.000 A 
DOCKED: ATOM      9  C   UNL     1      27.759 -13.551  -5.957 -0.22 -0.00    +0.000 A 
DOCKED: ATOM     10  C   UNL     1      27.023 -13.857  -4.812 -0.33 -0.00    +0.000 A 
DOCKED: ATOM     11  C   UNL     1      27.478 -14.835  -3.909 -0.31 -0.00    +0.000 A 
DOCKED: ATOM     12  C   UNL     1      28.691 -15.511  -4.169 -0.26 -0.00    +0.000 A 
DOCKED: ATOM     13  O   UNL     1      28.827 -17.749  -1.292 -0.34 -0.00    +0.000 OA
DOCKED: ATOM     14  C   UNL     1      26.697 -15.160  -2.694 -0.39 -0.00    +0.000 C 
DOCKED: ATOM     15  O   UNL     1      25.597 -14.577  -2.479 -0.44 -0.00    +0.000 OA
DOCKED: ENDROOT
DOCKED: BRANCH   1  16
DOCKED: ATOM     16  C   UNL     1      26.402 -16.496  -0.571 -0.49 -0.00    +0.000 C 
DOCKED: BRANCH  16  17
DOCKED: ATOM     17  C   UNL     1      25.813 -17.901  -0.727 -0.65 -0.00    +0.000 C 
DOCKED: BRANCH  17  18
DOCKED: ATOM     18  C   UNL     1      24.546 -17.876  -1.589 -0.68 -0.00    +0.000 C 
DOCKED: BRANCH  18  19
DOCKED: ATOM     19  C   UNL     1      23.327 -17.442  -0.763 -0.75 -0.00    +0.000 C 
DOCKED: BRANCH  19  20
DOCKED: ATOM     20  C   UNL     1      22.714 -18.605   0.029 -0.76 -0.00    +0.000 C 
DOCKED: BRANCH  20  22
DOCKED: ATOM     21  O   UNL     1      20.629 -17.858  -0.869 -2.29 -0.00    +0.000 OA
DOCKED: ATOM     22  C   UNL     1      21.253 -18.773  -0.269 -0.78 -0.00    +0.000 C 
DOCKED: ATOM     23  N   UNL     1      20.575 -19.978   0.091 -0.72 -0.00    +0.000 N 
DOCKED: ATOM     24  O   UNL     1      19.261 -20.138  -0.192 -1.24 -0.00    +0.000 OA
DOCKED: ATOM     25  H   UNL     1      21.066 -20.698   0.550 -0.52 -0.00    +0.000 HD
DOCKED: ENDBRANCH  20  22
DOCKED: ENDBRANCH  19  20
DOCKED: ENDBRANCH  18  19
DOCKED: ENDBRANCH  17  18
DOCKED: ENDBRANCH  16  17
DOCKED: ENDBRANCH   1  16
DOCKED: TORSDOF 6
DOCKED: TER
DOCKED: ENDMDL
________________________________________________________________________________


	BEGINNING GENETIC ALGORITHM DOCKING 16 of 100
Run: 16 Seed: 1937368703 471162125 [ Run 16 of 100 GA/GALS ]
Beginning LAMARCKIAN GENETIC ALGORITHM (LGA), with a maximum of 2500000 energy evaluations.

Final-Value: -14.180


	FINAL GENETIC ALGORITHM DOCKED STATE
	_______________________________________________


Detailed state:  trans 25.389 -15.460 -3.203 quatxyzw -0.122858 0.312302 0.842438 0.421512 center -0.011 0.081 -0.051 ntor 6 -68.4548 -82.7870 36.4973 -169.8725 -38.4983 -137.6769
State:	 25.389 -15.460  -3.203  -0.135  0.344  0.929 130.140    -68.45  -82.79   36.50 -169.87  -38.50 -137.68

DOCKED: MODEL       16
DOCKED: USER    Run = 16
DOCKED: USER    DPF = ligand_dock.biased.dpf
DOCKED: USER  
DOCKED: USER    Estimated Free Energy of Binding    =  -11.68 kcal/mol  [=(1)+(2)+(3)-(4)]
DOCKED: USER    Estimated Inhibition Constant, Ki   =    2.74 nM (nanomolar)  [Temperature = 298.15 K]
DOCKED: USER    
DOCKED: USER    (1) Final Intermolecular Energy     =  -13.47 kcal/mol
DOCKED: USER        vdW + Hbond + desolv Energy     =  -13.47 kcal/mol
DOCKED: USER        Electrostatic Energy            =   +0.00 kcal/mol
DOCKED: USER    (2) Final Total Internal Energy     =   -0.71 kcal/mol
DOCKED: USER    (3) Torsional Free Energy           =   +1.79 kcal/mol
DOCKED: USER    (4) Unbound System's Energy  [=(2)] =   -0.71 kcal/mol
DOCKED: USER    
DOCKED: USER    
DOCKED: USER    NEWDPF move ligand.pdbqt
DOCKED: USER    NEWDPF about -0.011000 0.081000 -0.051000
DOCKED: USER    NEWDPF tran0 25.388525 -15.460211 -3.203160
DOCKED: USER    NEWDPF quaternion0 -0.122858 0.312302 0.842438 0.421512
DOCKED: USER    NEWDPF axisangle0 -0.135482 0.344391 0.928999 130.139857
DOCKED: USER    NEWDPF quat0 -0.135482 0.344391 0.928999 130.139857
DOCKED: USER    NEWDPF dihe0 -68.45 -82.79 36.50 -169.87 -38.50 -137.68 
DOCKED: USER  keepresnum = 1 
DOCKED: USER  
DOCKED: REMARK  Name = 
DOCKED: REMARK  6 active torsions:
DOCKED: REMARK  status: ('A' for Active; 'I' for Inactive)
DOCKED: REMARK    1  A    between atoms: C_2  and  C_5
DOCKED: REMARK    2  A    between atoms: C_5  and  C_6
DOCKED: REMARK    3  A    between atoms: C_6  and  C_7
DOCKED: REMARK    4  A    between atoms: C_7  and  C_8
DOCKED: REMARK    5  A    between atoms: C_8  and  C_9
DOCKED: REMARK    6  A    between atoms: C_9  and  N_10
DOCKED: REMARK                            x       y       z     vdW  Elec       q    Type
DOCKED: REMARK                         _______ _______ _______ _____ _____    ______ ____
DOCKED: USER                              x       y       z     vdW  Elec       q    Type
DOCKED: USER                           _______ _______ _______ _____ _____    ______ ____
DOCKED: ROOT
DOCKED: ATOM      1  N   UNL     1      26.233 -15.331  -2.862 -0.41 -0.00    +0.000 N 
DOCKED: ATOM      2  C   UNL     1      26.628 -14.893  -4.175 -0.50 -0.00    +0.000 C 
DOCKED: ATOM      3  C   UNL     1      27.308 -13.588  -4.346 -0.25 -0.00    +0.000 A 
DOCKED: ATOM      4  C   UNL     1      27.726 -13.162  -5.619 -0.23 -0.00    +0.000 A 
DOCKED: ATOM      5  C   UNL     1      28.368 -11.933  -5.781 -0.13 -0.00    +0.000 A 
DOCKED: ATOM      6  C   UNL     1      28.602 -11.111  -4.679 -0.06 -0.00    +0.000 A 
DOCKED: ATOM      7  C   UNL     1      28.193 -11.513  -3.400 -0.07 -0.00    +0.000 A 
DOCKED: ATOM      8  C   UNL     1      28.426 -10.684  -2.293 -0.05 -0.00    +0.000 A 
DOCKED: ATOM      9  C   UNL     1      28.018 -11.082  -1.020 -0.08 -0.00    +0.000 A 
DOCKED: ATOM     10  C   UNL     1      27.375 -12.307  -0.838 -0.13 -0.00    +0.000 A 
DOCKED: ATOM     11  C   UNL     1      27.131 -13.157  -1.932 -0.15 -0.00    +0.000 A 
DOCKED: ATOM     12  C   UNL     1      27.541 -12.761  -3.224 -0.14 -0.00    +0.000 A 
DOCKED: ATOM     13  O   UNL     1      26.392 -15.617  -5.182 -1.18 +0.00    +0.000 OA
DOCKED: ATOM     14  C   UNL     1      26.449 -14.456  -1.738 -0.32 -0.00    +0.000 C 
DOCKED: ATOM     15  O   UNL     1      26.055 -14.794  -0.587 -0.40 -0.00    +0.000 OA
DOCKED: ENDROOT
DOCKED: BRANCH   1  16
DOCKED: ATOM     16  C   UNL     1      25.523 -16.607  -2.685 -0.49 -0.00    +0.000 C 
DOCKED: BRANCH  16  17
DOCKED: ATOM     17  C   UNL     1      26.125 -17.390  -1.516 -0.50 -0.00    +0.000 C 
DOCKED: BRANCH  17  18
DOCKED: ATOM     18  C   UNL     1      25.035 -18.101  -0.707 -0.72 -0.00    +0.000 C 
DOCKED: BRANCH  18  19
DOCKED: ATOM     19  C   UNL     1      23.684 -18.044  -1.435 -0.76 -0.00    +0.000 C 
DOCKED: BRANCH  19  20
DOCKED: ATOM     20  C   UNL     1      22.512 -17.803  -0.474 -0.81 -0.00    +0.000 C 
DOCKED: BRANCH  20  22
DOCKED: ATOM     21  O   UNL     1      20.135 -17.862  -0.711 -2.10 +0.00    +0.000 OA
DOCKED: ATOM     22  C   UNL     1      21.237 -18.406  -0.987 -0.75 -0.00    +0.000 C 
DOCKED: ATOM     23  N   UNL     1      21.268 -19.571  -1.815 -0.58 -0.00    +0.000 N 
DOCKED: ATOM     24  O   UNL     1      20.120 -20.104  -2.292 -2.16 -0.00    +0.000 OA
DOCKED: ATOM     25  H   UNL     1      22.131 -19.989  -2.040 -0.51 -0.00    +0.000 HD
DOCKED: ENDBRANCH  20  22
DOCKED: ENDBRANCH  19  20
DOCKED: ENDBRANCH  18  19
DOCKED: ENDBRANCH  17  18
DOCKED: ENDBRANCH  16  17
DOCKED: ENDBRANCH   1  16
DOCKED: TORSDOF 6
DOCKED: TER
DOCKED: ENDMDL
________________________________________________________________________________


	BEGINNING GENETIC ALGORITHM DOCKING 17 of 100
Run: 17 Seed: 163172946 1861470061 [ Run 17 of 100 GA/GALS ]
Beginning LAMARCKIAN GENETIC ALGORITHM (LGA), with a maximum of 2500000 energy evaluations.

Final-Value: -14.137


	FINAL GENETIC ALGORITHM DOCKED STATE
	_______________________________________________


Detailed state:  trans 25.942 -15.802 -4.489 quatxyzw -0.312613 0.692001 0.460194 0.460032 center -0.011 0.081 -0.051 ntor 6 4.0883 -153.0613 12.7888 141.2124 2.0052 -158.1335
State:	 25.942 -15.802  -4.489  -0.352  0.779  0.518 125.222      4.09 -153.06   12.79  141.21    2.01 -158.13

DOCKED: MODEL       17
DOCKED: USER    Run = 17
DOCKED: USER    DPF = ligand_dock.biased.dpf
DOCKED: USER  
DOCKED: USER    Estimated Free Energy of Binding    =  -11.64 kcal/mol  [=(1)+(2)+(3)-(4)]
DOCKED: USER    Estimated Inhibition Constant, Ki   =    2.93 nM (nanomolar)  [Temperature = 298.15 K]
DOCKED: USER    
DOCKED: USER    (1) Final Intermolecular Energy     =  -13.43 kcal/mol
DOCKED: USER        vdW + Hbond + desolv Energy     =  -13.43 kcal/mol
DOCKED: USER        Electrostatic Energy            =   +0.00 kcal/mol
DOCKED: USER    (2) Final Total Internal Energy     =   -0.70 kcal/mol
DOCKED: USER    (3) Torsional Free Energy           =   +1.79 kcal/mol
DOCKED: USER    (4) Unbound System's Energy  [=(2)] =   -0.70 kcal/mol
DOCKED: USER    
DOCKED: USER    
DOCKED: USER    NEWDPF move ligand.pdbqt
DOCKED: USER    NEWDPF about -0.011000 0.081000 -0.051000
DOCKED: USER    NEWDPF tran0 25.941927 -15.801976 -4.489483
DOCKED: USER    NEWDPF quaternion0 -0.312613 0.692001 0.460194 0.460032
DOCKED: USER    NEWDPF axisangle0 -0.352080 0.779366 0.518293 125.221640
DOCKED: USER    NEWDPF quat0 -0.352080 0.779366 0.518293 125.221640
DOCKED: USER    NEWDPF dihe0 4.09 -153.06 12.79 141.21 2.01 -158.13 
DOCKED: USER  keepresnum = 1 
DOCKED: USER  
DOCKED: REMARK  Name = 
DOCKED: REMARK  6 active torsions:
DOCKED: REMARK  status: ('A' for Active; 'I' for Inactive)
DOCKED: REMARK    1  A    between atoms: C_2  and  C_5
DOCKED: REMARK    2  A    between atoms: C_5  and  C_6
DOCKED: REMARK    3  A    between atoms: C_6  and  C_7
DOCKED: REMARK    4  A    between atoms: C_7  and  C_8
DOCKED: REMARK    5  A    between atoms: C_8  and  C_9
DOCKED: REMARK    6  A    between atoms: C_9  and  N_10
DOCKED: REMARK                            x       y       z     vdW  Elec       q    Type
DOCKED: REMARK                         _______ _______ _______ _____ _____    ______ ____
DOCKED: USER                              x       y       z     vdW  Elec       q    Type
DOCKED: USER                           _______ _______ _______ _____ _____    ______ ____
DOCKED: ROOT
DOCKED: ATOM      1  N   UNL     1      26.237 -15.051  -4.047 -0.50 -0.00    +0.000 N 
DOCKED: ATOM      2  C   UNL     1      27.437 -15.135  -4.838 -0.46 -0.00    +0.000 C 
DOCKED: ATOM      3  C   UNL     1      27.903 -13.956  -5.604 -0.29 -0.00    +0.000 A 
DOCKED: ATOM      4  C   UNL     1      29.090 -14.015  -6.356 -0.28 -0.00    +0.000 A 
DOCKED: ATOM      5  C   UNL     1      29.529 -12.905  -7.077 -0.19 -0.00    +0.000 A 
DOCKED: ATOM      6  C   UNL     1      28.794 -11.720  -7.062 -0.13 -0.00    +0.000 A 
DOCKED: ATOM      7  C   UNL     1      27.607 -11.635  -6.322 -0.16 -0.00    +0.000 A 
DOCKED: ATOM      8  C   UNL     1      26.867 -10.445  -6.309 -0.14 -0.00    +0.000 A 
DOCKED: ATOM      9  C   UNL     1      25.684 -10.361  -5.575 -0.25 -0.00    +0.000 A 
DOCKED: ATOM     10  C   UNL     1      25.228 -11.461  -4.847 -0.35 -0.00    +0.000 A 
DOCKED: ATOM     11  C   UNL     1      25.953 -12.666  -4.842 -0.19 -0.00    +0.000 A 
DOCKED: ATOM     12  C   UNL     1      27.152 -12.759  -5.583 -0.16 -0.00    +0.000 A 
DOCKED: ATOM     13  O   UNL     1      28.092 -16.213  -4.883 -0.40 -0.00    +0.000 OA
DOCKED: ATOM     14  C   UNL     1      25.469 -13.833  -4.070 -0.50 -0.00    +0.000 C 
DOCKED: ATOM     15  O   UNL     1      24.381 -13.758  -3.433 -0.50 -0.00    +0.000 OA
DOCKED: ENDROOT
DOCKED: BRANCH   1  16
DOCKED: ATOM     16  C   UNL     1      25.746 -16.227  -3.314 -0.37 -0.00    +0.000 C 
DOCKED: BRANCH  16  17
DOCKED: ATOM     17  C   UNL     1      25.824 -15.979  -1.805 -0.52 -0.00    +0.000 C 
DOCKED: BRANCH  17  18
DOCKED: ATOM     18  C   UNL     1      25.361 -17.210  -1.018 -0.64 -0.00    +0.000 C 
DOCKED: BRANCH  18  19
DOCKED: ATOM     19  C   UNL     1      24.166 -17.886  -1.706 -0.68 -0.00    +0.000 C 
DOCKED: BRANCH  19  20
DOCKED: ATOM     20  C   UNL     1      23.434 -18.863  -0.776 -0.80 -0.00    +0.000 C 
DOCKED: BRANCH  20  22
DOCKED: ATOM     21  O   UNL     1      21.336 -17.785  -0.391 -1.70 -0.00    +0.000 OA
DOCKED: ATOM     22  C   UNL     1      21.943 -18.756  -0.916 -0.83 -0.00    +0.000 C 
DOCKED: ATOM     23  N   UNL     1      21.215 -19.728  -1.669 -0.60 -0.00    +0.000 N 
DOCKED: ATOM     24  O   UNL     1      19.874 -19.622  -1.809 -2.29 -0.00    +0.000 OA
DOCKED: ATOM     25  H   UNL     1      21.692 -20.481  -2.088 -0.50 -0.00    +0.000 HD
DOCKED: ENDBRANCH  20  22
DOCKED: ENDBRANCH  19  20
DOCKED: ENDBRANCH  18  19
DOCKED: ENDBRANCH  17  18
DOCKED: ENDBRANCH  16  17
DOCKED: ENDBRANCH   1  16
DOCKED: TORSDOF 6
DOCKED: TER
DOCKED: ENDMDL
________________________________________________________________________________


	BEGINNING GENETIC ALGORITHM DOCKING 18 of 100
Run: 18 Seed: 822292749 957278709 [ Run 18 of 100 GA/GALS ]
Beginning LAMARCKIAN GENETIC ALGORITHM (LGA), with a maximum of 2500000 energy evaluations.

Final-Value: -12.798


	FINAL GENETIC ALGORITHM DOCKED STATE
	_______________________________________________


Detailed state:  trans 26.352 -15.595 -1.127 quatxyzw -0.097845 -0.705759 0.579639 0.395410 center -0.011 0.081 -0.051 ntor 6 78.0046 -51.3329 -57.6039 -26.3254 101.6151 32.0650
State:	 26.352 -15.595  -1.127  -0.107 -0.768  0.631 133.417     78.00  -51.33  -57.60  -26.33  101.62   32.07

DOCKED: MODEL       18
DOCKED: USER    Run = 18
DOCKED: USER    DPF = ligand_dock.biased.dpf
DOCKED: USER  
DOCKED: USER    Estimated Free Energy of Binding    =  -10.18 kcal/mol  [=(1)+(2)+(3)-(4)]
DOCKED: USER    Estimated Inhibition Constant, Ki   =   34.55 nM (nanomolar)  [Temperature = 298.15 K]
DOCKED: USER    
DOCKED: USER    (1) Final Intermolecular Energy     =  -11.97 kcal/mol
DOCKED: USER        vdW + Hbond + desolv Energy     =  -11.97 kcal/mol
DOCKED: USER        Electrostatic Energy            =   +0.00 kcal/mol
DOCKED: USER    (2) Final Total Internal Energy     =   -0.83 kcal/mol
DOCKED: USER    (3) Torsional Free Energy           =   +1.79 kcal/mol
DOCKED: USER    (4) Unbound System's Energy  [=(2)] =   -0.83 kcal/mol
DOCKED: USER    
DOCKED: USER    
DOCKED: USER    NEWDPF move ligand.pdbqt
DOCKED: USER    NEWDPF about -0.011000 0.081000 -0.051000
DOCKED: USER    NEWDPF tran0 26.352032 -15.594721 -1.127122
DOCKED: USER    NEWDPF quaternion0 -0.097845 -0.705759 0.579639 0.395410
DOCKED: USER    NEWDPF axisangle0 -0.106527 -0.768378 0.631069 133.416922
DOCKED: USER    NEWDPF quat0 -0.106527 -0.768378 0.631069 133.416922
DOCKED: USER    NEWDPF dihe0 78.00 -51.33 -57.60 -26.33 101.62 32.07 
DOCKED: USER  keepresnum = 1 
DOCKED: USER  
DOCKED: REMARK  Name = 
DOCKED: REMARK  6 active torsions:
DOCKED: REMARK  status: ('A' for Active; 'I' for Inactive)
DOCKED: REMARK    1  A    between atoms: C_2  and  C_5
DOCKED: REMARK    2  A    between atoms: C_5  and  C_6
DOCKED: REMARK    3  A    between atoms: C_6  and  C_7
DOCKED: REMARK    4  A    between atoms: C_7  and  C_8
DOCKED: REMARK    5  A    between atoms: C_8  and  C_9
DOCKED: REMARK    6  A    between atoms: C_9  and  N_10
DOCKED: REMARK                            x       y       z     vdW  Elec       q    Type
DOCKED: REMARK                         _______ _______ _______ _____ _____    ______ ____
DOCKED: USER                              x       y       z     vdW  Elec       q    Type
DOCKED: USER                           _______ _______ _______ _____ _____    ______ ____
DOCKED: ROOT
DOCKED: ATOM      1  N   UNL     1      27.132 -15.119  -1.235 -0.26 -0.00    +0.000 N 
DOCKED: ATOM      2  C   UNL     1      26.660 -14.234  -0.201 -0.32 -0.00    +0.000 C 
DOCKED: ATOM      3  C   UNL     1      27.518 -13.938   0.968 -0.24 -0.00    +0.000 A 
DOCKED: ATOM      4  C   UNL     1      27.081 -13.053   1.970 -0.29 -0.00    +0.000 A 
DOCKED: ATOM      5  C   UNL     1      27.889 -12.773   3.072 -0.27 -0.00    +0.000 A 
DOCKED: ATOM      6  C   UNL     1      29.144 -13.370   3.194 -0.20 -0.00    +0.000 A 
DOCKED: ATOM      7  C   UNL     1      29.601 -14.258   2.211 -0.14 -0.00    +0.000 A 
DOCKED: ATOM      8  C   UNL     1      30.861 -14.861   2.337 -0.15 -0.00    +0.000 A 
DOCKED: ATOM      9  C   UNL     1      31.316 -15.746   1.360 -0.10 -0.00    +0.000 A 
DOCKED: ATOM     10  C   UNL     1      30.522 -16.039   0.250 -0.10 -0.00    +0.000 A 
DOCKED: ATOM     11  C   UNL     1      29.256 -15.446   0.100 -0.15 -0.00    +0.000 A 
DOCKED: ATOM     12  C   UNL     1      28.787 -14.548   1.085 -0.17 -0.00    +0.000 A 
DOCKED: ATOM     13  O   UNL     1      25.513 -13.713  -0.289 -0.28 -0.00    +0.000 OA
DOCKED: ATOM     14  C   UNL     1      28.414 -15.757  -1.077 -0.26 -0.00    +0.000 C 
DOCKED: ATOM     15  O   UNL     1      28.820 -16.583  -1.941 -0.29 -0.00    +0.000 OA
DOCKED: ENDROOT
DOCKED: BRANCH   1  16
DOCKED: ATOM     16  C   UNL     1      26.272 -15.449  -2.382 -0.45 -0.00    +0.000 C 
DOCKED: BRANCH  16  17
DOCKED: ATOM     17  C   UNL     1      24.939 -16.021  -1.895 -0.50 -0.00    +0.000 C 
DOCKED: BRANCH  17  18
DOCKED: ATOM     18  C   UNL     1      25.086 -17.490  -1.483 -0.67 -0.00    +0.000 C 
DOCKED: BRANCH  18  19
DOCKED: ATOM     19  C   UNL     1      24.026 -17.878  -0.442 -0.75 -0.00    +0.000 C 
DOCKED: BRANCH  19  20
DOCKED: ATOM     20  C   UNL     1      23.207 -19.103  -0.872 -0.78 -0.00    +0.000 C 
DOCKED: BRANCH  20  22
DOCKED: ATOM     21  O   UNL     1      21.333 -17.631  -0.691 -1.81 -0.00    +0.000 OA
DOCKED: ATOM     22  C   UNL     1      21.744 -18.785  -0.983 -0.83 -0.00    +0.000 C 
DOCKED: ATOM     23  N   UNL     1      20.823 -19.772  -1.452 -0.75 -0.00    +0.000 N 
DOCKED: ATOM     24  O   UNL     1      19.507 -19.481  -1.568 -1.93 -0.00    +0.000 OA
DOCKED: ATOM     25  H   UNL     1      21.147 -20.671  -1.691 -0.26 -0.00    +0.000 HD
DOCKED: ENDBRANCH  20  22
DOCKED: ENDBRANCH  19  20
DOCKED: ENDBRANCH  18  19
DOCKED: ENDBRANCH  17  18
DOCKED: ENDBRANCH  16  17
DOCKED: ENDBRANCH   1  16
DOCKED: TORSDOF 6
DOCKED: TER
DOCKED: ENDMDL
________________________________________________________________________________


	BEGINNING GENETIC ALGORITHM DOCKING 19 of 100
Run: 19 Seed: 1615955503 428081446 [ Run 19 of 100 GA/GALS ]
Beginning LAMARCKIAN GENETIC ALGORITHM (LGA), with a maximum of 2500000 energy evaluations.

Final-Value: -13.375


	FINAL GENETIC ALGORITHM DOCKED STATE
	_______________________________________________


Detailed state:  trans 25.211 -14.857 -2.161 quatxyzw 0.162274 0.028314 0.937672 0.306001 center -0.011 0.081 -0.051 ntor 6 -28.8365 -154.5138 40.5891 -97.0374 -40.7560 -126.3738
State:	 25.211 -14.857  -2.161   0.170  0.030  0.985 144.363    -28.84 -154.51   40.59  -97.04  -40.76 -126.37

DOCKED: MODEL       19
DOCKED: USER    Run = 19
DOCKED: USER    DPF = ligand_dock.biased.dpf
DOCKED: USER  
DOCKED: USER    Estimated Free Energy of Binding    =  -11.12 kcal/mol  [=(1)+(2)+(3)-(4)]
DOCKED: USER    Estimated Inhibition Constant, Ki   =    7.05 nM (nanomolar)  [Temperature = 298.15 K]
DOCKED: USER    
DOCKED: USER    (1) Final Intermolecular Energy     =  -12.91 kcal/mol
DOCKED: USER        vdW + Hbond + desolv Energy     =  -12.91 kcal/mol
DOCKED: USER        Electrostatic Energy            =   +0.00 kcal/mol
DOCKED: USER    (2) Final Total Internal Energy     =   -0.46 kcal/mol
DOCKED: USER    (3) Torsional Free Energy           =   +1.79 kcal/mol
DOCKED: USER    (4) Unbound System's Energy  [=(2)] =   -0.46 kcal/mol
DOCKED: USER    
DOCKED: USER    
DOCKED: USER    NEWDPF move ligand.pdbqt
DOCKED: USER    NEWDPF about -0.011000 0.081000 -0.051000
DOCKED: USER    NEWDPF tran0 25.210578 -14.857291 -2.160706
DOCKED: USER    NEWDPF quaternion0 0.162274 0.028314 0.937672 0.306001
DOCKED: USER    NEWDPF axisangle0 0.170451 0.029741 0.984917 144.363187
DOCKED: USER    NEWDPF quat0 0.170451 0.029741 0.984917 144.363187
DOCKED: USER    NEWDPF dihe0 -28.84 -154.51 40.59 -97.04 -40.76 -126.37 
DOCKED: USER  keepresnum = 1 
DOCKED: USER  
DOCKED: REMARK  Name = 
DOCKED: REMARK  6 active torsions:
DOCKED: REMARK  status: ('A' for Active; 'I' for Inactive)
DOCKED: REMARK    1  A    between atoms: C_2  and  C_5
DOCKED: REMARK    2  A    between atoms: C_5  and  C_6
DOCKED: REMARK    3  A    between atoms: C_6  and  C_7
DOCKED: REMARK    4  A    between atoms: C_7  and  C_8
DOCKED: REMARK    5  A    between atoms: C_8  and  C_9
DOCKED: REMARK    6  A    between atoms: C_9  and  N_10
DOCKED: REMARK                            x       y       z     vdW  Elec       q    Type
DOCKED: REMARK                         _______ _______ _______ _____ _____    ______ ____
DOCKED: USER                              x       y       z     vdW  Elec       q    Type
DOCKED: USER                           _______ _______ _______ _____ _____    ______ ____
DOCKED: ROOT
DOCKED: ATOM      1  N   UNL     1      26.048 -15.091  -2.460 -0.39 -0.00    +0.000 N 
DOCKED: ATOM      2  C   UNL     1      25.808 -14.245  -3.600 -0.49 -0.00    +0.000 C 
DOCKED: ATOM      3  C   UNL     1      26.788 -13.195  -3.962 -0.27 -0.00    +0.000 A 
DOCKED: ATOM      4  C   UNL     1      26.580 -12.382  -5.090 -0.22 -0.00    +0.000 A 
DOCKED: ATOM      5  C   UNL     1      27.503 -11.393  -5.432 -0.14 -0.00    +0.000 A 
DOCKED: ATOM      6  C   UNL     1      28.646 -11.199  -4.657 -0.06 -0.00    +0.000 A 
DOCKED: ATOM      7  C   UNL     1      28.875 -11.995  -3.526 -0.05 -0.00    +0.000 A 
DOCKED: ATOM      8  C   UNL     1      30.023 -11.796  -2.745 -0.01 -0.00    +0.000 A 
DOCKED: ATOM      9  C   UNL     1      30.250 -12.587  -1.619 -0.01 -0.00    +0.000 A 
DOCKED: ATOM     10  C   UNL     1      29.339 -13.581  -1.260 -0.05 -0.00    +0.000 A 
DOCKED: ATOM     11  C   UNL     1      28.181 -13.801  -2.028 -0.11 -0.00    +0.000 A 
DOCKED: ATOM     12  C   UNL     1      27.943 -13.004  -3.170 -0.12 -0.00    +0.000 A 
DOCKED: ATOM     13  O   UNL     1      24.761 -14.393  -4.289 -1.05 -0.00    +0.000 OA
DOCKED: ATOM     14  C   UNL     1      27.214 -14.855  -1.647 -0.28 -0.00    +0.000 C 
DOCKED: ATOM     15  O   UNL     1      27.413 -15.545  -0.609 -0.31 -0.00    +0.000 OA
DOCKED: ENDROOT
DOCKED: BRANCH   1  16
DOCKED: ATOM     16  C   UNL     1      25.064 -16.111  -2.069 -0.55 -0.00    +0.000 C 
DOCKED: BRANCH  16  17
DOCKED: ATOM     17  C   UNL     1      25.774 -17.339  -1.494 -0.58 -0.00    +0.000 C 
DOCKED: BRANCH  17  18
DOCKED: ATOM     18  C   UNL     1      25.026 -17.889  -0.275 -0.69 -0.00    +0.000 C 
DOCKED: BRANCH  18  19
DOCKED: ATOM     19  C   UNL     1      23.873 -18.808  -0.705 -0.76 -0.00    +0.000 C 
DOCKED: BRANCH  19  20
DOCKED: ATOM     20  C   UNL     1      22.589 -18.544   0.092 -0.73 -0.00    +0.000 C 
DOCKED: BRANCH  20  22
DOCKED: ATOM     21  O   UNL     1      20.780 -17.452  -1.025 -2.02 -0.00    +0.000 OA
DOCKED: ATOM     22  C   UNL     1      21.375 -18.537  -0.792 -0.84 -0.00    +0.000 C 
DOCKED: ATOM     23  N   UNL     1      20.914 -19.747  -1.397 -0.76 -0.00    +0.000 N 
DOCKED: ATOM     24  O   UNL     1      19.831 -19.738  -2.208 -2.26 -0.00    +0.000 OA
DOCKED: ATOM     25  H   UNL     1      21.387 -20.593  -1.224 -0.14 -0.00    +0.000 HD
DOCKED: ENDBRANCH  20  22
DOCKED: ENDBRANCH  19  20
DOCKED: ENDBRANCH  18  19
DOCKED: ENDBRANCH  17  18
DOCKED: ENDBRANCH  16  17
DOCKED: ENDBRANCH   1  16
DOCKED: TORSDOF 6
DOCKED: TER
DOCKED: ENDMDL
________________________________________________________________________________


	BEGINNING GENETIC ALGORITHM DOCKING 20 of 100
Run: 20 Seed: 363462199 103540088 [ Run 20 of 100 GA/GALS ]
Beginning LAMARCKIAN GENETIC ALGORITHM (LGA), with a maximum of 2500000 energy evaluations.

Final-Value: -13.504


	FINAL GENETIC ALGORITHM DOCKED STATE
	_______________________________________________


Detailed state:  trans 26.617 -15.210 -2.520 quatxyzw 0.399035 -0.801868 0.432643 -0.102950 center -0.011 0.081 -0.051 ntor 6 34.2362 -116.9636 22.2176 128.2090 48.0881 32.8587
State:	 26.617 -15.210  -2.520   0.401 -0.806  0.435 -168.182     34.24 -116.96   22.22  128.21   48.09   32.86

DOCKED: MODEL       20
DOCKED: USER    Run = 20
DOCKED: USER    DPF = ligand_dock.biased.dpf
DOCKED: USER  
DOCKED: USER    Estimated Free Energy of Binding    =  -11.08 kcal/mol  [=(1)+(2)+(3)-(4)]
DOCKED: USER    Estimated Inhibition Constant, Ki   =    7.56 nM (nanomolar)  [Temperature = 298.15 K]
DOCKED: USER    
DOCKED: USER    (1) Final Intermolecular Energy     =  -12.87 kcal/mol
DOCKED: USER        vdW + Hbond + desolv Energy     =  -12.87 kcal/mol
DOCKED: USER        Electrostatic Energy            =   +0.00 kcal/mol
DOCKED: USER    (2) Final Total Internal Energy     =   -0.63 kcal/mol
DOCKED: USER    (3) Torsional Free Energy           =   +1.79 kcal/mol
DOCKED: USER    (4) Unbound System's Energy  [=(2)] =   -0.63 kcal/mol
DOCKED: USER    
DOCKED: USER    
DOCKED: USER    NEWDPF move ligand.pdbqt
DOCKED: USER    NEWDPF about -0.011000 0.081000 -0.051000
DOCKED: USER    NEWDPF tran0 26.617218 -15.210028 -2.520344
DOCKED: USER    NEWDPF quaternion0 0.399035 -0.801868 0.432643 -0.102950
DOCKED: USER    NEWDPF axisangle0 0.401167 -0.806151 0.434954 -168.181853
DOCKED: USER    NEWDPF quat0 0.401167 -0.806151 0.434954 -168.181853
DOCKED: USER    NEWDPF dihe0 34.24 -116.96 22.22 128.21 48.09 32.86 
DOCKED: USER  keepresnum = 1 
DOCKED: USER  
DOCKED: REMARK  Name = 
DOCKED: REMARK  6 active torsions:
DOCKED: REMARK  status: ('A' for Active; 'I' for Inactive)
DOCKED: REMARK    1  A    between atoms: C_2  and  C_5
DOCKED: REMARK    2  A    between atoms: C_5  and  C_6
DOCKED: REMARK    3  A    between atoms: C_6  and  C_7
DOCKED: REMARK    4  A    between atoms: C_7  and  C_8
DOCKED: REMARK    5  A    between atoms: C_8  and  C_9
DOCKED: REMARK    6  A    between atoms: C_9  and  N_10
DOCKED: REMARK                            x       y       z     vdW  Elec       q    Type
DOCKED: REMARK                         _______ _______ _______ _____ _____    ______ ____
DOCKED: USER                              x       y       z     vdW  Elec       q    Type
DOCKED: USER                           _______ _______ _______ _____ _____    ______ ____
DOCKED: ROOT
DOCKED: ATOM      1  N   UNL     1      26.496 -14.606  -3.203 -0.35 -0.00    +0.000 N 
DOCKED: ATOM      2  C   UNL     1      27.314 -13.689  -2.452 -0.21 -0.00    +0.000 C 
DOCKED: ATOM      3  C   UNL     1      28.483 -13.046  -3.093 -0.09 -0.00    +0.000 A 
DOCKED: ATOM      4  C   UNL     1      29.272 -12.125  -2.380 -0.03 -0.00    +0.000 A 
DOCKED: ATOM      5  C   UNL     1      30.375 -11.518  -2.983 -0.01 -0.00    +0.000 A 
DOCKED: ATOM      6  C   UNL     1      30.708 -11.818  -4.304 -0.01 -0.00    +0.000 A 
DOCKED: ATOM      7  C   UNL     1      29.938 -12.734  -5.036 -0.06 -0.00    +0.000 A 
DOCKED: ATOM      8  C   UNL     1      30.276 -13.037  -6.362 -0.11 -0.00    +0.000 A 
DOCKED: ATOM      9  C   UNL     1      29.512 -13.949  -7.090 -0.27 -0.00    +0.000 A 
DOCKED: ATOM     10  C   UNL     1      28.406 -14.567  -6.504 -0.29 -0.00    +0.000 A 
DOCKED: ATOM     11  C   UNL     1      28.046 -14.278  -5.176 -0.30 -0.00    +0.000 A 
DOCKED: ATOM     12  C   UNL     1      28.814 -13.355  -4.432 -0.12 -0.00    +0.000 A 
DOCKED: ATOM     13  O   UNL     1      27.037 -13.436  -1.247 -0.22 -0.00    +0.000 OA
DOCKED: ATOM     14  C   UNL     1      26.873 -14.934  -4.554 -0.49 -0.00    +0.000 C 
DOCKED: ATOM     15  O   UNL     1      26.205 -15.781  -5.210 -1.14 +0.00    +0.000 OA
DOCKED: ENDROOT
DOCKED: BRANCH   1  16
DOCKED: ATOM     16  C   UNL     1      25.354 -15.279  -2.565 -0.48 -0.00    +0.000 C 
DOCKED: BRANCH  16  17
DOCKED: ATOM     17  C   UNL     1      25.813 -16.016  -1.304 -0.51 -0.00    +0.000 C 
DOCKED: BRANCH  17  18
DOCKED: ATOM     18  C   UNL     1      25.273 -17.450  -1.275 -0.66 -0.00    +0.000 C 
DOCKED: BRANCH  18  19
DOCKED: ATOM     19  C   UNL     1      23.754 -17.471  -1.505 -0.66 -0.00    +0.000 C 
DOCKED: BRANCH  19  20
DOCKED: ATOM     20  C   UNL     1      23.089 -18.711  -0.893 -0.82 -0.00    +0.000 C 
DOCKED: BRANCH  20  22
DOCKED: ATOM     21  O   UNL     1      20.985 -17.594  -0.708 -2.10 -0.00    +0.000 OA
DOCKED: ATOM     22  C   UNL     1      21.594 -18.656  -1.007 -0.82 -0.00    +0.000 C 
DOCKED: ATOM     23  N   UNL     1      20.862 -19.786  -1.487 -0.72 -0.00    +0.000 N 
DOCKED: ATOM     24  O   UNL     1      19.515 -19.730  -1.607 -2.11 -0.00    +0.000 OA
DOCKED: ATOM     25  H   UNL     1      21.340 -20.611  -1.732 -0.29 -0.00    +0.000 HD
DOCKED: ENDBRANCH  20  22
DOCKED: ENDBRANCH  19  20
DOCKED: ENDBRANCH  18  19
DOCKED: ENDBRANCH  17  18
DOCKED: ENDBRANCH  16  17
DOCKED: ENDBRANCH   1  16
DOCKED: TORSDOF 6
DOCKED: TER
DOCKED: ENDMDL
________________________________________________________________________________


	BEGINNING GENETIC ALGORITHM DOCKING 21 of 100
Run: 21 Seed: 1616445879 1555646590 [ Run 21 of 100 GA/GALS ]
Beginning LAMARCKIAN GENETIC ALGORITHM (LGA), with a maximum of 2500000 energy evaluations.

Final-Value: -13.967


	FINAL GENETIC ALGORITHM DOCKED STATE
	_______________________________________________


Detailed state:  trans 25.366 -14.895 -3.300 quatxyzw 0.057730 0.398914 0.907299 0.119761 center -0.011 0.081 -0.051 ntor 6 -45.6585 -179.3112 74.1473 -43.4065 -78.5907 163.8304
State:	 25.366 -14.895  -3.300   0.058  0.402  0.914 166.243    -45.66 -179.31   74.15  -43.41  -78.59  163.83

DOCKED: MODEL       21
DOCKED: USER    Run = 21
DOCKED: USER    DPF = ligand_dock.biased.dpf
DOCKED: USER  
DOCKED: USER    Estimated Free Energy of Binding    =  -11.35 kcal/mol  [=(1)+(2)+(3)-(4)]
DOCKED: USER    Estimated Inhibition Constant, Ki   =    4.80 nM (nanomolar)  [Temperature = 298.15 K]
DOCKED: USER    
DOCKED: USER    (1) Final Intermolecular Energy     =  -13.14 kcal/mol
DOCKED: USER        vdW + Hbond + desolv Energy     =  -13.14 kcal/mol
DOCKED: USER        Electrostatic Energy            =   +0.00 kcal/mol
DOCKED: USER    (2) Final Total Internal Energy     =   -0.83 kcal/mol
DOCKED: USER    (3) Torsional Free Energy           =   +1.79 kcal/mol
DOCKED: USER    (4) Unbound System's Energy  [=(2)] =   -0.83 kcal/mol
DOCKED: USER    
DOCKED: USER    
DOCKED: USER    NEWDPF move ligand.pdbqt
DOCKED: USER    NEWDPF about -0.011000 0.081000 -0.051000
DOCKED: USER    NEWDPF tran0 25.366202 -14.895026 -3.300235
DOCKED: USER    NEWDPF quaternion0 0.057730 0.398914 0.907299 0.119761
DOCKED: USER    NEWDPF axisangle0 0.058149 0.401806 0.913877 166.243356
DOCKED: USER    NEWDPF quat0 0.058149 0.401806 0.913877 166.243356
DOCKED: USER    NEWDPF dihe0 -45.66 -179.31 74.15 -43.41 -78.59 163.83 
DOCKED: USER  keepresnum = 1 
DOCKED: USER  
DOCKED: REMARK  Name = 
DOCKED: REMARK  6 active torsions:
DOCKED: REMARK  status: ('A' for Active; 'I' for Inactive)
DOCKED: REMARK    1  A    between atoms: C_2  and  C_5
DOCKED: REMARK    2  A    between atoms: C_5  and  C_6
DOCKED: REMARK    3  A    between atoms: C_6  and  C_7
DOCKED: REMARK    4  A    between atoms: C_7  and  C_8
DOCKED: REMARK    5  A    between atoms: C_8  and  C_9
DOCKED: REMARK    6  A    between atoms: C_9  and  N_10
DOCKED: REMARK                            x       y       z     vdW  Elec       q    Type
DOCKED: REMARK                         _______ _______ _______ _____ _____    ______ ____
DOCKED: USER                              x       y       z     vdW  Elec       q    Type
DOCKED: USER                           _______ _______ _______ _____ _____    ______ ____
DOCKED: ROOT
DOCKED: ATOM      1  N   UNL     1      26.127 -15.302  -2.982 -0.43 -0.00    +0.000 N 
DOCKED: ATOM      2  C   UNL     1      26.553 -15.434  -4.351 -0.51 -0.00    +0.000 C 
DOCKED: ATOM      3  C   UNL     1      27.887 -14.940  -4.762 -0.35 -0.00    +0.000 A 
DOCKED: ATOM      4  C   UNL     1      28.326 -15.090  -6.090 -0.33 -0.00    +0.000 A 
DOCKED: ATOM      5  C   UNL     1      29.583 -14.626  -6.479 -0.29 -0.00    +0.000 A 
DOCKED: ATOM      6  C   UNL     1      30.421 -14.005  -5.552 -0.10 -0.00    +0.000 A 
DOCKED: ATOM      7  C   UNL     1      30.006 -13.841  -4.224 -0.06 -0.00    +0.000 A 
DOCKED: ATOM      8  C   UNL     1      30.847 -13.214  -3.294 -0.02 -0.00    +0.000 A 
DOCKED: ATOM      9  C   UNL     1      30.433 -13.049  -1.972 -0.02 -0.00    +0.000 A 
DOCKED: ATOM     10  C   UNL     1      29.180 -13.507  -1.565 -0.06 -0.00    +0.000 A 
DOCKED: ATOM     11  C   UNL     1      28.318 -14.141  -2.478 -0.12 -0.00    +0.000 A 
DOCKED: ATOM     12  C   UNL     1      28.729 -14.311  -3.818 -0.14 -0.00    +0.000 A 
DOCKED: ATOM     13  O   UNL     1      25.789 -15.967  -5.203 -1.10 +0.00    +0.000 OA
DOCKED: ATOM     14  C   UNL     1      26.988 -14.626  -2.045 -0.29 -0.00    +0.000 C 
DOCKED: ATOM     15  O   UNL     1      26.609 -14.445  -0.854 -0.32 -0.00    +0.000 OA
DOCKED: ENDROOT
DOCKED: BRANCH   1  16
DOCKED: ATOM     16  C   UNL     1      24.790 -15.754  -2.571 -0.26 -0.00    +0.000 C 
DOCKED: BRANCH  16  17
DOCKED: ATOM     17  C   UNL     1      24.759 -17.281  -2.461 -0.34 -0.00    +0.000 C 
DOCKED: BRANCH  17  18
DOCKED: ATOM     18  C   UNL     1      24.861 -17.732  -1.000 -0.71 -0.00    +0.000 C 
DOCKED: BRANCH  18  19
DOCKED: ATOM     19  C   UNL     1      23.871 -18.868  -0.704 -0.75 -0.00    +0.000 C 
DOCKED: BRANCH  19  20
DOCKED: ATOM     20  C   UNL     1      22.632 -18.378   0.057 -0.76 -0.00    +0.000 C 
DOCKED: BRANCH  20  22
DOCKED: ATOM     21  O   UNL     1      20.675 -17.436  -0.941 -2.03 -0.00    +0.000 OA
DOCKED: ATOM     22  C   UNL     1      21.391 -18.461  -0.784 -0.83 -0.00    +0.000 C 
DOCKED: ATOM     23  N   UNL     1      21.039 -19.682  -1.437 -0.75 -0.00    +0.000 N 
DOCKED: ATOM     24  O   UNL     1      19.930 -19.752  -2.210 -2.31 -0.00    +0.000 OA
DOCKED: ATOM     25  H   UNL     1      21.606 -20.480  -1.324 -0.25 -0.00    +0.000 HD
DOCKED: ENDBRANCH  20  22
DOCKED: ENDBRANCH  19  20
DOCKED: ENDBRANCH  18  19
DOCKED: ENDBRANCH  17  18
DOCKED: ENDBRANCH  16  17
DOCKED: ENDBRANCH   1  16
DOCKED: TORSDOF 6
DOCKED: TER
DOCKED: ENDMDL
________________________________________________________________________________


	BEGINNING GENETIC ALGORITHM DOCKING 22 of 100
Run: 22 Seed: 193438075 2047009482 [ Run 22 of 100 GA/GALS ]
Beginning LAMARCKIAN GENETIC ALGORITHM (LGA), with a maximum of 2500000 energy evaluations.

Final-Value: -13.862


	FINAL GENETIC ALGORITHM DOCKED STATE
	_______________________________________________


Detailed state:  trans 26.332 -16.046 -2.003 quatxyzw -0.635255 0.758120 -0.141950 -0.039432 center -0.011 0.081 -0.051 ntor 6 -98.2490 -97.1239 97.2791 -164.7615 -27.2575 50.0284
State:	 26.332 -16.046  -2.003  -0.636  0.759 -0.142 -175.480    -98.25  -97.12   97.28 -164.76  -27.26   50.03

DOCKED: MODEL       22
DOCKED: USER    Run = 22
DOCKED: USER    DPF = ligand_dock.biased.dpf
DOCKED: USER  
DOCKED: USER    Estimated Free Energy of Binding    =  -11.70 kcal/mol  [=(1)+(2)+(3)-(4)]
DOCKED: USER    Estimated Inhibition Constant, Ki   =    2.65 nM (nanomolar)  [Temperature = 298.15 K]
DOCKED: USER    
DOCKED: USER    (1) Final Intermolecular Energy     =  -13.49 kcal/mol
DOCKED: USER        vdW + Hbond + desolv Energy     =  -13.49 kcal/mol
DOCKED: USER        Electrostatic Energy            =   +0.00 kcal/mol
DOCKED: USER    (2) Final Total Internal Energy     =   -0.37 kcal/mol
DOCKED: USER    (3) Torsional Free Energy           =   +1.79 kcal/mol
DOCKED: USER    (4) Unbound System's Energy  [=(2)] =   -0.37 kcal/mol
DOCKED: USER    
DOCKED: USER    
DOCKED: USER    NEWDPF move ligand.pdbqt
DOCKED: USER    NEWDPF about -0.011000 0.081000 -0.051000
DOCKED: USER    NEWDPF tran0 26.332204 -16.045565 -2.002860
DOCKED: USER    NEWDPF quaternion0 -0.635255 0.758120 -0.141950 -0.039432
DOCKED: USER    NEWDPF axisangle0 -0.635749 0.758710 -0.142061 -175.480309
DOCKED: USER    NEWDPF quat0 -0.635749 0.758710 -0.142061 -175.480309
DOCKED: USER    NEWDPF dihe0 -98.25 -97.12 97.28 -164.76 -27.26 50.03 
DOCKED: USER  keepresnum = 1 
DOCKED: USER  
DOCKED: REMARK  Name = 
DOCKED: REMARK  6 active torsions:
DOCKED: REMARK  status: ('A' for Active; 'I' for Inactive)
DOCKED: REMARK    1  A    between atoms: C_2  and  C_5
DOCKED: REMARK    2  A    between atoms: C_5  and  C_6
DOCKED: REMARK    3  A    between atoms: C_6  and  C_7
DOCKED: REMARK    4  A    between atoms: C_7  and  C_8
DOCKED: REMARK    5  A    between atoms: C_8  and  C_9
DOCKED: REMARK    6  A    between atoms: C_9  and  N_10
DOCKED: REMARK                            x       y       z     vdW  Elec       q    Type
DOCKED: REMARK                         _______ _______ _______ _____ _____    ______ ____
DOCKED: USER                              x       y       z     vdW  Elec       q    Type
DOCKED: USER                           _______ _______ _______ _____ _____    ______ ____
DOCKED: ROOT
DOCKED: ATOM      1  N   UNL     1      25.769 -15.341  -2.184 -0.42 -0.00    +0.000 N 
DOCKED: ATOM      2  C   UNL     1      26.387 -14.646  -1.085 -0.34 -0.00    +0.000 C 
DOCKED: ATOM      3  C   UNL     1      26.937 -13.286  -1.285 -0.15 -0.00    +0.000 A 
DOCKED: ATOM      4  C   UNL     1      27.516 -12.585  -0.212 -0.15 -0.00    +0.000 A 
DOCKED: ATOM      5  C   UNL     1      28.034 -11.303  -0.400 -0.08 -0.00    +0.000 A 
DOCKED: ATOM      6  C   UNL     1      27.984 -10.701  -1.657 -0.07 -0.00    +0.000 A 
DOCKED: ATOM      7  C   UNL     1      27.414 -11.380  -2.743 -0.11 -0.00    +0.000 A 
DOCKED: ATOM      8  C   UNL     1      27.368 -10.775  -4.007 -0.10 -0.00    +0.000 A 
DOCKED: ATOM      9  C   UNL     1      26.802 -11.451  -5.088 -0.19 -0.00    +0.000 A 
DOCKED: ATOM     10  C   UNL     1      26.279 -12.733  -4.920 -0.19 -0.00    +0.000 A 
DOCKED: ATOM     11  C   UNL     1      26.312 -13.361  -3.662 -0.31 -0.00    +0.000 A 
DOCKED: ATOM     12  C   UNL     1      26.883 -12.683  -2.562 -0.07 -0.00    +0.000 A 
DOCKED: ATOM     13  O   UNL     1      26.464 -15.196   0.049 -0.37 -0.00    +0.000 OA
DOCKED: ATOM     14  C   UNL     1      25.757 -14.722  -3.485 -0.53 -0.00    +0.000 C 
DOCKED: ATOM     15  O   UNL     1      25.275 -15.339  -4.476 -0.83 -0.00    +0.000 OA
DOCKED: ENDROOT
DOCKED: BRANCH   1  16
DOCKED: ATOM     16  C   UNL     1      25.253 -16.707  -2.006 -0.60 -0.00    +0.000 C 
DOCKED: BRANCH  16  17
DOCKED: ATOM     17  C   UNL     1      26.179 -17.506  -1.085 -0.58 -0.00    +0.000 C 
DOCKED: BRANCH  17  18
DOCKED: ATOM     18  C   UNL     1      25.410 -18.608  -0.349 -0.61 -0.00    +0.000 C 
DOCKED: BRANCH  18  19
DOCKED: ATOM     19  C   UNL     1      24.045 -18.859  -1.005 -0.71 -0.00    +0.000 C 
DOCKED: BRANCH  19  20
DOCKED: ATOM     20  C   UNL     1      22.999 -17.813  -0.596 -0.80 -0.00    +0.000 C 
DOCKED: BRANCH  20  22
DOCKED: ATOM     21  O   UNL     1      20.635 -17.485  -0.706 -2.08 +0.00    +0.000 OA
DOCKED: ATOM     22  C   UNL     1      21.607 -18.247  -0.952 -0.75 -0.00    +0.000 C 
DOCKED: ATOM     23  N   UNL     1      21.383 -19.502  -1.597 -0.65 -0.00    +0.000 N 
DOCKED: ATOM     24  O   UNL     1      20.130 -19.886  -1.933 -2.31 -0.00    +0.000 OA
DOCKED: ATOM     25  H   UNL     1      22.145 -20.093  -1.799 -0.47 -0.00    +0.000 HD
DOCKED: ENDBRANCH  20  22
DOCKED: ENDBRANCH  19  20
DOCKED: ENDBRANCH  18  19
DOCKED: ENDBRANCH  17  18
DOCKED: ENDBRANCH  16  17
DOCKED: ENDBRANCH   1  16
DOCKED: TORSDOF 6
DOCKED: TER
DOCKED: ENDMDL
________________________________________________________________________________


	BEGINNING GENETIC ALGORITHM DOCKING 23 of 100
Run: 23 Seed: 1436894017 1751571692 [ Run 23 of 100 GA/GALS ]
Beginning LAMARCKIAN GENETIC ALGORITHM (LGA), with a maximum of 2500000 energy evaluations.

Final-Value: -12.998


	FINAL GENETIC ALGORITHM DOCKED STATE
	_______________________________________________


Detailed state:  trans 26.373 -16.536 -2.165 quatxyzw 0.373218 -0.887959 0.238087 -0.124708 center -0.011 0.081 -0.051 ntor 6 128.8216 179.8152 -40.5288 -150.6308 -5.7611 35.1381
State:	 26.373 -16.536  -2.165   0.376 -0.895  0.240 -165.672    128.82  179.82  -40.53 -150.63   -5.76   35.14

DOCKED: MODEL       23
DOCKED: USER    Run = 23
DOCKED: USER    DPF = ligand_dock.biased.dpf
DOCKED: USER  
DOCKED: USER    Estimated Free Energy of Binding    =  -10.57 kcal/mol  [=(1)+(2)+(3)-(4)]
DOCKED: USER    Estimated Inhibition Constant, Ki   =   17.87 nM (nanomolar)  [Temperature = 298.15 K]
DOCKED: USER    
DOCKED: USER    (1) Final Intermolecular Energy     =  -12.36 kcal/mol
DOCKED: USER        vdW + Hbond + desolv Energy     =  -12.36 kcal/mol
DOCKED: USER        Electrostatic Energy            =   +0.00 kcal/mol
DOCKED: USER    (2) Final Total Internal Energy     =   -0.64 kcal/mol
DOCKED: USER    (3) Torsional Free Energy           =   +1.79 kcal/mol
DOCKED: USER    (4) Unbound System's Energy  [=(2)] =   -0.64 kcal/mol
DOCKED: USER    
DOCKED: USER    
DOCKED: USER    NEWDPF move ligand.pdbqt
DOCKED: USER    NEWDPF about -0.011000 0.081000 -0.051000
DOCKED: USER    NEWDPF tran0 26.372791 -16.536221 -2.164727
DOCKED: USER    NEWDPF quaternion0 0.373218 -0.887959 0.238087 -0.124708
DOCKED: USER    NEWDPF axisangle0 0.376154 -0.894945 0.239960 -165.672247
DOCKED: USER    NEWDPF quat0 0.376154 -0.894945 0.239960 -165.672247
DOCKED: USER    NEWDPF dihe0 128.82 179.82 -40.53 -150.63 -5.76 35.14 
DOCKED: USER  keepresnum = 1 
DOCKED: USER  
DOCKED: REMARK  Name = 
DOCKED: REMARK  6 active torsions:
DOCKED: REMARK  status: ('A' for Active; 'I' for Inactive)
DOCKED: REMARK    1  A    between atoms: C_2  and  C_5
DOCKED: REMARK    2  A    between atoms: C_5  and  C_6
DOCKED: REMARK    3  A    between atoms: C_6  and  C_7
DOCKED: REMARK    4  A    between atoms: C_7  and  C_8
DOCKED: REMARK    5  A    between atoms: C_8  and  C_9
DOCKED: REMARK    6  A    between atoms: C_9  and  N_10
DOCKED: REMARK                            x       y       z     vdW  Elec       q    Type
DOCKED: REMARK                         _______ _______ _______ _____ _____    ______ ____
DOCKED: USER                              x       y       z     vdW  Elec       q    Type
DOCKED: USER                           _______ _______ _______ _____ _____    ______ ____
DOCKED: ROOT
DOCKED: ATOM      1  N   UNL     1      26.291 -15.713  -2.566 -0.41 -0.00    +0.000 N 
DOCKED: ATOM      2  C   UNL     1      27.352 -15.259  -1.704 -0.29 -0.00    +0.000 C 
DOCKED: ATOM      3  C   UNL     1      28.541 -14.592  -2.283 -0.13 -0.00    +0.000 A 
DOCKED: ATOM      4  C   UNL     1      29.570 -14.117  -1.449 -0.06 -0.00    +0.000 A 
DOCKED: ATOM      5  C   UNL     1      30.691 -13.489  -1.993 -0.01 -0.00    +0.000 A 
DOCKED: ATOM      6  C   UNL     1      30.805 -13.324  -3.373 -0.02 -0.00    +0.000 A 
DOCKED: ATOM      7  C   UNL     1      29.794 -13.791  -4.226 -0.07 -0.00    +0.000 A 
DOCKED: ATOM      8  C   UNL     1      29.911 -13.628  -5.613 -0.12 -0.00    +0.000 A 
DOCKED: ATOM      9  C   UNL     1      28.907 -14.094  -6.461 -0.30 -0.00    +0.000 A 
DOCKED: ATOM     10  C   UNL     1      27.778 -14.725  -5.937 -0.31 -0.00    +0.000 A 
DOCKED: ATOM     11  C   UNL     1      27.637 -14.899  -4.548 -0.35 -0.00    +0.000 A 
DOCKED: ATOM     12  C   UNL     1      28.649 -14.430  -3.682 -0.15 -0.00    +0.000 A 
DOCKED: ATOM     13  O   UNL     1      27.271 -15.431  -0.456 -0.32 -0.00    +0.000 OA
DOCKED: ATOM     14  C   UNL     1      26.439 -15.569  -3.992 -0.50 -0.00    +0.000 C 
DOCKED: ATOM     15  O   UNL     1      25.550 -16.015  -4.769 -0.81 -0.00    +0.000 OA
DOCKED: ENDROOT
DOCKED: BRANCH   1  16
DOCKED: ATOM     16  C   UNL     1      25.124 -16.409  -2.006 -0.59 -0.00    +0.000 C 
DOCKED: BRANCH  16  17
DOCKED: ATOM     17  C   UNL     1      25.577 -17.580  -1.130 -0.63 -0.00    +0.000 C 
DOCKED: BRANCH  17  18
DOCKED: ATOM     18  C   UNL     1      24.385 -18.233  -0.421 -0.76 -0.00    +0.000 C 
DOCKED: BRANCH  18  19
DOCKED: ATOM     19  C   UNL     1      23.103 -18.092  -1.254 -0.75 -0.00    +0.000 C 
DOCKED: BRANCH  19  20
DOCKED: ATOM     20  C   UNL     1      22.213 -19.339  -1.170 -0.70 -0.00    +0.000 C 
DOCKED: BRANCH  20  22
DOCKED: ATOM     21  O   UNL     1      20.253 -18.051  -0.710 -2.18 -0.00    +0.000 OA
DOCKED: ATOM     22  C   UNL     1      20.941 -19.066  -0.421 -0.86 -0.00    +0.000 C 
DOCKED: ATOM     23  N   UNL     1      20.490 -19.968   0.592 -0.67 -0.00    +0.000 N 
DOCKED: ATOM     24  O   UNL     1      19.334 -19.731   1.256 -0.76 -0.00    +0.000 OA
DOCKED: ATOM     25  H   UNL     1      21.023 -20.767   0.809 -0.60 -0.00    +0.000 HD
DOCKED: ENDBRANCH  20  22
DOCKED: ENDBRANCH  19  20
DOCKED: ENDBRANCH  18  19
DOCKED: ENDBRANCH  17  18
DOCKED: ENDBRANCH  16  17
DOCKED: ENDBRANCH   1  16
DOCKED: TORSDOF 6
DOCKED: TER
DOCKED: ENDMDL
________________________________________________________________________________


	BEGINNING GENETIC ALGORITHM DOCKING 24 of 100
Run: 24 Seed: 1739555132 1816573758 [ Run 24 of 100 GA/GALS ]
Beginning LAMARCKIAN GENETIC ALGORITHM (LGA), with a maximum of 2500000 energy evaluations.

Final-Value: -14.322


	FINAL GENETIC ALGORITHM DOCKED STATE
	_______________________________________________


Detailed state:  trans 26.877 -17.020 -1.180 quatxyzw 0.122937 -0.788876 -0.263580 -0.541375 center -0.011 0.081 -0.051 ntor 6 -37.6286 -137.1360 -156.9087 20.0633 172.3810 -2.2012
State:	 26.877 -17.020  -1.180   0.146 -0.938 -0.313 -114.445    -37.63 -137.14 -156.91   20.06  172.38   -2.20

DOCKED: MODEL       24
DOCKED: USER    Run = 24
DOCKED: USER    DPF = ligand_dock.biased.dpf
DOCKED: USER  
DOCKED: USER    Estimated Free Energy of Binding    =  -11.64 kcal/mol  [=(1)+(2)+(3)-(4)]
DOCKED: USER    Estimated Inhibition Constant, Ki   =    2.96 nM (nanomolar)  [Temperature = 298.15 K]
DOCKED: USER    
DOCKED: USER    (1) Final Intermolecular Energy     =  -13.43 kcal/mol
DOCKED: USER        vdW + Hbond + desolv Energy     =  -13.43 kcal/mol
DOCKED: USER        Electrostatic Energy            =   +0.00 kcal/mol
DOCKED: USER    (2) Final Total Internal Energy     =   -0.90 kcal/mol
DOCKED: USER    (3) Torsional Free Energy           =   +1.79 kcal/mol
DOCKED: USER    (4) Unbound System's Energy  [=(2)] =   -0.90 kcal/mol
DOCKED: USER    
DOCKED: USER    
DOCKED: USER    NEWDPF move ligand.pdbqt
DOCKED: USER    NEWDPF about -0.011000 0.081000 -0.051000
DOCKED: USER    NEWDPF tran0 26.876586 -17.019538 -1.180437
DOCKED: USER    NEWDPF quaternion0 0.122937 -0.788876 -0.263580 -0.541375
DOCKED: USER    NEWDPF axisangle0 0.146218 -0.938265 -0.313494 -114.445376
DOCKED: USER    NEWDPF quat0 0.146218 -0.938265 -0.313494 -114.445376
DOCKED: USER    NEWDPF dihe0 -37.63 -137.14 -156.91 20.06 172.38 -2.20 
DOCKED: USER  keepresnum = 1 
DOCKED: USER  
DOCKED: REMARK  Name = 
DOCKED: REMARK  6 active torsions:
DOCKED: REMARK  status: ('A' for Active; 'I' for Inactive)
DOCKED: REMARK    1  A    between atoms: C_2  and  C_5
DOCKED: REMARK    2  A    between atoms: C_5  and  C_6
DOCKED: REMARK    3  A    between atoms: C_6  and  C_7
DOCKED: REMARK    4  A    between atoms: C_7  and  C_8
DOCKED: REMARK    5  A    between atoms: C_8  and  C_9
DOCKED: REMARK    6  A    between atoms: C_9  and  N_10
DOCKED: REMARK                            x       y       z     vdW  Elec       q    Type
DOCKED: REMARK                         _______ _______ _______ _____ _____    ______ ____
DOCKED: USER                              x       y       z     vdW  Elec       q    Type
DOCKED: USER                           _______ _______ _______ _____ _____    ______ ____
DOCKED: ROOT
DOCKED: ATOM      1  N   UNL     1      27.242 -16.179  -1.254 -0.34 -0.00    +0.000 N 
DOCKED: ATOM      2  C   UNL     1      28.361 -16.792  -1.921 -0.31 -0.00    +0.000 C 
DOCKED: ATOM      3  C   UNL     1      28.803 -16.286  -3.240 -0.22 -0.00    +0.000 A 
DOCKED: ATOM      4  C   UNL     1      29.913 -16.857  -3.889 -0.22 -0.00    +0.000 A 
DOCKED: ATOM      5  C   UNL     1      30.332 -16.380  -5.132 -0.23 -0.00    +0.000 A 
DOCKED: ATOM      6  C   UNL     1      29.652 -15.329  -5.748 -0.28 -0.00    +0.000 A 
DOCKED: ATOM      7  C   UNL     1      28.541 -14.745  -5.123 -0.29 -0.00    +0.000 A 
DOCKED: ATOM      8  C   UNL     1      27.857 -13.691  -5.744 -0.25 -0.00    +0.000 A 
DOCKED: ATOM      9  C   UNL     1      26.751 -13.110  -5.123 -0.18 -0.00    +0.000 A 
DOCKED: ATOM     10  C   UNL     1      26.317 -13.573  -3.881 -0.35 -0.00    +0.000 A 
DOCKED: ATOM     11  C   UNL     1      26.988 -14.628  -3.236 -0.30 -0.00    +0.000 A 
DOCKED: ATOM     12  C   UNL     1      28.109 -15.221  -3.858 -0.27 -0.00    +0.000 A 
DOCKED: ATOM     13  O   UNL     1      28.962 -17.764  -1.385 -0.32 -0.00    +0.000 OA
DOCKED: ATOM     14  C   UNL     1      26.527 -15.118  -1.917 -0.38 -0.00    +0.000 C 
DOCKED: ATOM     15  O   UNL     1      25.507 -14.608  -1.378 -0.37 -0.00    +0.000 OA
DOCKED: ENDROOT
DOCKED: BRANCH   1  16
DOCKED: ATOM     16  C   UNL     1      26.771 -16.698   0.039 -0.40 -0.00    +0.000 C 
DOCKED: BRANCH  16  17
DOCKED: ATOM     17  C   UNL     1      25.709 -17.779  -0.181 -0.63 -0.00    +0.000 C 
DOCKED: BRANCH  17  18
DOCKED: ATOM     18  C   UNL     1      25.312 -17.870  -1.658 -0.44 -0.00    +0.000 C 
DOCKED: BRANCH  18  19
DOCKED: ATOM     19  C   UNL     1      23.946 -18.553  -1.820 -0.53 -0.00    +0.000 C 
DOCKED: BRANCH  19  20
DOCKED: ATOM     20  C   UNL     1      23.061 -18.389  -0.577 -0.83 -0.00    +0.000 C 
DOCKED: BRANCH  20  22
DOCKED: ATOM     21  O   UNL     1      20.852 -17.488  -0.706 -2.08 +0.00    +0.000 OA
DOCKED: ATOM     22  C   UNL     1      21.601 -18.478  -0.915 -0.81 -0.00    +0.000 C 
DOCKED: ATOM     23  N   UNL     1      21.066 -19.665  -1.505 -0.73 -0.00    +0.000 N 
DOCKED: ATOM     24  O   UNL     1      19.754 -19.739  -1.826 -2.31 -0.00    +0.000 OA
DOCKED: ATOM     25  H   UNL     1      21.656 -20.435  -1.678 -0.37 -0.00    +0.000 HD
DOCKED: ENDBRANCH  20  22
DOCKED: ENDBRANCH  19  20
DOCKED: ENDBRANCH  18  19
DOCKED: ENDBRANCH  17  18
DOCKED: ENDBRANCH  16  17
DOCKED: ENDBRANCH   1  16
DOCKED: TORSDOF 6
DOCKED: TER
DOCKED: ENDMDL
________________________________________________________________________________


	BEGINNING GENETIC ALGORITHM DOCKING 25 of 100
Run: 25 Seed: 1000070717 221164226 [ Run 25 of 100 GA/GALS ]
Beginning LAMARCKIAN GENETIC ALGORITHM (LGA), with a maximum of 2500000 energy evaluations.

Final-Value: -13.169


	FINAL GENETIC ALGORITHM DOCKED STATE
	_______________________________________________


Detailed state:  trans 25.945 -16.320 -3.576 quatxyzw 0.298536 -0.862674 -0.303192 -0.273395 center -0.011 0.081 -0.051 ntor 6 -111.5533 179.7293 -105.0858 87.4014 21.3837 129.7296
State:	 25.945 -16.320  -3.576   0.310 -0.897 -0.315 -148.267   -111.55  179.73 -105.09   87.40   21.38  129.73

DOCKED: MODEL       25
DOCKED: USER    Run = 25
DOCKED: USER    DPF = ligand_dock.biased.dpf
DOCKED: USER  
DOCKED: USER    Estimated Free Energy of Binding    =  -10.84 kcal/mol  [=(1)+(2)+(3)-(4)]
DOCKED: USER    Estimated Inhibition Constant, Ki   =   11.28 nM (nanomolar)  [Temperature = 298.15 K]
DOCKED: USER    
DOCKED: USER    (1) Final Intermolecular Energy     =  -12.63 kcal/mol
DOCKED: USER        vdW + Hbond + desolv Energy     =  -12.63 kcal/mol
DOCKED: USER        Electrostatic Energy            =   +0.00 kcal/mol
DOCKED: USER    (2) Final Total Internal Energy     =   -0.54 kcal/mol
DOCKED: USER    (3) Torsional Free Energy           =   +1.79 kcal/mol
DOCKED: USER    (4) Unbound System's Energy  [=(2)] =   -0.54 kcal/mol
DOCKED: USER    
DOCKED: USER    
DOCKED: USER    NEWDPF move ligand.pdbqt
DOCKED: USER    NEWDPF about -0.011000 0.081000 -0.051000
DOCKED: USER    NEWDPF tran0 25.944981 -16.319709 -3.576198
DOCKED: USER    NEWDPF quaternion0 0.298536 -0.862674 -0.303192 -0.273395
DOCKED: USER    NEWDPF axisangle0 0.310360 -0.896842 -0.315201 -148.267270
DOCKED: USER    NEWDPF quat0 0.310360 -0.896842 -0.315201 -148.267270
DOCKED: USER    NEWDPF dihe0 -111.55 179.73 -105.09 87.40 21.38 129.73 
DOCKED: USER  keepresnum = 1 
DOCKED: USER  
DOCKED: REMARK  Name = 
DOCKED: REMARK  6 active torsions:
DOCKED: REMARK  status: ('A' for Active; 'I' for Inactive)
DOCKED: REMARK    1  A    between atoms: C_2  and  C_5
DOCKED: REMARK    2  A    between atoms: C_5  and  C_6
DOCKED: REMARK    3  A    between atoms: C_6  and  C_7
DOCKED: REMARK    4  A    between atoms: C_7  and  C_8
DOCKED: REMARK    5  A    between atoms: C_8  and  C_9
DOCKED: REMARK    6  A    between atoms: C_9  and  N_10
DOCKED: REMARK                            x       y       z     vdW  Elec       q    Type
DOCKED: REMARK                         _______ _______ _______ _____ _____    ______ ____
DOCKED: USER                              x       y       z     vdW  Elec       q    Type
DOCKED: USER                           _______ _______ _______ _____ _____    ______ ____
DOCKED: ROOT
DOCKED: ATOM      1  N   UNL     1      26.158 -15.497  -3.224 -0.46 -0.00    +0.000 N 
DOCKED: ATOM      2  C   UNL     1      27.538 -15.907  -3.269 -0.29 -0.00    +0.000 C 
DOCKED: ATOM      3  C   UNL     1      28.543 -15.049  -3.938 -0.22 -0.00    +0.000 A 
DOCKED: ATOM      4  C   UNL     1      29.899 -15.423  -3.963 -0.14 -0.00    +0.000 A 
DOCKED: ATOM      5  C   UNL     1      30.846 -14.615  -4.593 -0.06 -0.00    +0.000 A 
DOCKED: ATOM      6  C   UNL     1      30.459 -13.424  -5.207 -0.06 -0.00    +0.000 A 
DOCKED: ATOM      7  C   UNL     1      29.113 -13.031  -5.198 -0.12 -0.00    +0.000 A 
DOCKED: ATOM      8  C   UNL     1      28.725 -11.835  -5.820 -0.10 -0.00    +0.000 A 
DOCKED: ATOM      9  C   UNL     1      27.386 -11.444  -5.812 -0.15 -0.00    +0.000 A 
DOCKED: ATOM     10  C   UNL     1      26.423 -12.238  -5.188 -0.21 -0.00    +0.000 A 
DOCKED: ATOM     11  C   UNL     1      26.788 -13.441  -4.556 -0.30 -0.00    +0.000 A 
DOCKED: ATOM     12  C   UNL     1      28.142 -13.844  -4.559 -0.21 -0.00    +0.000 A 
DOCKED: ATOM     13  O   UNL     1      27.892 -16.998  -2.742 -0.19 -0.00    +0.000 OA
DOCKED: ATOM     14  C   UNL     1      25.767 -14.283  -3.894 -0.52 -0.00    +0.000 C 
DOCKED: ATOM     15  O   UNL     1      24.553 -13.938  -3.920 -1.05 -0.00    +0.000 OA
DOCKED: ENDROOT
DOCKED: BRANCH   1  16
DOCKED: ATOM     16  C   UNL     1      25.146 -16.359  -2.595 -0.52 -0.00    +0.000 C 
DOCKED: BRANCH  16  17
DOCKED: ATOM     17  C   UNL     1      25.692 -16.952  -1.294 -0.59 -0.00    +0.000 C 
DOCKED: BRANCH  17  18
DOCKED: ATOM     18  C   UNL     1      24.923 -18.217  -0.897 -0.71 -0.00    +0.000 C 
DOCKED: BRANCH  18  19
DOCKED: ATOM     19  C   UNL     1      23.756 -17.880   0.043 -0.64 -0.00    +0.000 C 
DOCKED: BRANCH  19  20
DOCKED: ATOM     20  C   UNL     1      22.549 -17.302  -0.708 -0.74 -0.00    +0.000 C 
DOCKED: BRANCH  20  22
DOCKED: ATOM     21  O   UNL     1      20.252 -17.847  -1.080 -2.16 -0.00    +0.000 OA
DOCKED: ATOM     22  C   UNL     1      21.385 -18.250  -0.705 -0.82 -0.00    +0.000 C 
DOCKED: ATOM     23  N   UNL     1      21.562 -19.613  -0.314 -0.69 -0.00    +0.000 N 
DOCKED: ATOM     24  O   UNL     1      20.517 -20.472  -0.328 -1.24 -0.00    +0.000 OA
DOCKED: ATOM     25  H   UNL     1      22.451 -19.930  -0.033 -0.45 -0.00    +0.000 HD
DOCKED: ENDBRANCH  20  22
DOCKED: ENDBRANCH  19  20
DOCKED: ENDBRANCH  18  19
DOCKED: ENDBRANCH  17  18
DOCKED: ENDBRANCH  16  17
DOCKED: ENDBRANCH   1  16
DOCKED: TORSDOF 6
DOCKED: TER
DOCKED: ENDMDL
________________________________________________________________________________


	BEGINNING GENETIC ALGORITHM DOCKING 26 of 100
Run: 26 Seed: 787961932 1320617266 [ Run 26 of 100 GA/GALS ]
Beginning LAMARCKIAN GENETIC ALGORITHM (LGA), with a maximum of 2500000 energy evaluations.

Final-Value: -13.231


	FINAL GENETIC ALGORITHM DOCKED STATE
	_______________________________________________


Detailed state:  trans 26.869 -16.341 -1.594 quatxyzw 0.404036 -0.024750 0.902914 0.144527 center -0.011 0.081 -0.051 ntor 6 -10.7514 170.6127 -82.7310 -170.3017 -64.7404 25.9986
State:	 26.869 -16.341  -1.594   0.408 -0.025  0.912 163.380    -10.75  170.61  -82.73 -170.30  -64.74   26.00

DOCKED: MODEL       26
DOCKED: USER    Run = 26
DOCKED: USER    DPF = ligand_dock.biased.dpf
DOCKED: USER  
DOCKED: USER    Estimated Free Energy of Binding    =  -10.60 kcal/mol  [=(1)+(2)+(3)-(4)]
DOCKED: USER    Estimated Inhibition Constant, Ki   =   16.94 nM (nanomolar)  [Temperature = 298.15 K]
DOCKED: USER    
DOCKED: USER    (1) Final Intermolecular Energy     =  -12.39 kcal/mol
DOCKED: USER        vdW + Hbond + desolv Energy     =  -12.39 kcal/mol
DOCKED: USER        Electrostatic Energy            =   +0.00 kcal/mol
DOCKED: USER    (2) Final Total Internal Energy     =   -0.84 kcal/mol
DOCKED: USER    (3) Torsional Free Energy           =   +1.79 kcal/mol
DOCKED: USER    (4) Unbound System's Energy  [=(2)] =   -0.84 kcal/mol
DOCKED: USER    
DOCKED: USER    
DOCKED: USER    NEWDPF move ligand.pdbqt
DOCKED: USER    NEWDPF about -0.011000 0.081000 -0.051000
DOCKED: USER    NEWDPF tran0 26.868882 -16.340733 -1.594382
DOCKED: USER    NEWDPF quaternion0 0.404036 -0.024750 0.902914 0.144527
DOCKED: USER    NEWDPF axisangle0 0.408323 -0.025012 0.912495 163.380241
DOCKED: USER    NEWDPF quat0 0.408323 -0.025012 0.912495 163.380241
DOCKED: USER    NEWDPF dihe0 -10.75 170.61 -82.73 -170.30 -64.74 26.00 
DOCKED: USER  keepresnum = 1 
DOCKED: USER  
DOCKED: REMARK  Name = 
DOCKED: REMARK  6 active torsions:
DOCKED: REMARK  status: ('A' for Active; 'I' for Inactive)
DOCKED: REMARK    1  A    between atoms: C_2  and  C_5
DOCKED: REMARK    2  A    between atoms: C_5  and  C_6
DOCKED: REMARK    3  A    between atoms: C_6  and  C_7
DOCKED: REMARK    4  A    between atoms: C_7  and  C_8
DOCKED: REMARK    5  A    between atoms: C_8  and  C_9
DOCKED: REMARK    6  A    between atoms: C_9  and  N_10
DOCKED: REMARK                            x       y       z     vdW  Elec       q    Type
DOCKED: REMARK                         _______ _______ _______ _____ _____    ______ ____
DOCKED: USER                              x       y       z     vdW  Elec       q    Type
DOCKED: USER                           _______ _______ _______ _____ _____    ______ ____
DOCKED: ROOT
DOCKED: ATOM      1  N   UNL     1      27.358 -16.840  -2.193 -0.32 -0.00    +0.000 N 
DOCKED: ATOM      2  C   UNL     1      26.839 -15.986  -3.230 -0.33 -0.00    +0.000 C 
DOCKED: ATOM      3  C   UNL     1      27.768 -15.319  -4.172 -0.33 -0.00    +0.000 A 
DOCKED: ATOM      4  C   UNL     1      27.272 -14.507  -5.208 -0.37 -0.00    +0.000 A 
DOCKED: ATOM      5  C   UNL     1      28.146 -13.878  -6.096 -0.28 -0.00    +0.000 A 
DOCKED: ATOM      6  C   UNL     1      29.524 -14.047  -5.966 -0.21 -0.00    +0.000 A 
DOCKED: ATOM      7  C   UNL     1      30.043 -14.850  -4.940 -0.14 -0.00    +0.000 A 
DOCKED: ATOM      8  C   UNL     1      31.429 -15.016  -4.807 -0.06 -0.00    +0.000 A 
DOCKED: ATOM      9  C   UNL     1      31.945 -15.813  -3.785 -0.04 -0.00    +0.000 A 
DOCKED: ATOM     10  C   UNL     1      31.088 -16.450  -2.888 -0.09 -0.00    +0.000 A 
DOCKED: ATOM     11  C   UNL     1      29.694 -16.300  -3.001 -0.18 -0.00    +0.000 A 
DOCKED: ATOM     12  C   UNL     1      29.163 -15.495  -4.032 -0.21 -0.00    +0.000 A 
DOCKED: ATOM     13  O   UNL     1      25.595 -15.803  -3.337 -0.60 -0.00    +0.000 OA
DOCKED: ATOM     14  C   UNL     1      28.785 -16.976  -2.047 -0.26 -0.00    +0.000 C 
DOCKED: ATOM     15  O   UNL     1      29.262 -17.670  -1.107 -0.34 -0.00    +0.000 OA
DOCKED: ENDROOT
DOCKED: BRANCH   1  16
DOCKED: ATOM     16  C   UNL     1      26.448 -17.477  -1.230 -0.52 -0.00    +0.000 C 
DOCKED: BRANCH  16  17
DOCKED: ATOM     17  C   UNL     1      25.697 -16.411  -0.426 -0.36 -0.00    +0.000 C 
DOCKED: BRANCH  17  18
DOCKED: ATOM     18  C   UNL     1      24.193 -16.459  -0.716 -0.38 -0.00    +0.000 C 
DOCKED: BRANCH  18  19
DOCKED: ATOM     19  C   UNL     1      23.828 -17.708  -1.531 -0.69 -0.00    +0.000 C 
DOCKED: BRANCH  19  20
DOCKED: ATOM     20  C   UNL     1      23.238 -18.823  -0.658 -0.81 -0.00    +0.000 C 
DOCKED: BRANCH  20  22
DOCKED: ATOM     21  O   UNL     1      21.019 -18.237   0.008 -1.53 -0.00    +0.000 OA
DOCKED: ATOM     22  C   UNL     1      21.744 -18.897  -0.783 -0.85 -0.00    +0.000 C 
DOCKED: ATOM     23  N   UNL     1      21.142 -19.682  -1.814 -0.61 -0.00    +0.000 N 
DOCKED: ATOM     24  O   UNL     1      19.795 -19.736  -1.938 -2.31 -0.00    +0.000 OA
DOCKED: ATOM     25  H   UNL     1      21.710 -20.189  -2.439 -0.60 -0.00    +0.000 HD
DOCKED: ENDBRANCH  20  22
DOCKED: ENDBRANCH  19  20
DOCKED: ENDBRANCH  18  19
DOCKED: ENDBRANCH  17  18
DOCKED: ENDBRANCH  16  17
DOCKED: ENDBRANCH   1  16
DOCKED: TORSDOF 6
DOCKED: TER
DOCKED: ENDMDL
________________________________________________________________________________


	BEGINNING GENETIC ALGORITHM DOCKING 27 of 100
Run: 27 Seed: 1173718621 637405549 [ Run 27 of 100 GA/GALS ]
Beginning LAMARCKIAN GENETIC ALGORITHM (LGA), with a maximum of 2500000 energy evaluations.

Final-Value: -13.868


	FINAL GENETIC ALGORITHM DOCKED STATE
	_______________________________________________


Detailed state:  trans 25.262 -15.242 -3.330 quatxyzw -0.108356 0.372427 0.855063 0.344128 center -0.011 0.081 -0.051 ntor 6 -9.1564 -66.4993 -8.1044 -176.3091 -38.7599 -160.5540
State:	 25.262 -15.242  -3.330  -0.115  0.397  0.911 139.743     -9.16  -66.50   -8.10 -176.31  -38.76 -160.55

DOCKED: MODEL       27
DOCKED: USER    Run = 27
DOCKED: USER    DPF = ligand_dock.biased.dpf
DOCKED: USER  
DOCKED: USER    Estimated Free Energy of Binding    =  -11.28 kcal/mol  [=(1)+(2)+(3)-(4)]
DOCKED: USER    Estimated Inhibition Constant, Ki   =    5.35 nM (nanomolar)  [Temperature = 298.15 K]
DOCKED: USER    
DOCKED: USER    (1) Final Intermolecular Energy     =  -13.07 kcal/mol
DOCKED: USER        vdW + Hbond + desolv Energy     =  -13.07 kcal/mol
DOCKED: USER        Electrostatic Energy            =   +0.00 kcal/mol
DOCKED: USER    (2) Final Total Internal Energy     =   -0.79 kcal/mol
DOCKED: USER    (3) Torsional Free Energy           =   +1.79 kcal/mol
DOCKED: USER    (4) Unbound System's Energy  [=(2)] =   -0.79 kcal/mol
DOCKED: USER    
DOCKED: USER    
DOCKED: USER    NEWDPF move ligand.pdbqt
DOCKED: USER    NEWDPF about -0.011000 0.081000 -0.051000
DOCKED: USER    NEWDPF tran0 25.261931 -15.242275 -3.329917
DOCKED: USER    NEWDPF quaternion0 -0.108356 0.372427 0.855063 0.344128
DOCKED: USER    NEWDPF axisangle0 -0.115405 0.396654 0.910685 139.742814
DOCKED: USER    NEWDPF quat0 -0.115405 0.396654 0.910685 139.742814
DOCKED: USER    NEWDPF dihe0 -9.16 -66.50 -8.10 -176.31 -38.76 -160.55 
DOCKED: USER  keepresnum = 1 
DOCKED: USER  
DOCKED: REMARK  Name = 
DOCKED: REMARK  6 active torsions:
DOCKED: REMARK  status: ('A' for Active; 'I' for Inactive)
DOCKED: REMARK    1  A    between atoms: C_2  and  C_5
DOCKED: REMARK    2  A    between atoms: C_5  and  C_6
DOCKED: REMARK    3  A    between atoms: C_6  and  C_7
DOCKED: REMARK    4  A    between atoms: C_7  and  C_8
DOCKED: REMARK    5  A    between atoms: C_8  and  C_9
DOCKED: REMARK    6  A    between atoms: C_9  and  N_10
DOCKED: REMARK                            x       y       z     vdW  Elec       q    Type
DOCKED: REMARK                         _______ _______ _______ _____ _____    ______ ____
DOCKED: USER                              x       y       z     vdW  Elec       q    Type
DOCKED: USER                           _______ _______ _______ _____ _____    ______ ____
DOCKED: ROOT
DOCKED: ATOM      1  N   UNL     1      26.092 -15.220  -2.935 -0.43 -0.00    +0.000 N 
DOCKED: ATOM      2  C   UNL     1      26.639 -14.974  -4.244 -0.51 -0.00    +0.000 C 
DOCKED: ATOM      3  C   UNL     1      27.537 -13.817  -4.465 -0.25 -0.00    +0.000 A 
DOCKED: ATOM      4  C   UNL     1      28.101 -13.583  -5.732 -0.26 -0.00    +0.000 A 
DOCKED: ATOM      5  C   UNL     1      28.947 -12.494  -5.942 -0.13 -0.00    +0.000 A 
DOCKED: ATOM      6  C   UNL     1      29.245 -11.622  -4.894 -0.05 -0.00    +0.000 A 
DOCKED: ATOM      7  C   UNL     1      28.694 -11.833  -3.623 -0.06 -0.00    +0.000 A 
DOCKED: ATOM      8  C   UNL     1      28.991 -10.954  -2.571 -0.03 -0.00    +0.000 A 
DOCKED: ATOM      9  C   UNL     1      28.441 -11.162  -1.306 -0.06 -0.00    +0.000 A 
DOCKED: ATOM     10  C   UNL     1      27.592 -12.245  -1.077 -0.11 -0.00    +0.000 A 
DOCKED: ATOM     11  C   UNL     1      27.280 -13.142  -2.115 -0.15 -0.00    +0.000 A 
DOCKED: ATOM     12  C   UNL     1      27.832 -12.938  -3.399 -0.13 -0.00    +0.000 A 
DOCKED: ATOM     13  O   UNL     1      26.350 -15.740  -5.205 -1.14 +0.00    +0.000 OA
DOCKED: ATOM     14  C   UNL     1      26.379 -14.291  -1.871 -0.31 -0.00    +0.000 C 
DOCKED: ATOM     15  O   UNL     1      25.861 -14.454  -0.732 -0.39 -0.00    +0.000 OA
DOCKED: ENDROOT
DOCKED: BRANCH   1  16
DOCKED: ATOM     16  C   UNL     1      25.170 -16.343  -2.713 -0.47 -0.00    +0.000 C 
DOCKED: BRANCH  16  17
DOCKED: ATOM     17  C   UNL     1      25.833 -17.407  -1.834 -0.45 -0.00    +0.000 C 
DOCKED: BRANCH  17  18
DOCKED: ATOM     18  C   UNL     1      24.832 -18.006  -0.841 -0.72 -0.00    +0.000 C 
DOCKED: BRANCH  18  19
DOCKED: ATOM     19  C   UNL     1      23.422 -17.442  -1.072 -0.73 -0.00    +0.000 C 
DOCKED: BRANCH  19  20
DOCKED: ATOM     20  C   UNL     1      22.372 -18.110  -0.175 -0.80 -0.00    +0.000 C 
DOCKED: BRANCH  20  22
DOCKED: ATOM     21  O   UNL     1      20.194 -17.628  -1.033 -1.92 -0.00    +0.000 OA
DOCKED: ATOM     22  C   UNL     1      21.130 -18.466  -0.939 -0.77 -0.00    +0.000 C 
DOCKED: ATOM     23  N   UNL     1      21.019 -19.734  -1.590 -0.72 -0.00    +0.000 N 
DOCKED: ATOM     24  O   UNL     1      19.907 -20.048  -2.294 -2.14 -0.00    +0.000 OA
DOCKED: ATOM     25  H   UNL     1      21.756 -20.383  -1.526 -0.33 -0.00    +0.000 HD
DOCKED: ENDBRANCH  20  22
DOCKED: ENDBRANCH  19  20
DOCKED: ENDBRANCH  18  19
DOCKED: ENDBRANCH  17  18
DOCKED: ENDBRANCH  16  17
DOCKED: ENDBRANCH   1  16
DOCKED: TORSDOF 6
DOCKED: TER
DOCKED: ENDMDL
________________________________________________________________________________


	BEGINNING GENETIC ALGORITHM DOCKING 28 of 100
Run: 28 Seed: 895284679 1299168905 [ Run 28 of 100 GA/GALS ]
Beginning LAMARCKIAN GENETIC ALGORITHM (LGA), with a maximum of 2500000 energy evaluations.

Final-Value: -12.869


	FINAL GENETIC ALGORITHM DOCKED STATE
	_______________________________________________


Detailed state:  trans 25.370 -15.947 -2.175 quatxyzw -0.088295 0.151603 -0.949609 -0.259739 center -0.011 0.081 -0.051 ntor 6 -179.3670 -104.2632 -73.9445 50.0208 63.9172 -0.2636
State:	 25.370 -15.947  -2.175  -0.091  0.157 -0.983 -149.891   -179.37 -104.26  -73.94   50.02   63.92   -0.26

DOCKED: MODEL       28
DOCKED: USER    Run = 28
DOCKED: USER    DPF = ligand_dock.biased.dpf
DOCKED: USER  
DOCKED: USER    Estimated Free Energy of Binding    =  -10.40 kcal/mol  [=(1)+(2)+(3)-(4)]
DOCKED: USER    Estimated Inhibition Constant, Ki   =   23.78 nM (nanomolar)  [Temperature = 298.15 K]
DOCKED: USER    
DOCKED: USER    (1) Final Intermolecular Energy     =  -12.19 kcal/mol
DOCKED: USER        vdW + Hbond + desolv Energy     =  -12.19 kcal/mol
DOCKED: USER        Electrostatic Energy            =   +0.00 kcal/mol
DOCKED: USER    (2) Final Total Internal Energy     =   -0.68 kcal/mol
DOCKED: USER    (3) Torsional Free Energy           =   +1.79 kcal/mol
DOCKED: USER    (4) Unbound System's Energy  [=(2)] =   -0.68 kcal/mol
DOCKED: USER    
DOCKED: USER    
DOCKED: USER    NEWDPF move ligand.pdbqt
DOCKED: USER    NEWDPF about -0.011000 0.081000 -0.051000
DOCKED: USER    NEWDPF tran0 25.370277 -15.947207 -2.174933
DOCKED: USER    NEWDPF quaternion0 -0.088295 0.151603 -0.949609 -0.259739
DOCKED: USER    NEWDPF axisangle0 -0.091433 0.156992 -0.983358 -149.890897
DOCKED: USER    NEWDPF quat0 -0.091433 0.156992 -0.983358 -149.890897
DOCKED: USER    NEWDPF dihe0 -179.37 -104.26 -73.94 50.02 63.92 -0.26 
DOCKED: USER  keepresnum = 1 
DOCKED: USER  
DOCKED: REMARK  Name = 
DOCKED: REMARK  6 active torsions:
DOCKED: REMARK  status: ('A' for Active; 'I' for Inactive)
DOCKED: REMARK    1  A    between atoms: C_2  and  C_5
DOCKED: REMARK    2  A    between atoms: C_5  and  C_6
DOCKED: REMARK    3  A    between atoms: C_6  and  C_7
DOCKED: REMARK    4  A    between atoms: C_7  and  C_8
DOCKED: REMARK    5  A    between atoms: C_8  and  C_9
DOCKED: REMARK    6  A    between atoms: C_9  and  N_10
DOCKED: REMARK                            x       y       z     vdW  Elec       q    Type
DOCKED: REMARK                         _______ _______ _______ _____ _____    ______ ____
DOCKED: USER                              x       y       z     vdW  Elec       q    Type
DOCKED: USER                           _______ _______ _______ _____ _____    ______ ____
DOCKED: ROOT
DOCKED: ATOM      1  N   UNL     1      26.184 -16.183  -2.533 -0.45 -0.00    +0.000 N 
DOCKED: ATOM      2  C   UNL     1      26.135 -14.958  -3.288 -0.49 -0.00    +0.000 C 
DOCKED: ATOM      3  C   UNL     1      27.272 -14.010  -3.237 -0.23 -0.00    +0.000 A 
DOCKED: ATOM      4  C   UNL     1      27.248 -12.825  -3.994 -0.20 -0.00    +0.000 A 
DOCKED: ATOM      5  C   UNL     1      28.319 -11.932  -3.947 -0.09 -0.00    +0.000 A 
DOCKED: ATOM      6  C   UNL     1      29.428 -12.204  -3.146 -0.03 -0.00    +0.000 A 
DOCKED: ATOM      7  C   UNL     1      29.474 -13.377  -2.380 -0.04 -0.00    +0.000 A 
DOCKED: ATOM      8  C   UNL     1      30.588 -13.648  -1.572 -0.02 -0.00    +0.000 A 
DOCKED: ATOM      9  C   UNL     1      30.633 -14.815  -0.809 -0.06 -0.00    +0.000 A 
DOCKED: ATOM     10  C   UNL     1      29.572 -15.721  -0.843 -0.15 -0.00    +0.000 A 
DOCKED: ATOM     11  C   UNL     1      28.445 -15.472  -1.646 -0.19 -0.00    +0.000 A 
DOCKED: ATOM     12  C   UNL     1      28.391 -14.293  -2.422 -0.12 -0.00    +0.000 A 
DOCKED: ATOM     13  O   UNL     1      25.122 -14.689  -3.992 -0.95 -0.00    +0.000 OA
DOCKED: ATOM     14  C   UNL     1      27.319 -16.433  -1.682 -0.39 -0.00    +0.000 C 
DOCKED: ATOM     15  O   UNL     1      27.355 -17.471  -0.963 -0.51 -0.00    +0.000 OA
DOCKED: ENDROOT
DOCKED: BRANCH   1  16
DOCKED: ATOM     16  C   UNL     1      25.045 -17.112  -2.547 -0.43 -0.00    +0.000 C 
DOCKED: BRANCH  16  17
DOCKED: ATOM     17  C   UNL     1      24.043 -16.737  -1.453 -0.58 -0.00    +0.000 C 
DOCKED: BRANCH  17  18
DOCKED: ATOM     18  C   UNL     1      23.927 -17.848  -0.404 -0.75 -0.00    +0.000 C 
DOCKED: BRANCH  18  19
DOCKED: ATOM     19  C   UNL     1      22.458 -18.216  -0.151 -0.81 -0.00    +0.000 C 
DOCKED: BRANCH  19  20
DOCKED: ATOM     20  C   UNL     1      22.098 -19.599  -0.712 -0.54 -0.00    +0.000 C 
DOCKED: BRANCH  20  22
DOCKED: ATOM     21  O   UNL     1      19.896 -19.731  -1.630 -2.33 -0.00    +0.000 OA
DOCKED: ATOM     22  C   UNL     1      20.626 -19.874  -0.613 -0.77 -0.00    +0.000 C 
DOCKED: ATOM     23  N   UNL     1      20.055 -20.330   0.615 -0.70 -0.00    +0.000 N 
DOCKED: ATOM     24  O   UNL     1      18.731 -20.595   0.699 -0.83 -0.00    +0.000 OA
DOCKED: ATOM     25  H   UNL     1      20.629 -20.452   1.406 -0.52 -0.00    +0.000 HD
DOCKED: ENDBRANCH  20  22
DOCKED: ENDBRANCH  19  20
DOCKED: ENDBRANCH  18  19
DOCKED: ENDBRANCH  17  18
DOCKED: ENDBRANCH  16  17
DOCKED: ENDBRANCH   1  16
DOCKED: TORSDOF 6
DOCKED: TER
DOCKED: ENDMDL
________________________________________________________________________________


	BEGINNING GENETIC ALGORITHM DOCKING 29 of 100
Run: 29 Seed: 781581727 1339401730 [ Run 29 of 100 GA/GALS ]
Beginning LAMARCKIAN GENETIC ALGORITHM (LGA), with a maximum of 2500000 energy evaluations.

Final-Value: -13.329


	FINAL GENETIC ALGORITHM DOCKED STATE
	_______________________________________________


Detailed state:  trans 25.448 -15.651 -2.824 quatxyzw -0.093076 0.336867 0.802947 0.482840 center -0.011 0.081 -0.051 ntor 6 74.4429 -112.2419 -56.8617 125.8946 -11.1662 -125.6504
State:	 25.448 -15.651  -2.824  -0.106  0.385  0.917 122.258     74.44 -112.24  -56.86  125.89  -11.17 -125.65

DOCKED: MODEL       29
DOCKED: USER    Run = 29
DOCKED: USER    DPF = ligand_dock.biased.dpf
DOCKED: USER  
DOCKED: USER    Estimated Free Energy of Binding    =  -11.08 kcal/mol  [=(1)+(2)+(3)-(4)]
DOCKED: USER    Estimated Inhibition Constant, Ki   =    7.53 nM (nanomolar)  [Temperature = 298.15 K]
DOCKED: USER    
DOCKED: USER    (1) Final Intermolecular Energy     =  -12.87 kcal/mol
DOCKED: USER        vdW + Hbond + desolv Energy     =  -12.87 kcal/mol
DOCKED: USER        Electrostatic Energy            =   +0.00 kcal/mol
DOCKED: USER    (2) Final Total Internal Energy     =   -0.46 kcal/mol
DOCKED: USER    (3) Torsional Free Energy           =   +1.79 kcal/mol
DOCKED: USER    (4) Unbound System's Energy  [=(2)] =   -0.46 kcal/mol
DOCKED: USER    
DOCKED: USER    
DOCKED: USER    NEWDPF move ligand.pdbqt
DOCKED: USER    NEWDPF about -0.011000 0.081000 -0.051000
DOCKED: USER    NEWDPF tran0 25.448162 -15.650940 -2.823700
DOCKED: USER    NEWDPF quaternion0 -0.093076 0.336867 0.802947 0.482840
DOCKED: USER    NEWDPF axisangle0 -0.106287 0.384679 0.916911 122.257956
DOCKED: USER    NEWDPF quat0 -0.106287 0.384679 0.916911 122.257956
DOCKED: USER    NEWDPF dihe0 74.44 -112.24 -56.86 125.89 -11.17 -125.65 
DOCKED: USER  keepresnum = 1 
DOCKED: USER  
DOCKED: REMARK  Name = 
DOCKED: REMARK  6 active torsions:
DOCKED: REMARK  status: ('A' for Active; 'I' for Inactive)
DOCKED: REMARK    1  A    between atoms: C_2  and  C_5
DOCKED: REMARK    2  A    between atoms: C_5  and  C_6
DOCKED: REMARK    3  A    between atoms: C_6  and  C_7
DOCKED: REMARK    4  A    between atoms: C_7  and  C_8
DOCKED: REMARK    5  A    between atoms: C_8  and  C_9
DOCKED: REMARK    6  A    between atoms: C_9  and  N_10
DOCKED: REMARK                            x       y       z     vdW  Elec       q    Type
DOCKED: REMARK                         _______ _______ _______ _____ _____    ______ ____
DOCKED: USER                              x       y       z     vdW  Elec       q    Type
DOCKED: USER                           _______ _______ _______ _____ _____    ______ ____
DOCKED: ROOT
DOCKED: ATOM      1  N   UNL     1      26.289 -15.395  -2.552 -0.39 -0.00    +0.000 N 
DOCKED: ATOM      2  C   UNL     1      26.562 -15.062  -3.926 -0.50 -0.00    +0.000 C 
DOCKED: ATOM      3  C   UNL     1      27.079 -13.718  -4.273 -0.29 -0.00    +0.000 A 
DOCKED: ATOM      4  C   UNL     1      27.378 -13.390  -5.607 -0.19 -0.00    +0.000 A 
DOCKED: ATOM      5  C   UNL     1      27.865 -12.124  -5.935 -0.16 -0.00    +0.000 A 
DOCKED: ATOM      6  C   UNL     1      28.061 -11.166  -4.940 -0.09 -0.00    +0.000 A 
DOCKED: ATOM      7  C   UNL     1      27.768 -11.467  -3.603 -0.10 -0.00    +0.000 A 
DOCKED: ATOM      8  C   UNL     1      27.961 -10.503  -2.604 -0.07 -0.00    +0.000 A 
DOCKED: ATOM      9  C   UNL     1      27.668 -10.802  -1.274 -0.09 -0.00    +0.000 A 
DOCKED: ATOM     10  C   UNL     1      27.180 -12.061  -0.926 -0.09 -0.00    +0.000 A 
DOCKED: ATOM     11  C   UNL     1      26.979 -13.047  -1.909 -0.13 -0.00    +0.000 A 
DOCKED: ATOM     12  C   UNL     1      27.273 -12.753  -3.259 -0.16 -0.00    +0.000 A 
DOCKED: ATOM     13  O   UNL     1      26.359 -15.912  -4.836 -0.94 +0.00    +0.000 OA
DOCKED: ATOM     14  C   UNL     1      26.461 -14.384  -1.540 -0.31 -0.00    +0.000 C 
DOCKED: ATOM     15  O   UNL     1      26.168 -14.635  -0.338 -0.39 -0.00    +0.000 OA
DOCKED: ENDROOT
DOCKED: BRANCH   1  16
DOCKED: ATOM     16  C   UNL     1      25.740 -16.713  -2.201 -0.55 -0.00    +0.000 C 
DOCKED: BRANCH  16  17
DOCKED: ATOM     17  C   UNL     1      26.271 -17.160  -0.836 -0.57 -0.00    +0.000 C 
DOCKED: BRANCH  17  18
DOCKED: ATOM     18  C   UNL     1      25.510 -18.388  -0.323 -0.66 -0.00    +0.000 C 
DOCKED: BRANCH  18  19
DOCKED: ATOM     19  C   UNL     1      23.996 -18.132  -0.312 -0.76 -0.00    +0.000 C 
DOCKED: BRANCH  19  20
DOCKED: ATOM     20  C   UNL     1      23.217 -19.210  -1.077 -0.77 -0.00    +0.000 C 
DOCKED: BRANCH  20  22
DOCKED: ATOM     21  O   UNL     1      21.281 -18.017  -0.342 -1.73 -0.00    +0.000 OA
DOCKED: ATOM     22  C   UNL     1      21.737 -18.958  -1.043 -0.84 -0.00    +0.000 C 
DOCKED: ATOM     23  N   UNL     1      20.849 -19.757  -1.828 -0.70 -0.00    +0.000 N 
DOCKED: ATOM     24  O   UNL     1      19.517 -19.519  -1.811 -1.87 -0.00    +0.000 OA
DOCKED: ATOM     25  H   UNL     1      21.208 -20.485  -2.385 -0.51 -0.00    +0.000 HD
DOCKED: ENDBRANCH  20  22
DOCKED: ENDBRANCH  19  20
DOCKED: ENDBRANCH  18  19
DOCKED: ENDBRANCH  17  18
DOCKED: ENDBRANCH  16  17
DOCKED: ENDBRANCH   1  16
DOCKED: TORSDOF 6
DOCKED: TER
DOCKED: ENDMDL
________________________________________________________________________________


	BEGINNING GENETIC ALGORITHM DOCKING 30 of 100
Run: 30 Seed: 754732883 846597489 [ Run 30 of 100 GA/GALS ]
Beginning LAMARCKIAN GENETIC ALGORITHM (LGA), with a maximum of 2500000 energy evaluations.

Final-Value: -13.042


	FINAL GENETIC ALGORITHM DOCKED STATE
	_______________________________________________


Detailed state:  trans 27.743 -16.209 -2.330 quatxyzw -0.690448 0.684729 0.099401 0.211062 center -0.011 0.081 -0.051 ntor 6 126.4367 -123.9488 -80.1352 48.7931 -28.3304 -178.0560
State:	 27.743 -16.209  -2.330  -0.706  0.701  0.102 155.631    126.44 -123.95  -80.14   48.79  -28.33 -178.06

DOCKED: MODEL       30
DOCKED: USER    Run = 30
DOCKED: USER    DPF = ligand_dock.biased.dpf
DOCKED: USER  
DOCKED: USER    Estimated Free Energy of Binding    =  -10.49 kcal/mol  [=(1)+(2)+(3)-(4)]
DOCKED: USER    Estimated Inhibition Constant, Ki   =   20.40 nM (nanomolar)  [Temperature = 298.15 K]
DOCKED: USER    
DOCKED: USER    (1) Final Intermolecular Energy     =  -12.28 kcal/mol
DOCKED: USER        vdW + Hbond + desolv Energy     =  -12.28 kcal/mol
DOCKED: USER        Electrostatic Energy            =   +0.00 kcal/mol
DOCKED: USER    (2) Final Total Internal Energy     =   -0.76 kcal/mol
DOCKED: USER    (3) Torsional Free Energy           =   +1.79 kcal/mol
DOCKED: USER    (4) Unbound System's Energy  [=(2)] =   -0.76 kcal/mol
DOCKED: USER    
DOCKED: USER    
DOCKED: USER    NEWDPF move ligand.pdbqt
DOCKED: USER    NEWDPF about -0.011000 0.081000 -0.051000
DOCKED: USER    NEWDPF tran0 27.742788 -16.209061 -2.330123
DOCKED: USER    NEWDPF quaternion0 -0.690448 0.684729 0.099401 0.211062
DOCKED: USER    NEWDPF axisangle0 -0.706360 0.700510 0.101692 155.630790
DOCKED: USER    NEWDPF quat0 -0.706360 0.700510 0.101692 155.630790
DOCKED: USER    NEWDPF dihe0 126.44 -123.95 -80.14 48.79 -28.33 -178.06 
DOCKED: USER  keepresnum = 1 
DOCKED: USER  
DOCKED: REMARK  Name = 
DOCKED: REMARK  6 active torsions:
DOCKED: REMARK  status: ('A' for Active; 'I' for Inactive)
DOCKED: REMARK    1  A    between atoms: C_2  and  C_5
DOCKED: REMARK    2  A    between atoms: C_5  and  C_6
DOCKED: REMARK    3  A    between atoms: C_6  and  C_7
DOCKED: REMARK    4  A    between atoms: C_7  and  C_8
DOCKED: REMARK    5  A    between atoms: C_8  and  C_9
DOCKED: REMARK    6  A    between atoms: C_9  and  N_10
DOCKED: REMARK                            x       y       z     vdW  Elec       q    Type
DOCKED: REMARK                         _______ _______ _______ _____ _____    ______ ____
DOCKED: USER                              x       y       z     vdW  Elec       q    Type
DOCKED: USER                           _______ _______ _______ _____ _____    ______ ____
DOCKED: ROOT
DOCKED: ATOM      1  N   UNL     1      27.125 -15.585  -2.056 -0.29 -0.00    +0.000 N 
DOCKED: ATOM      2  C   UNL     1      28.230 -14.794  -1.580 -0.19 -0.00    +0.000 C 
DOCKED: ATOM      3  C   UNL     1      28.364 -13.380  -2.002 -0.09 -0.00    +0.000 A 
DOCKED: ATOM      4  C   UNL     1      29.422 -12.588  -1.520 -0.03 -0.00    +0.000 A 
DOCKED: ATOM      5  C   UNL     1      29.549 -11.257  -1.916 -0.02 -0.00    +0.000 A 
DOCKED: ATOM      6  C   UNL     1      28.625 -10.693  -2.797 -0.04 -0.00    +0.000 A 
DOCKED: ATOM      7  C   UNL     1      27.563 -11.462  -3.293 -0.10 -0.00    +0.000 A 
DOCKED: ATOM      8  C   UNL     1      26.637 -10.897  -4.181 -0.17 -0.00    +0.000 A 
DOCKED: ATOM      9  C   UNL     1      25.582 -11.662  -4.675 -0.31 -0.00    +0.000 A 
DOCKED: ATOM     10  C   UNL     1      25.438 -12.996  -4.291 -0.29 -0.00    +0.000 A 
DOCKED: ATOM     11  C   UNL     1      26.352 -13.586  -3.400 -0.30 -0.00    +0.000 A 
DOCKED: ATOM     12  C   UNL     1      27.425 -12.818  -2.895 -0.15 -0.00    +0.000 A 
DOCKED: ATOM     13  O   UNL     1      29.088 -15.304  -0.807 -0.17 -0.00    +0.000 OA
DOCKED: ATOM     14  C   UNL     1      26.200 -15.001  -2.993 -0.46 -0.00    +0.000 C 
DOCKED: ATOM     15  O   UNL     1      25.260 -15.695  -3.470 -0.63 -0.00    +0.000 OA
DOCKED: ENDROOT
DOCKED: BRANCH   1  16
DOCKED: ATOM     16  C   UNL     1      27.004 -17.000  -1.674 -0.41 -0.00    +0.000 C 
DOCKED: BRANCH  16  17
DOCKED: ATOM     17  C   UNL     1      26.103 -17.140  -0.444 -0.57 -0.00    +0.000 C 
DOCKED: BRANCH  17  18
DOCKED: ATOM     18  C   UNL     1      25.397 -18.500  -0.429 -0.63 -0.00    +0.000 C 
DOCKED: BRANCH  18  19
DOCKED: ATOM     19  C   UNL     1      23.891 -18.337  -0.176 -0.73 -0.00    +0.000 C 
DOCKED: BRANCH  19  20
DOCKED: ATOM     20  C   UNL     1      23.064 -18.494  -1.458 -0.75 -0.00    +0.000 C 
DOCKED: BRANCH  20  22
DOCKED: ATOM     21  O   UNL     1      21.051 -17.851  -0.341 -1.89 +0.00    +0.000 OA
DOCKED: ATOM     22  C   UNL     1      21.598 -18.633  -1.163 -0.71 -0.00    +0.000 C 
DOCKED: ATOM     23  N   UNL     1      20.815 -19.622  -1.834 -0.73 -0.00    +0.000 N 
DOCKED: ATOM     24  O   UNL     1      19.491 -19.736  -1.580 -2.08 -0.00    +0.000 OA
DOCKED: ATOM     25  H   UNL     1      21.242 -20.226  -2.485 -0.54 -0.00    +0.000 HD
DOCKED: ENDBRANCH  20  22
DOCKED: ENDBRANCH  19  20
DOCKED: ENDBRANCH  18  19
DOCKED: ENDBRANCH  17  18
DOCKED: ENDBRANCH  16  17
DOCKED: ENDBRANCH   1  16
DOCKED: TORSDOF 6
DOCKED: TER
DOCKED: ENDMDL
________________________________________________________________________________


	BEGINNING GENETIC ALGORITHM DOCKING 31 of 100
Run: 31 Seed: 452860347 1012314561 [ Run 31 of 100 GA/GALS ]
Beginning LAMARCKIAN GENETIC ALGORITHM (LGA), with a maximum of 2500000 energy evaluations.

Final-Value: -14.302


	FINAL GENETIC ALGORITHM DOCKED STATE
	_______________________________________________


Detailed state:  trans 26.960 -17.109 -1.865 quatxyzw -0.107432 0.911075 0.089000 0.387918 center -0.011 0.081 -0.051 ntor 6 -89.2399 176.5551 -56.6105 39.6142 75.0495 15.2684
State:	 26.960 -17.109  -1.865  -0.117  0.988  0.097 134.350    -89.24  176.56  -56.61   39.61   75.05   15.27

DOCKED: MODEL       31
DOCKED: USER    Run = 31
DOCKED: USER    DPF = ligand_dock.biased.dpf
DOCKED: USER  
DOCKED: USER    Estimated Free Energy of Binding    =  -11.79 kcal/mol  [=(1)+(2)+(3)-(4)]
DOCKED: USER    Estimated Inhibition Constant, Ki   =    2.27 nM (nanomolar)  [Temperature = 298.15 K]
DOCKED: USER    
DOCKED: USER    (1) Final Intermolecular Energy     =  -13.58 kcal/mol
DOCKED: USER        vdW + Hbond + desolv Energy     =  -13.58 kcal/mol
DOCKED: USER        Electrostatic Energy            =   +0.00 kcal/mol
DOCKED: USER    (2) Final Total Internal Energy     =   -0.72 kcal/mol
DOCKED: USER    (3) Torsional Free Energy           =   +1.79 kcal/mol
DOCKED: USER    (4) Unbound System's Energy  [=(2)] =   -0.72 kcal/mol
DOCKED: USER    
DOCKED: USER    
DOCKED: USER    NEWDPF move ligand.pdbqt
DOCKED: USER    NEWDPF about -0.011000 0.081000 -0.051000
DOCKED: USER    NEWDPF tran0 26.959779 -17.109457 -1.864878
DOCKED: USER    NEWDPF quaternion0 -0.107432 0.911075 0.089000 0.387918
DOCKED: USER    NEWDPF axisangle0 -0.116559 0.988479 0.096562 134.350035
DOCKED: USER    NEWDPF quat0 -0.116559 0.988479 0.096562 134.350035
DOCKED: USER    NEWDPF dihe0 -89.24 176.56 -56.61 39.61 75.05 15.27 
DOCKED: USER  keepresnum = 1 
DOCKED: USER  
DOCKED: REMARK  Name = 
DOCKED: REMARK  6 active torsions:
DOCKED: REMARK  status: ('A' for Active; 'I' for Inactive)
DOCKED: REMARK    1  A    between atoms: C_2  and  C_5
DOCKED: REMARK    2  A    between atoms: C_5  and  C_6
DOCKED: REMARK    3  A    between atoms: C_6  and  C_7
DOCKED: REMARK    4  A    between atoms: C_7  and  C_8
DOCKED: REMARK    5  A    between atoms: C_8  and  C_9
DOCKED: REMARK    6  A    between atoms: C_9  and  N_10
DOCKED: REMARK                            x       y       z     vdW  Elec       q    Type
DOCKED: REMARK                         _______ _______ _______ _____ _____    ______ ____
DOCKED: USER                              x       y       z     vdW  Elec       q    Type
DOCKED: USER                           _______ _______ _______ _____ _____    ______ ____
DOCKED: ROOT
DOCKED: ATOM      1  N   UNL     1      27.335 -16.291  -2.055 -0.33 -0.00    +0.000 N 
DOCKED: ATOM      2  C   UNL     1      28.620 -16.940  -2.005 -0.27 -0.00    +0.000 C 
DOCKED: ATOM      3  C   UNL     1      29.564 -16.800  -3.137 -0.21 -0.00    +0.000 A 
DOCKED: ATOM      4  C   UNL     1      30.833 -17.404  -3.087 -0.15 -0.00    +0.000 A 
DOCKED: ATOM      5  C   UNL     1      31.724 -17.272  -4.153 -0.10 -0.00    +0.000 A 
DOCKED: ATOM      6  C   UNL     1      31.365 -16.539  -5.284 -0.13 -0.00    +0.000 A 
DOCKED: ATOM      7  C   UNL     1      30.105 -15.929  -5.359 -0.24 -0.00    +0.000 A 
DOCKED: ATOM      8  C   UNL     1      29.743 -15.195  -6.497 -0.31 -0.00    +0.000 A 
DOCKED: ATOM      9  C   UNL     1      28.488 -14.590  -6.572 -0.30 -0.00    +0.000 A 
DOCKED: ATOM     10  C   UNL     1      27.584 -14.710  -5.517 -0.36 -0.00    +0.000 A 
DOCKED: ATOM     11  C   UNL     1      27.924 -15.440  -4.364 -0.32 -0.00    +0.000 A 
DOCKED: ATOM     12  C   UNL     1      29.192 -16.056  -4.279 -0.25 -0.00    +0.000 A 
DOCKED: ATOM     13  O   UNL     1      28.941 -17.631  -0.999 -0.36 -0.00    +0.000 OA
DOCKED: ATOM     14  C   UNL     1      26.963 -15.567  -3.244 -0.41 -0.00    +0.000 C 
DOCKED: ATOM     15  O   UNL     1      25.819 -15.043  -3.334 -0.54 -0.00    +0.000 OA
DOCKED: ENDROOT
DOCKED: BRANCH   1  16
DOCKED: ATOM     16  C   UNL     1      26.375 -16.455  -0.953 -0.50 -0.00    +0.000 C 
DOCKED: BRANCH  16  17
DOCKED: ATOM     17  C   UNL     1      25.785 -17.868  -0.971 -0.62 -0.00    +0.000 C 
DOCKED: BRANCH  17  18
DOCKED: ATOM     18  C   UNL     1      24.348 -17.859  -1.503 -0.72 -0.00    +0.000 C 
DOCKED: BRANCH  18  19
DOCKED: ATOM     19  C   UNL     1      23.460 -18.826  -0.706 -0.81 -0.00    +0.000 C 
DOCKED: BRANCH  19  20
DOCKED: ATOM     20  C   UNL     1      22.198 -18.144  -0.162 -0.81 -0.00    +0.000 C 
DOCKED: BRANCH  20  22
DOCKED: ATOM     21  O   UNL     1      19.877 -17.978  -0.708 -1.86 +0.00    +0.000 OA
DOCKED: ATOM     22  C   UNL     1      20.965 -18.586  -0.895 -0.81 -0.00    +0.000 C 
DOCKED: ATOM     23  N   UNL     1      21.026 -19.667  -1.828 -0.67 -0.00    +0.000 N 
DOCKED: ATOM     24  O   UNL     1      19.918 -20.054  -2.502 -2.00 -0.00    +0.000 OA
DOCKED: ATOM     25  H   UNL     1      21.879 -20.134  -1.982 -0.52 -0.00    +0.000 HD
DOCKED: ENDBRANCH  20  22
DOCKED: ENDBRANCH  19  20
DOCKED: ENDBRANCH  18  19
DOCKED: ENDBRANCH  17  18
DOCKED: ENDBRANCH  16  17
DOCKED: ENDBRANCH   1  16
DOCKED: TORSDOF 6
DOCKED: TER
DOCKED: ENDMDL
________________________________________________________________________________


	BEGINNING GENETIC ALGORITHM DOCKING 32 of 100
Run: 32 Seed: 337980334 31986758 [ Run 32 of 100 GA/GALS ]
Beginning LAMARCKIAN GENETIC ALGORITHM (LGA), with a maximum of 2500000 energy evaluations.

Final-Value: -13.697


	FINAL GENETIC ALGORITHM DOCKED STATE
	_______________________________________________


Detailed state:  trans 25.866 -15.410 -2.491 quatxyzw 0.179080 0.236143 0.937301 0.183394 center -0.011 0.081 -0.051 ntor 6 -5.0135 -52.9939 -7.4644 -168.9028 -8.4476 -156.5896
State:	 25.866 -15.410  -2.491   0.182  0.240  0.953 158.865     -5.01  -52.99   -7.46 -168.90   -8.45 -156.59

DOCKED: MODEL       32
DOCKED: USER    Run = 32
DOCKED: USER    DPF = ligand_dock.biased.dpf
DOCKED: USER  
DOCKED: USER    Estimated Free Energy of Binding    =  -11.17 kcal/mol  [=(1)+(2)+(3)-(4)]
DOCKED: USER    Estimated Inhibition Constant, Ki   =    6.45 nM (nanomolar)  [Temperature = 298.15 K]
DOCKED: USER    
DOCKED: USER    (1) Final Intermolecular Energy     =  -12.96 kcal/mol
DOCKED: USER        vdW + Hbond + desolv Energy     =  -12.96 kcal/mol
DOCKED: USER        Electrostatic Energy            =   +0.00 kcal/mol
DOCKED: USER    (2) Final Total Internal Energy     =   -0.73 kcal/mol
DOCKED: USER    (3) Torsional Free Energy           =   +1.79 kcal/mol
DOCKED: USER    (4) Unbound System's Energy  [=(2)] =   -0.73 kcal/mol
DOCKED: USER    
DOCKED: USER    
DOCKED: USER    NEWDPF move ligand.pdbqt
DOCKED: USER    NEWDPF about -0.011000 0.081000 -0.051000
DOCKED: USER    NEWDPF tran0 25.866222 -15.409563 -2.490846
DOCKED: USER    NEWDPF quaternion0 0.179080 0.236143 0.937301 0.183394
DOCKED: USER    NEWDPF axisangle0 0.182169 0.240217 0.953473 158.864935
DOCKED: USER    NEWDPF quat0 0.182169 0.240217 0.953473 158.864935
DOCKED: USER    NEWDPF dihe0 -5.01 -52.99 -7.46 -168.90 -8.45 -156.59 
DOCKED: USER  keepresnum = 1 
DOCKED: USER  
DOCKED: REMARK  Name = 
DOCKED: REMARK  6 active torsions:
DOCKED: REMARK  status: ('A' for Active; 'I' for Inactive)
DOCKED: REMARK    1  A    between atoms: C_2  and  C_5
DOCKED: REMARK    2  A    between atoms: C_5  and  C_6
DOCKED: REMARK    3  A    between atoms: C_6  and  C_7
DOCKED: REMARK    4  A    between atoms: C_7  and  C_8
DOCKED: REMARK    5  A    between atoms: C_8  and  C_9
DOCKED: REMARK    6  A    between atoms: C_9  and  N_10
DOCKED: REMARK                            x       y       z     vdW  Elec       q    Type
DOCKED: REMARK                         _______ _______ _______ _____ _____    ______ ____
DOCKED: USER                              x       y       z     vdW  Elec       q    Type
DOCKED: USER                           _______ _______ _______ _____ _____    ______ ____
DOCKED: ROOT
DOCKED: ATOM      1  N   UNL     1      26.665 -15.862  -2.548 -0.37 -0.00    +0.000 N 
DOCKED: ATOM      2  C   UNL     1      26.655 -15.572  -3.959 -0.46 -0.00    +0.000 C 
DOCKED: ATOM      3  C   UNL     1      27.830 -14.929  -4.590 -0.34 -0.00    +0.000 A 
DOCKED: ATOM      4  C   UNL     1      27.845 -14.668  -5.972 -0.30 -0.00    +0.000 A 
DOCKED: ATOM      5  C   UNL     1      28.951 -14.062  -6.568 -0.30 -0.00    +0.000 A 
DOCKED: ATOM      6  C   UNL     1      30.059 -13.707  -5.799 -0.12 -0.00    +0.000 A 
DOCKED: ATOM      7  C   UNL     1      30.068 -13.954  -4.419 -0.07 -0.00    +0.000 A 
DOCKED: ATOM      8  C   UNL     1      31.180 -13.594  -3.645 -0.02 -0.00    +0.000 A 
DOCKED: ATOM      9  C   UNL     1      31.189 -13.838  -2.272 -0.01 -0.00    +0.000 A 
DOCKED: ATOM     10  C   UNL     1      30.092 -14.442  -1.658 -0.05 -0.00    +0.000 A 
DOCKED: ATOM     11  C   UNL     1      28.965 -14.815  -2.412 -0.12 -0.00    +0.000 A 
DOCKED: ATOM     12  C   UNL     1      28.948 -14.571  -3.803 -0.14 -0.00    +0.000 A 
DOCKED: ATOM     13  O   UNL     1      25.645 -15.862  -4.657 -0.82 -0.00    +0.000 OA
DOCKED: ATOM     14  C   UNL     1      27.801 -15.457  -1.759 -0.27 -0.00    +0.000 C 
DOCKED: ATOM     15  O   UNL     1      27.804 -15.645  -0.511 -0.30 -0.00    +0.000 OA
DOCKED: ENDROOT
DOCKED: BRANCH   1  16
DOCKED: ATOM     16  C   UNL     1      25.489 -16.466  -1.904 -0.58 -0.00    +0.000 C 
DOCKED: BRANCH  16  17
DOCKED: ATOM     17  C   UNL     1      25.837 -17.857  -1.367 -0.47 -0.00    +0.000 C 
DOCKED: BRANCH  17  18
DOCKED: ATOM     18  C   UNL     1      24.696 -18.419  -0.512 -0.71 -0.00    +0.000 C 
DOCKED: BRANCH  18  19
DOCKED: ATOM     19  C   UNL     1      23.426 -17.569  -0.659 -0.76 -0.00    +0.000 C 
DOCKED: BRANCH  19  20
DOCKED: ATOM     20  C   UNL     1      22.234 -18.164   0.102 -0.74 -0.00    +0.000 C 
DOCKED: BRANCH  20  22
DOCKED: ATOM     21  O   UNL     1      20.256 -17.534  -1.082 -2.04 -0.00    +0.000 OA
DOCKED: ATOM     22  C   UNL     1      21.077 -18.450  -0.810 -0.78 -0.00    +0.000 C 
DOCKED: ATOM     23  N   UNL     1      20.921 -19.743  -1.398 -0.76 -0.00    +0.000 N 
DOCKED: ATOM     24  O   UNL     1      19.888 -19.997  -2.234 -2.20 -0.00    +0.000 OA
DOCKED: ATOM     25  H   UNL     1      21.570 -20.456  -1.194 -0.22 -0.00    +0.000 HD
DOCKED: ENDBRANCH  20  22
DOCKED: ENDBRANCH  19  20
DOCKED: ENDBRANCH  18  19
DOCKED: ENDBRANCH  17  18
DOCKED: ENDBRANCH  16  17
DOCKED: ENDBRANCH   1  16
DOCKED: TORSDOF 6
DOCKED: TER
DOCKED: ENDMDL
________________________________________________________________________________


	BEGINNING GENETIC ALGORITHM DOCKING 33 of 100
Run: 33 Seed: 2039571584 643683604 [ Run 33 of 100 GA/GALS ]
Beginning LAMARCKIAN GENETIC ALGORITHM (LGA), with a maximum of 2500000 energy evaluations.

Final-Value: -13.904


	FINAL GENETIC ALGORITHM DOCKED STATE
	_______________________________________________


Detailed state:  trans 25.882 -15.606 -3.836 quatxyzw 0.258385 -0.855853 -0.299595 -0.333160 center -0.011 0.081 -0.051 ntor 6 15.8028 -133.7115 10.2633 158.8125 26.1938 145.1289
State:	 25.882 -15.606  -3.836   0.274 -0.908 -0.318 -141.079     15.80 -133.71   10.26  158.81   26.19  145.13

DOCKED: MODEL       33
DOCKED: USER    Run = 33
DOCKED: USER    DPF = ligand_dock.biased.dpf
DOCKED: USER  
DOCKED: USER    Estimated Free Energy of Binding    =  -11.44 kcal/mol  [=(1)+(2)+(3)-(4)]
DOCKED: USER    Estimated Inhibition Constant, Ki   =    4.09 nM (nanomolar)  [Temperature = 298.15 K]
DOCKED: USER    
DOCKED: USER    (1) Final Intermolecular Energy     =  -13.23 kcal/mol
DOCKED: USER        vdW + Hbond + desolv Energy     =  -13.23 kcal/mol
DOCKED: USER        Electrostatic Energy            =   +0.00 kcal/mol
DOCKED: USER    (2) Final Total Internal Energy     =   -0.67 kcal/mol
DOCKED: USER    (3) Torsional Free Energy           =   +1.79 kcal/mol
DOCKED: USER    (4) Unbound System's Energy  [=(2)] =   -0.67 kcal/mol
DOCKED: USER    
DOCKED: USER    
DOCKED: USER    NEWDPF move ligand.pdbqt
DOCKED: USER    NEWDPF about -0.011000 0.081000 -0.051000
DOCKED: USER    NEWDPF tran0 25.881781 -15.606032 -3.836187
DOCKED: USER    NEWDPF quaternion0 0.258385 -0.855853 -0.299595 -0.333160
DOCKED: USER    NEWDPF axisangle0 0.274041 -0.907710 -0.317748 -141.078574
DOCKED: USER    NEWDPF quat0 0.274041 -0.907710 -0.317748 -141.078574
DOCKED: USER    NEWDPF dihe0 15.80 -133.71 10.26 158.81 26.19 145.13 
DOCKED: USER  keepresnum = 1 
DOCKED: USER  
DOCKED: REMARK  Name = 
DOCKED: REMARK  6 active torsions:
DOCKED: REMARK  status: ('A' for Active; 'I' for Inactive)
DOCKED: REMARK    1  A    between atoms: C_2  and  C_5
DOCKED: REMARK    2  A    between atoms: C_5  and  C_6
DOCKED: REMARK    3  A    between atoms: C_6  and  C_7
DOCKED: REMARK    4  A    between atoms: C_7  and  C_8
DOCKED: REMARK    5  A    between atoms: C_8  and  C_9
DOCKED: REMARK    6  A    between atoms: C_9  and  N_10
DOCKED: REMARK                            x       y       z     vdW  Elec       q    Type
DOCKED: REMARK                         _______ _______ _______ _____ _____    ______ ____
DOCKED: USER                              x       y       z     vdW  Elec       q    Type
DOCKED: USER                           _______ _______ _______ _____ _____    ______ ____
DOCKED: ROOT
DOCKED: ATOM      1  N   UNL     1      26.158 -14.771  -3.565 -0.44 -0.00    +0.000 N 
DOCKED: ATOM      2  C   UNL     1      27.510 -15.225  -3.761 -0.37 -0.00    +0.000 C 
DOCKED: ATOM      3  C   UNL     1      28.439 -14.439  -4.605 -0.23 -0.00    +0.000 A 
DOCKED: ATOM      4  C   UNL     1      29.772 -14.855  -4.780 -0.15 -0.00    +0.000 A 
DOCKED: ATOM      5  C   UNL     1      30.648 -14.114  -5.574 -0.09 -0.00    +0.000 A 
DOCKED: ATOM      6  C   UNL     1      30.212 -12.950  -6.205 -0.10 -0.00    +0.000 A 
DOCKED: ATOM      7  C   UNL     1      28.888 -12.515  -6.049 -0.14 -0.00    +0.000 A 
DOCKED: ATOM      8  C   UNL     1      28.450 -11.346  -6.687 -0.11 -0.00    +0.000 A 
DOCKED: ATOM      9  C   UNL     1      27.133 -10.915  -6.533 -0.15 -0.00    +0.000 A 
DOCKED: ATOM     10  C   UNL     1      26.242 -11.641  -5.743 -0.12 -0.00    +0.000 A 
DOCKED: ATOM     11  C   UNL     1      26.657 -12.816  -5.091 -0.20 -0.00    +0.000 A 
DOCKED: ATOM     12  C   UNL     1      27.990 -13.260  -5.242 -0.21 -0.00    +0.000 A 
DOCKED: ATOM     13  O   UNL     1      27.904 -16.294  -3.218 -0.32 -0.00    +0.000 OA
DOCKED: ATOM     14  C   UNL     1      25.711 -13.587  -4.253 -0.42 -0.00    +0.000 C 
DOCKED: ATOM     15  O   UNL     1      24.512 -13.206  -4.144 -0.73 -0.00    +0.000 OA
DOCKED: ENDROOT
DOCKED: BRANCH   1  16
DOCKED: ATOM     16  C   UNL     1      25.216 -15.564  -2.761 -0.50 -0.00    +0.000 C 
DOCKED: BRANCH  16  17
DOCKED: ATOM     17  C   UNL     1      25.773 -15.774  -1.350 -0.49 -0.00    +0.000 C 
DOCKED: BRANCH  17  18
DOCKED: ATOM     18  C   UNL     1      25.210 -17.052  -0.718 -0.62 -0.00    +0.000 C 
DOCKED: BRANCH  18  19
DOCKED: ATOM     19  C   UNL     1      23.904 -17.477  -1.406 -0.71 -0.00    +0.000 C 
DOCKED: BRANCH  19  20
DOCKED: ATOM     20  C   UNL     1      23.143 -18.543  -0.607 -0.83 -0.00    +0.000 C 
DOCKED: BRANCH  20  22
DOCKED: ATOM     21  O   UNL     1      20.964 -17.567  -0.706 -2.10 -0.00    +0.000 OA
DOCKED: ATOM     22  C   UNL     1      21.684 -18.569  -0.959 -0.82 -0.00    +0.000 C 
DOCKED: ATOM     23  N   UNL     1      21.117 -19.707  -1.611 -0.67 -0.00    +0.000 N 
DOCKED: ATOM     24  O   UNL     1      19.806 -19.724  -1.944 -2.30 -0.00    +0.000 OA
DOCKED: ATOM     25  H   UNL     1      21.684 -20.486  -1.818 -0.41 -0.00    +0.000 HD
DOCKED: ENDBRANCH  20  22
DOCKED: ENDBRANCH  19  20
DOCKED: ENDBRANCH  18  19
DOCKED: ENDBRANCH  17  18
DOCKED: ENDBRANCH  16  17
DOCKED: ENDBRANCH   1  16
DOCKED: TORSDOF 6
DOCKED: TER
DOCKED: ENDMDL
________________________________________________________________________________


	BEGINNING GENETIC ALGORITHM DOCKING 34 of 100
Run: 34 Seed: 1862621552 1470642404 [ Run 34 of 100 GA/GALS ]
Beginning LAMARCKIAN GENETIC ALGORITHM (LGA), with a maximum of 2500000 energy evaluations.

Final-Value: -13.722


	FINAL GENETIC ALGORITHM DOCKED STATE
	_______________________________________________


Detailed state:  trans 26.365 -16.205 -1.794 quatxyzw 0.015187 0.896757 0.182417 0.402890 center -0.011 0.081 -0.051 ntor 6 154.1526 -76.3400 -120.7042 -24.4693 -93.8350 -1.2115
State:	 26.365 -16.205  -1.794   0.017  0.980  0.199 132.482    154.15  -76.34 -120.70  -24.47  -93.84   -1.21

DOCKED: MODEL       34
DOCKED: USER    Run = 34
DOCKED: USER    DPF = ligand_dock.biased.dpf
DOCKED: USER  
DOCKED: USER    Estimated Free Energy of Binding    =  -11.12 kcal/mol  [=(1)+(2)+(3)-(4)]
DOCKED: USER    Estimated Inhibition Constant, Ki   =    7.09 nM (nanomolar)  [Temperature = 298.15 K]
DOCKED: USER    
DOCKED: USER    (1) Final Intermolecular Energy     =  -12.91 kcal/mol
DOCKED: USER        vdW + Hbond + desolv Energy     =  -12.91 kcal/mol
DOCKED: USER        Electrostatic Energy            =   +0.00 kcal/mol
DOCKED: USER    (2) Final Total Internal Energy     =   -0.81 kcal/mol
DOCKED: USER    (3) Torsional Free Energy           =   +1.79 kcal/mol
DOCKED: USER    (4) Unbound System's Energy  [=(2)] =   -0.81 kcal/mol
DOCKED: USER    
DOCKED: USER    
DOCKED: USER    NEWDPF move ligand.pdbqt
DOCKED: USER    NEWDPF about -0.011000 0.081000 -0.051000
DOCKED: USER    NEWDPF tran0 26.365091 -16.205281 -1.793819
DOCKED: USER    NEWDPF quaternion0 0.015187 0.896757 0.182417 0.402890
DOCKED: USER    NEWDPF axisangle0 0.016594 0.979796 0.199309 132.482007
DOCKED: USER    NEWDPF quat0 0.016594 0.979796 0.199309 132.482007
DOCKED: USER    NEWDPF dihe0 154.15 -76.34 -120.70 -24.47 -93.84 -1.21 
DOCKED: USER  keepresnum = 1 
DOCKED: USER  
DOCKED: REMARK  Name = 
DOCKED: REMARK  6 active torsions:
DOCKED: REMARK  status: ('A' for Active; 'I' for Inactive)
DOCKED: REMARK    1  A    between atoms: C_2  and  C_5
DOCKED: REMARK    2  A    between atoms: C_5  and  C_6
DOCKED: REMARK    3  A    between atoms: C_6  and  C_7
DOCKED: REMARK    4  A    between atoms: C_7  and  C_8
DOCKED: REMARK    5  A    between atoms: C_8  and  C_9
DOCKED: REMARK    6  A    between atoms: C_9  and  N_10
DOCKED: REMARK                            x       y       z     vdW  Elec       q    Type
DOCKED: REMARK                         _______ _______ _______ _____ _____    ______ ____
DOCKED: USER                              x       y       z     vdW  Elec       q    Type
DOCKED: USER                           _______ _______ _______ _____ _____    ______ ____
DOCKED: ROOT
DOCKED: ATOM      1  N   UNL     1      26.947 -15.514  -1.966 -0.30 -0.00    +0.000 N 
DOCKED: ATOM      2  C   UNL     1      27.989 -16.503  -2.072 -0.33 -0.00    +0.000 C 
DOCKED: ATOM      3  C   UNL     1      28.854 -16.540  -3.274 -0.19 -0.00    +0.000 A 
DOCKED: ATOM      4  C   UNL     1      29.894 -17.481  -3.376 -0.13 -0.00    +0.000 A 
DOCKED: ATOM      5  C   UNL     1      30.709 -17.517  -4.508 -0.21 -0.00    +0.000 A 
DOCKED: ATOM      6  C   UNL     1      30.501 -16.618  -5.554 -0.25 -0.00    +0.000 A 
DOCKED: ATOM      7  C   UNL     1      29.470 -15.673  -5.477 -0.29 -0.00    +0.000 A 
DOCKED: ATOM      8  C   UNL     1      29.259 -14.772  -6.531 -0.32 -0.00    +0.000 A 
DOCKED: ATOM      9  C   UNL     1      28.232 -13.831  -6.455 -0.23 -0.00    +0.000 A 
DOCKED: ATOM     10  C   UNL     1      27.406 -13.780  -5.332 -0.27 -0.00    +0.000 A 
DOCKED: ATOM     11  C   UNL     1      27.598 -14.671  -4.261 -0.31 -0.00    +0.000 A 
DOCKED: ATOM     12  C   UNL     1      28.636 -15.627  -4.329 -0.28 -0.00    +0.000 A 
DOCKED: ATOM     13  O   UNL     1      28.164 -17.340  -1.144 -0.42 -0.00    +0.000 OA
DOCKED: ATOM     14  C   UNL     1      26.721 -14.616  -3.069 -0.37 -0.00    +0.000 C 
DOCKED: ATOM     15  O   UNL     1      25.773 -13.783  -3.023 -0.37 -0.00    +0.000 OA
DOCKED: ENDROOT
DOCKED: BRANCH   1  16
DOCKED: ATOM     16  C   UNL     1      26.059 -15.492  -0.794 -0.42 -0.00    +0.000 C 
DOCKED: BRANCH  16  17
DOCKED: ATOM     17  C   UNL     1      24.846 -16.394  -1.033 -0.56 -0.00    +0.000 C 
DOCKED: BRANCH  17  18
DOCKED: ATOM     18  C   UNL     1      25.153 -17.846  -0.648 -0.70 -0.00    +0.000 C 
DOCKED: BRANCH  18  19
DOCKED: ATOM     19  C   UNL     1      23.864 -18.609  -0.309 -0.74 -0.00    +0.000 C 
DOCKED: BRANCH  19  20
DOCKED: ATOM     20  C   UNL     1      22.909 -18.703  -1.506 -0.71 -0.00    +0.000 C 
DOCKED: BRANCH  20  22
DOCKED: ATOM     21  O   UNL     1      20.982 -17.534  -0.709 -2.09 -0.00    +0.000 OA
DOCKED: ATOM     22  C   UNL     1      21.471 -18.635  -1.078 -0.80 -0.00    +0.000 C 
DOCKED: ATOM     23  N   UNL     1      20.647 -19.801  -1.121 -0.79 -0.00    +0.000 N 
DOCKED: ATOM     24  O   UNL     1      19.347 -19.736  -0.752 -1.61 -0.00    +0.000 OA
DOCKED: ATOM     25  H   UNL     1      21.027 -20.659  -1.420 -0.21 -0.00    +0.000 HD
DOCKED: ENDBRANCH  20  22
DOCKED: ENDBRANCH  19  20
DOCKED: ENDBRANCH  18  19
DOCKED: ENDBRANCH  17  18
DOCKED: ENDBRANCH  16  17
DOCKED: ENDBRANCH   1  16
DOCKED: TORSDOF 6
DOCKED: TER
DOCKED: ENDMDL
________________________________________________________________________________


	BEGINNING GENETIC ALGORITHM DOCKING 35 of 100
Run: 35 Seed: 393498050 799976416 [ Run 35 of 100 GA/GALS ]
Beginning LAMARCKIAN GENETIC ALGORITHM (LGA), with a maximum of 2500000 energy evaluations.

Final-Value: -14.237


	FINAL GENETIC ALGORITHM DOCKED STATE
	_______________________________________________


Detailed state:  trans 26.863 -14.907 -1.355 quatxyzw 0.352281 0.033553 0.906554 -0.230070 center -0.011 0.081 -0.051 ntor 6 -36.8615 -173.9420 -179.5324 -31.0235 179.5811 172.2908
State:	 26.863 -14.907  -1.355   0.362  0.034  0.932 -153.398    -36.86 -173.94 -179.53  -31.02  179.58  172.29

DOCKED: MODEL       35
DOCKED: USER    Run = 35
DOCKED: USER    DPF = ligand_dock.biased.dpf
DOCKED: USER  
DOCKED: USER    Estimated Free Energy of Binding    =  -11.49 kcal/mol  [=(1)+(2)+(3)-(4)]
DOCKED: USER    Estimated Inhibition Constant, Ki   =    3.76 nM (nanomolar)  [Temperature = 298.15 K]
DOCKED: USER    
DOCKED: USER    (1) Final Intermolecular Energy     =  -13.28 kcal/mol
DOCKED: USER        vdW + Hbond + desolv Energy     =  -13.28 kcal/mol
DOCKED: USER        Electrostatic Energy            =   +0.00 kcal/mol
DOCKED: USER    (2) Final Total Internal Energy     =   -0.95 kcal/mol
DOCKED: USER    (3) Torsional Free Energy           =   +1.79 kcal/mol
DOCKED: USER    (4) Unbound System's Energy  [=(2)] =   -0.95 kcal/mol
DOCKED: USER    
DOCKED: USER    
DOCKED: USER    NEWDPF move ligand.pdbqt
DOCKED: USER    NEWDPF about -0.011000 0.081000 -0.051000
DOCKED: USER    NEWDPF tran0 26.863152 -14.907234 -1.355041
DOCKED: USER    NEWDPF quaternion0 0.352281 0.033553 0.906554 -0.230070
DOCKED: USER    NEWDPF axisangle0 0.361992 0.034478 0.931543 -153.397586
DOCKED: USER    NEWDPF quat0 0.361992 0.034478 0.931543 -153.397586
DOCKED: USER    NEWDPF dihe0 -36.86 -173.94 -179.53 -31.02 179.58 172.29 
DOCKED: USER  keepresnum = 1 
DOCKED: USER  
DOCKED: REMARK  Name = 
DOCKED: REMARK  6 active torsions:
DOCKED: REMARK  status: ('A' for Active; 'I' for Inactive)
DOCKED: REMARK    1  A    between atoms: C_2  and  C_5
DOCKED: REMARK    2  A    between atoms: C_5  and  C_6
DOCKED: REMARK    3  A    between atoms: C_6  and  C_7
DOCKED: REMARK    4  A    between atoms: C_7  and  C_8
DOCKED: REMARK    5  A    between atoms: C_8  and  C_9
DOCKED: REMARK    6  A    between atoms: C_9  and  N_10
DOCKED: REMARK                            x       y       z     vdW  Elec       q    Type
DOCKED: REMARK                         _______ _______ _______ _____ _____    ______ ____
DOCKED: USER                              x       y       z     vdW  Elec       q    Type
DOCKED: USER                           _______ _______ _______ _____ _____    ______ ____
DOCKED: ROOT
DOCKED: ATOM      1  N   UNL     1      26.928 -15.781  -1.634 -0.32 -0.00    +0.000 N 
DOCKED: ATOM      2  C   UNL     1      26.994 -15.280  -2.982 -0.37 -0.00    +0.000 C 
DOCKED: ATOM      3  C   UNL     1      28.102 -15.696  -3.873 -0.26 -0.00    +0.000 A 
DOCKED: ATOM      4  C   UNL     1      28.161 -15.237  -5.201 -0.37 -0.00    +0.000 A 
DOCKED: ATOM      5  C   UNL     1      29.204 -15.629  -6.041 -0.33 -0.00    +0.000 A 
DOCKED: ATOM      6  C   UNL     1      30.202 -16.483  -5.572 -0.27 -0.00    +0.000 A 
DOCKED: ATOM      7  C   UNL     1      30.167 -16.952  -4.252 -0.22 -0.00    +0.000 A 
DOCKED: ATOM      8  C   UNL     1      31.173 -17.807  -3.781 -0.16 -0.00    +0.000 A 
DOCKED: ATOM      9  C   UNL     1      31.139 -18.273  -2.466 -0.15 -0.00    +0.000 A 
DOCKED: ATOM     10  C   UNL     1      30.105 -17.893  -1.611 -0.17 -0.00    +0.000 A 
DOCKED: ATOM     11  C   UNL     1      29.083 -17.037  -2.060 -0.22 -0.00    +0.000 A 
DOCKED: ATOM     12  C   UNL     1      29.110 -16.561  -3.390 -0.21 -0.00    +0.000 A 
DOCKED: ATOM     13  O   UNL     1      26.112 -14.483  -3.405 -0.45 -0.00    +0.000 OA
DOCKED: ATOM     14  C   UNL     1      27.985 -16.633  -1.152 -0.37 -0.00    +0.000 C 
DOCKED: ATOM     15  O   UNL     1      27.979 -17.034   0.045 -0.38 -0.00    +0.000 OA
DOCKED: ENDROOT
DOCKED: BRANCH   1  16
DOCKED: ATOM     16  C   UNL     1      25.854 -15.345  -0.729 -0.40 -0.00    +0.000 C 
DOCKED: BRANCH  16  17
DOCKED: ATOM     17  C   UNL     1      24.602 -16.199  -0.944 -0.34 -0.00    +0.000 C 
DOCKED: BRANCH  17  18
DOCKED: ATOM     18  C   UNL     1      24.829 -17.246  -2.041 -0.61 -0.00    +0.000 C 
DOCKED: BRANCH  18  19
DOCKED: ATOM     19  C   UNL     1      23.999 -18.510  -1.776 -0.56 -0.00    +0.000 C 
DOCKED: BRANCH  19  20
DOCKED: ATOM     20  C   UNL     1      23.096 -18.368  -0.543 -0.82 -0.00    +0.000 C 
DOCKED: BRANCH  20  22
DOCKED: ATOM     21  O   UNL     1      20.882 -17.483  -0.708 -2.07 +0.00    +0.000 OA
DOCKED: ATOM     22  C   UNL     1      21.642 -18.469  -0.902 -0.81 -0.00    +0.000 C 
DOCKED: ATOM     23  N   UNL     1      21.124 -19.662  -1.495 -0.71 -0.00    +0.000 N 
DOCKED: ATOM     24  O   UNL     1      19.817 -19.747  -1.834 -2.34 -0.00    +0.000 OA
DOCKED: ATOM     25  H   UNL     1      21.721 -20.428  -1.657 -0.37 -0.00    +0.000 HD
DOCKED: ENDBRANCH  20  22
DOCKED: ENDBRANCH  19  20
DOCKED: ENDBRANCH  18  19
DOCKED: ENDBRANCH  17  18
DOCKED: ENDBRANCH  16  17
DOCKED: ENDBRANCH   1  16
DOCKED: TORSDOF 6
DOCKED: TER
DOCKED: ENDMDL
________________________________________________________________________________


	BEGINNING GENETIC ALGORITHM DOCKING 36 of 100
Run: 36 Seed: 1878574189 121873289 [ Run 36 of 100 GA/GALS ]
Beginning LAMARCKIAN GENETIC ALGORITHM (LGA), with a maximum of 2500000 energy evaluations.

Final-Value: -13.523


	FINAL GENETIC ALGORITHM DOCKED STATE
	_______________________________________________


Detailed state:  trans 27.395 -15.436 -3.379 quatxyzw -0.676885 0.666802 0.175801 0.257481 center -0.011 0.081 -0.051 ntor 6 -21.1016 179.3782 -63.4110 -88.7631 -94.7981 -178.3791
State:	 27.395 -15.436  -3.379  -0.701  0.690  0.182 150.159    -21.10  179.38  -63.41  -88.76  -94.80 -178.38

DOCKED: MODEL       36
DOCKED: USER    Run = 36
DOCKED: USER    DPF = ligand_dock.biased.dpf
DOCKED: USER  
DOCKED: USER    Estimated Free Energy of Binding    =  -10.95 kcal/mol  [=(1)+(2)+(3)-(4)]
DOCKED: USER    Estimated Inhibition Constant, Ki   =    9.41 nM (nanomolar)  [Temperature = 298.15 K]
DOCKED: USER    
DOCKED: USER    (1) Final Intermolecular Energy     =  -12.74 kcal/mol
DOCKED: USER        vdW + Hbond + desolv Energy     =  -12.74 kcal/mol
DOCKED: USER        Electrostatic Energy            =   +0.00 kcal/mol
DOCKED: USER    (2) Final Total Internal Energy     =   -0.78 kcal/mol
DOCKED: USER    (3) Torsional Free Energy           =   +1.79 kcal/mol
DOCKED: USER    (4) Unbound System's Energy  [=(2)] =   -0.78 kcal/mol
DOCKED: USER    
DOCKED: USER    
DOCKED: USER    NEWDPF move ligand.pdbqt
DOCKED: USER    NEWDPF about -0.011000 0.081000 -0.051000
DOCKED: USER    NEWDPF tran0 27.395045 -15.436180 -3.378527
DOCKED: USER    NEWDPF quaternion0 -0.676885 0.666802 0.175801 0.257481
DOCKED: USER    NEWDPF axisangle0 -0.700503 0.690069 0.181936 150.158665
DOCKED: USER    NEWDPF quat0 -0.700503 0.690069 0.181936 150.158665
DOCKED: USER    NEWDPF dihe0 -21.10 179.38 -63.41 -88.76 -94.80 -178.38 
DOCKED: USER  keepresnum = 1 
DOCKED: USER  
DOCKED: REMARK  Name = 
DOCKED: REMARK  6 active torsions:
DOCKED: REMARK  status: ('A' for Active; 'I' for Inactive)
DOCKED: REMARK    1  A    between atoms: C_2  and  C_5
DOCKED: REMARK    2  A    between atoms: C_5  and  C_6
DOCKED: REMARK    3  A    between atoms: C_6  and  C_7
DOCKED: REMARK    4  A    between atoms: C_7  and  C_8
DOCKED: REMARK    5  A    between atoms: C_8  and  C_9
DOCKED: REMARK    6  A    between atoms: C_9  and  N_10
DOCKED: REMARK                            x       y       z     vdW  Elec       q    Type
DOCKED: REMARK                         _______ _______ _______ _____ _____    ______ ____
DOCKED: USER                              x       y       z     vdW  Elec       q    Type
DOCKED: USER                           _______ _______ _______ _____ _____    ______ ____
DOCKED: ROOT
DOCKED: ATOM      1  N   UNL     1      26.849 -14.815  -2.976 -0.30 -0.00    +0.000 N 
DOCKED: ATOM      2  C   UNL     1      28.037 -14.058  -2.677 -0.17 -0.00    +0.000 C 
DOCKED: ATOM      3  C   UNL     1      28.122 -12.631  -3.063 -0.10 -0.00    +0.000 A 
DOCKED: ATOM      4  C   UNL     1      29.265 -11.873  -2.750 -0.03 -0.00    +0.000 A 
DOCKED: ATOM      5  C   UNL     1      29.345 -10.528  -3.113 -0.02 -0.00    +0.000 A 
DOCKED: ATOM      6  C   UNL     1      28.291  -9.919  -3.793 -0.04 -0.00    +0.000 A 
DOCKED: ATOM      7  C   UNL     1      27.143 -10.653  -4.119 -0.12 -0.00    +0.000 A 
DOCKED: ATOM      8  C   UNL     1      26.085 -10.040  -4.805 -0.19 -0.00    +0.000 A 
DOCKED: ATOM      9  C   UNL     1      24.943 -10.771  -5.131 -0.37 -0.00    +0.000 A 
DOCKED: ATOM     10  C   UNL     1      24.843 -12.117  -4.777 -0.20 -0.00    +0.000 A 
DOCKED: ATOM     11  C   UNL     1      25.889 -12.754  -4.086 -0.30 -0.00    +0.000 A 
DOCKED: ATOM     12  C   UNL     1      27.050 -12.021  -3.752 -0.17 -0.00    +0.000 A 
DOCKED: ATOM     13  O   UNL     1      29.008 -14.611  -2.089 -0.12 -0.00    +0.000 OA
DOCKED: ATOM     14  C   UNL     1      25.783 -14.183  -3.710 -0.50 -0.00    +0.000 C 
DOCKED: ATOM     15  O   UNL     1      24.759 -14.845  -4.037 -0.86 -0.00    +0.000 OA
DOCKED: ENDROOT
DOCKED: BRANCH   1  16
DOCKED: ATOM     16  C   UNL     1      26.769 -16.242  -2.630 -0.36 -0.00    +0.000 C 
DOCKED: BRANCH  16  17
DOCKED: ATOM     17  C   UNL     1      26.106 -16.419  -1.262 -0.52 -0.00    +0.000 C 
DOCKED: BRANCH  17  18
DOCKED: ATOM     18  C   UNL     1      24.579 -16.443  -1.387 -0.56 -0.00    +0.000 C 
DOCKED: BRANCH  18  19
DOCKED: ATOM     19  C   UNL     1      24.064 -17.879  -1.560 -0.72 -0.00    +0.000 C 
DOCKED: BRANCH  19  20
DOCKED: ATOM     20  C   UNL     1      23.108 -18.296  -0.434 -0.82 -0.00    +0.000 C 
DOCKED: BRANCH  20  22
DOCKED: ATOM     21  O   UNL     1      20.861 -17.532  -0.710 -2.10 +0.00    +0.000 OA
DOCKED: ATOM     22  C   UNL     1      21.698 -18.448  -0.926 -0.80 -0.00    +0.000 C 
DOCKED: ATOM     23  N   UNL     1      21.311 -19.606  -1.669 -0.60 -0.00    +0.000 N 
DOCKED: ATOM     24  O   UNL     1      20.045 -19.735  -2.127 -2.34 -0.00    +0.000 OA
DOCKED: ATOM     25  H   UNL     1      21.970 -20.316  -1.847 -0.44 -0.00    +0.000 HD
DOCKED: ENDBRANCH  20  22
DOCKED: ENDBRANCH  19  20
DOCKED: ENDBRANCH  18  19
DOCKED: ENDBRANCH  17  18
DOCKED: ENDBRANCH  16  17
DOCKED: ENDBRANCH   1  16
DOCKED: TORSDOF 6
DOCKED: TER
DOCKED: ENDMDL
________________________________________________________________________________


	BEGINNING GENETIC ALGORITHM DOCKING 37 of 100
Run: 37 Seed: 1579017824 961087824 [ Run 37 of 100 GA/GALS ]
Beginning LAMARCKIAN GENETIC ALGORITHM (LGA), with a maximum of 2500000 energy evaluations.

Final-Value: -15.052


	FINAL GENETIC ALGORITHM DOCKED STATE
	_______________________________________________


Detailed state:  trans 26.087 -14.992 -1.737 quatxyzw -0.363575 0.000495 -0.920981 0.140026 center -0.011 0.081 -0.051 ntor 6 -70.8822 -179.3339 156.9072 -33.1999 -108.4659 -179.8163
State:	 26.087 -14.992  -1.737  -0.367  0.000 -0.930 163.901    -70.88 -179.33  156.91  -33.20 -108.47 -179.82

DOCKED: MODEL       37
DOCKED: USER    Run = 37
DOCKED: USER    DPF = ligand_dock.biased.dpf
DOCKED: USER  
DOCKED: USER    Estimated Free Energy of Binding    =  -12.37 kcal/mol  [=(1)+(2)+(3)-(4)]
DOCKED: USER    Estimated Inhibition Constant, Ki   =  851.82 pM (picomolar)  [Temperature = 298.15 K]
DOCKED: USER    
DOCKED: USER    (1) Final Intermolecular Energy     =  -14.16 kcal/mol
DOCKED: USER        vdW + Hbond + desolv Energy     =  -14.16 kcal/mol
DOCKED: USER        Electrostatic Energy            =   +0.00 kcal/mol
DOCKED: USER    (2) Final Total Internal Energy     =   -0.89 kcal/mol
DOCKED: USER    (3) Torsional Free Energy           =   +1.79 kcal/mol
DOCKED: USER    (4) Unbound System's Energy  [=(2)] =   -0.89 kcal/mol
DOCKED: USER    
DOCKED: USER    
DOCKED: USER    NEWDPF move ligand.pdbqt
DOCKED: USER    NEWDPF about -0.011000 0.081000 -0.051000
DOCKED: USER    NEWDPF tran0 26.086572 -14.992278 -1.736923
DOCKED: USER    NEWDPF quaternion0 -0.363575 0.000495 -0.920981 0.140026
DOCKED: USER    NEWDPF axisangle0 -0.367193 0.000499 -0.930145 163.901248
DOCKED: USER    NEWDPF quat0 -0.367193 0.000499 -0.930145 163.901248
DOCKED: USER    NEWDPF dihe0 -70.88 -179.33 156.91 -33.20 -108.47 -179.82 
DOCKED: USER  keepresnum = 1 
DOCKED: USER  
DOCKED: REMARK  Name = 
DOCKED: REMARK  6 active torsions:
DOCKED: REMARK  status: ('A' for Active; 'I' for Inactive)
DOCKED: REMARK    1  A    between atoms: C_2  and  C_5
DOCKED: REMARK    2  A    between atoms: C_5  and  C_6
DOCKED: REMARK    3  A    between atoms: C_6  and  C_7
DOCKED: REMARK    4  A    between atoms: C_7  and  C_8
DOCKED: REMARK    5  A    between atoms: C_8  and  C_9
DOCKED: REMARK    6  A    between atoms: C_9  and  N_10
DOCKED: REMARK                            x       y       z     vdW  Elec       q    Type
DOCKED: REMARK                         _______ _______ _______ _____ _____    ______ ____
DOCKED: USER                              x       y       z     vdW  Elec       q    Type
DOCKED: USER                           _______ _______ _______ _____ _____    ______ ____
DOCKED: ROOT
DOCKED: ATOM      1  N   UNL     1      26.274 -15.804  -2.127 -0.40 -0.00    +0.000 N 
DOCKED: ATOM      2  C   UNL     1      26.253 -15.126  -3.397 -0.50 -0.00    +0.000 C 
DOCKED: ATOM      3  C   UNL     1      27.400 -15.258  -4.325 -0.38 -0.00    +0.000 A 
DOCKED: ATOM      4  C   UNL     1      27.379 -14.626  -5.581 -0.31 -0.00    +0.000 A 
DOCKED: ATOM      5  C   UNL     1      28.459 -14.750  -6.456 -0.31 -0.00    +0.000 A 
DOCKED: ATOM      6  C   UNL     1      29.575 -15.504  -6.094 -0.32 -0.00    +0.000 A 
DOCKED: ATOM      7  C   UNL     1      29.621 -16.142  -4.847 -0.26 -0.00    +0.000 A 
DOCKED: ATOM      8  C   UNL     1      30.745 -16.897  -4.483 -0.18 -0.00    +0.000 A 
DOCKED: ATOM      9  C   UNL     1      30.792 -17.531  -3.241 -0.16 -0.00    +0.000 A 
DOCKED: ATOM     10  C   UNL     1      29.722 -17.419  -2.352 -0.13 -0.00    +0.000 A 
DOCKED: ATOM     11  C   UNL     1      28.583 -16.668  -2.695 -0.21 -0.00    +0.000 A 
DOCKED: ATOM     12  C   UNL     1      28.527 -16.023  -3.950 -0.22 -0.00    +0.000 A 
DOCKED: ATOM     13  O   UNL     1      25.261 -14.417  -3.720 -0.80 -0.00    +0.000 OA
DOCKED: ATOM     14  C   UNL     1      27.448 -16.549  -1.751 -0.38 -0.00    +0.000 C 
DOCKED: ATOM     15  O   UNL     1      27.513 -17.100  -0.617 -0.47 -0.00    +0.000 OA
DOCKED: ENDROOT
DOCKED: BRANCH   1  16
DOCKED: ATOM     16  C   UNL     1      25.157 -15.649  -1.183 -0.37 -0.00    +0.000 C 
DOCKED: BRANCH  16  17
DOCKED: ATOM     17  C   UNL     1      24.129 -16.764  -1.393 -0.60 -0.00    +0.000 C 
DOCKED: BRANCH  17  18
DOCKED: ATOM     18  C   UNL     1      24.668 -18.112  -0.902 -0.74 -0.00    +0.000 C 
DOCKED: BRANCH  18  19
DOCKED: ATOM     19  C   UNL     1      23.536 -18.987  -0.344 -0.64 -0.00    +0.000 C 
DOCKED: BRANCH  19  20
DOCKED: ATOM     20  C   UNL     1      22.297 -18.165   0.036 -0.78 -0.00    +0.000 C 
DOCKED: BRANCH  20  22
DOCKED: ATOM     21  O   UNL     1      20.270 -17.569  -1.081 -2.06 -0.00    +0.000 OA
DOCKED: ATOM     22  C   UNL     1      21.134 -18.460  -0.866 -0.78 -0.00    +0.000 C 
DOCKED: ATOM     23  N   UNL     1      21.021 -19.732  -1.509 -0.73 -0.00    +0.000 N 
DOCKED: ATOM     24  O   UNL     1      19.982 -19.992  -2.336 -2.13 -0.00    +0.000 OA
DOCKED: ATOM     25  H   UNL     1      21.703 -20.424  -1.349 -0.26 -0.00    +0.000 HD
DOCKED: ENDBRANCH  20  22
DOCKED: ENDBRANCH  19  20
DOCKED: ENDBRANCH  18  19
DOCKED: ENDBRANCH  17  18
DOCKED: ENDBRANCH  16  17
DOCKED: ENDBRANCH   1  16
DOCKED: TORSDOF 6
DOCKED: TER
DOCKED: ENDMDL
________________________________________________________________________________


	BEGINNING GENETIC ALGORITHM DOCKING 38 of 100
Run: 38 Seed: 420725970 848188882 [ Run 38 of 100 GA/GALS ]
Beginning LAMARCKIAN GENETIC ALGORITHM (LGA), with a maximum of 2500000 energy evaluations.

Final-Value: -13.638


	FINAL GENETIC ALGORITHM DOCKED STATE
	_______________________________________________


Detailed state:  trans 27.154 -14.621 -3.049 quatxyzw 0.186643 0.231181 0.921579 -0.249822 center -0.011 0.081 -0.051 ntor 6 40.6334 -64.7801 20.0733 45.3259 97.2011 -126.7005
State:	 27.154 -14.621  -3.049   0.193  0.239  0.952 -151.066     40.63  -64.78   20.07   45.33   97.20 -126.70

DOCKED: MODEL       38
DOCKED: USER    Run = 38
DOCKED: USER    DPF = ligand_dock.biased.dpf
DOCKED: USER  
DOCKED: USER    Estimated Free Energy of Binding    =  -11.43 kcal/mol  [=(1)+(2)+(3)-(4)]
DOCKED: USER    Estimated Inhibition Constant, Ki   =    4.17 nM (nanomolar)  [Temperature = 298.15 K]
DOCKED: USER    
DOCKED: USER    (1) Final Intermolecular Energy     =  -13.22 kcal/mol
DOCKED: USER        vdW + Hbond + desolv Energy     =  -13.22 kcal/mol
DOCKED: USER        Electrostatic Energy            =   +0.00 kcal/mol
DOCKED: USER    (2) Final Total Internal Energy     =   -0.42 kcal/mol
DOCKED: USER    (3) Torsional Free Energy           =   +1.79 kcal/mol
DOCKED: USER    (4) Unbound System's Energy  [=(2)] =   -0.42 kcal/mol
DOCKED: USER    
DOCKED: USER    
DOCKED: USER    NEWDPF move ligand.pdbqt
DOCKED: USER    NEWDPF about -0.011000 0.081000 -0.051000
DOCKED: USER    NEWDPF tran0 27.154351 -14.621496 -3.049456
DOCKED: USER    NEWDPF quaternion0 0.186643 0.231181 0.921579 -0.249822
DOCKED: USER    NEWDPF axisangle0 0.192755 0.238751 0.951758 -151.066085
DOCKED: USER    NEWDPF quat0 0.192755 0.238751 0.951758 -151.066085
DOCKED: USER    NEWDPF dihe0 40.63 -64.78 20.07 45.33 97.20 -126.70 
DOCKED: USER  keepresnum = 1 
DOCKED: USER  
DOCKED: REMARK  Name = 
DOCKED: REMARK  6 active torsions:
DOCKED: REMARK  status: ('A' for Active; 'I' for Inactive)
DOCKED: REMARK    1  A    between atoms: C_2  and  C_5
DOCKED: REMARK    2  A    between atoms: C_5  and  C_6
DOCKED: REMARK    3  A    between atoms: C_6  and  C_7
DOCKED: REMARK    4  A    between atoms: C_7  and  C_8
DOCKED: REMARK    5  A    between atoms: C_8  and  C_9
DOCKED: REMARK    6  A    between atoms: C_9  and  N_10
DOCKED: REMARK                            x       y       z     vdW  Elec       q    Type
DOCKED: REMARK                         _______ _______ _______ _____ _____    ______ ____
DOCKED: USER                              x       y       z     vdW  Elec       q    Type
DOCKED: USER                           _______ _______ _______ _____ _____    ______ ____
DOCKED: ROOT
DOCKED: ATOM      1  N   UNL     1      27.344 -15.508  -2.892 -0.29 -0.00    +0.000 N 
DOCKED: ATOM      2  C   UNL     1      27.699 -15.614  -4.283 -0.36 -0.00    +0.000 C 
DOCKED: ATOM      3  C   UNL     1      29.014 -16.174  -4.670 -0.25 -0.00    +0.000 A 
DOCKED: ATOM      4  C   UNL     1      29.361 -16.311  -6.027 -0.20 -0.00    +0.000 A 
DOCKED: ATOM      5  C   UNL     1      30.599 -16.839  -6.393 -0.29 -0.00    +0.000 A 
DOCKED: ATOM      6  C   UNL     1      31.511 -17.237  -5.415 -0.15 -0.00    +0.000 A 
DOCKED: ATOM      7  C   UNL     1      31.190 -17.109  -4.057 -0.13 -0.00    +0.000 A 
DOCKED: ATOM      8  C   UNL     1      32.108 -17.507  -3.075 -0.07 -0.00    +0.000 A 
DOCKED: ATOM      9  C   UNL     1      31.790 -17.378  -1.723 -0.08 -0.00    +0.000 A 
DOCKED: ATOM     10  C   UNL     1      30.557 -16.852  -1.337 -0.15 -0.00    +0.000 A 
DOCKED: ATOM     11  C   UNL     1      29.618 -16.448  -2.303 -0.18 -0.00    +0.000 A 
DOCKED: ATOM     12  C   UNL     1      29.932 -16.575  -3.674 -0.20 -0.00    +0.000 A 
DOCKED: ATOM     13  O   UNL     1      26.892 -15.227  -5.173 -0.99 +0.00    +0.000 OA
DOCKED: ATOM     14  C   UNL     1      28.309 -15.890  -1.893 -0.27 -0.00    +0.000 C 
DOCKED: ATOM     15  O   UNL     1      28.042 -15.747  -0.667 -0.28 -0.00    +0.000 OA
DOCKED: ENDROOT
DOCKED: BRANCH   1  16
DOCKED: ATOM     16  C   UNL     1      26.056 -14.918  -2.495 -0.44 -0.00    +0.000 C 
DOCKED: BRANCH  16  17
DOCKED: ATOM     17  C   UNL     1      25.519 -15.615  -1.242 -0.47 -0.00    +0.000 C 
DOCKED: BRANCH  17  18
DOCKED: ATOM     18  C   UNL     1      24.787 -16.913  -1.602 -0.65 -0.00    +0.000 C 
DOCKED: BRANCH  18  19
DOCKED: ATOM     19  C   UNL     1      23.454 -17.021  -0.848 -0.65 -0.00    +0.000 C 
DOCKED: BRANCH  19  20
DOCKED: ATOM     20  C   UNL     1      22.975 -18.472  -0.715 -0.83 -0.00    +0.000 C 
DOCKED: BRANCH  20  22
DOCKED: ATOM     21  O   UNL     1      20.704 -17.728  -0.708 -2.23 +0.00    +0.000 OA
DOCKED: ATOM     22  C   UNL     1      21.523 -18.615  -1.069 -0.80 -0.00    +0.000 C 
DOCKED: ATOM     23  N   UNL     1      21.072 -19.730  -1.841 -0.63 -0.00    +0.000 N 
DOCKED: ATOM     24  O   UNL     1      19.767 -19.849  -2.175 -2.11 -0.00    +0.000 OA
DOCKED: ATOM     25  H   UNL     1      21.716 -20.416  -2.132 -0.52 -0.00    +0.000 HD
DOCKED: ENDBRANCH  20  22
DOCKED: ENDBRANCH  19  20
DOCKED: ENDBRANCH  18  19
DOCKED: ENDBRANCH  17  18
DOCKED: ENDBRANCH  16  17
DOCKED: ENDBRANCH   1  16
DOCKED: TORSDOF 6
DOCKED: TER
DOCKED: ENDMDL
________________________________________________________________________________


	BEGINNING GENETIC ALGORITHM DOCKING 39 of 100
Run: 39 Seed: 1288176082 1250589723 [ Run 39 of 100 GA/GALS ]
Beginning LAMARCKIAN GENETIC ALGORITHM (LGA), with a maximum of 2500000 energy evaluations.

Final-Value: -13.044


	FINAL GENETIC ALGORITHM DOCKED STATE
	_______________________________________________


Detailed state:  trans 27.015 -15.737 -1.176 quatxyzw 0.689267 -0.707110 0.136737 -0.078797 center -0.011 0.081 -0.051 ntor 6 -13.9604 176.3086 -151.5471 -63.3695 -58.8939 -146.1792
State:	 27.015 -15.737  -1.176   0.691 -0.709  0.137 -170.961    -13.96  176.31 -151.55  -63.37  -58.89 -146.18

DOCKED: MODEL       39
DOCKED: USER    Run = 39
DOCKED: USER    DPF = ligand_dock.biased.dpf
DOCKED: USER  
DOCKED: USER    Estimated Free Energy of Binding    =  -10.53 kcal/mol  [=(1)+(2)+(3)-(4)]
DOCKED: USER    Estimated Inhibition Constant, Ki   =   19.07 nM (nanomolar)  [Temperature = 298.15 K]
DOCKED: USER    
DOCKED: USER    (1) Final Intermolecular Energy     =  -12.32 kcal/mol
DOCKED: USER        vdW + Hbond + desolv Energy     =  -12.32 kcal/mol
DOCKED: USER        Electrostatic Energy            =   +0.00 kcal/mol
DOCKED: USER    (2) Final Total Internal Energy     =   -0.72 kcal/mol
DOCKED: USER    (3) Torsional Free Energy           =   +1.79 kcal/mol
DOCKED: USER    (4) Unbound System's Energy  [=(2)] =   -0.72 kcal/mol
DOCKED: USER    
DOCKED: USER    
DOCKED: USER    NEWDPF move ligand.pdbqt
DOCKED: USER    NEWDPF about -0.011000 0.081000 -0.051000
DOCKED: USER    NEWDPF tran0 27.014693 -15.737373 -1.175770
DOCKED: USER    NEWDPF quaternion0 0.689267 -0.707110 0.136737 -0.078797
DOCKED: USER    NEWDPF axisangle0 0.691417 -0.709316 0.137163 -170.961207
DOCKED: USER    NEWDPF quat0 0.691417 -0.709316 0.137163 -170.961207
DOCKED: USER    NEWDPF dihe0 -13.96 176.31 -151.55 -63.37 -58.89 -146.18 
DOCKED: USER  keepresnum = 1 
DOCKED: USER  
DOCKED: REMARK  Name = 
DOCKED: REMARK  6 active torsions:
DOCKED: REMARK  status: ('A' for Active; 'I' for Inactive)
DOCKED: REMARK    1  A    between atoms: C_2  and  C_5
DOCKED: REMARK    2  A    between atoms: C_5  and  C_6
DOCKED: REMARK    3  A    between atoms: C_6  and  C_7
DOCKED: REMARK    4  A    between atoms: C_7  and  C_8
DOCKED: REMARK    5  A    between atoms: C_8  and  C_9
DOCKED: REMARK    6  A    between atoms: C_9  and  N_10
DOCKED: REMARK                            x       y       z     vdW  Elec       q    Type
DOCKED: REMARK                         _______ _______ _______ _____ _____    ______ ____
DOCKED: USER                              x       y       z     vdW  Elec       q    Type
DOCKED: USER                           _______ _______ _______ _____ _____    ______ ____
DOCKED: ROOT
DOCKED: ATOM      1  N   UNL     1      26.342 -15.132  -1.341 -0.34 -0.00    +0.000 N 
DOCKED: ATOM      2  C   UNL     1      27.059 -14.203  -0.506 -0.28 -0.00    +0.000 C 
DOCKED: ATOM      3  C   UNL     1      27.383 -12.851  -1.014 -0.14 -0.00    +0.000 A 
DOCKED: ATOM      4  C   UNL     1      28.057 -11.924  -0.198 -0.09 -0.00    +0.000 A 
DOCKED: ATOM      5  C   UNL     1      28.363 -10.649  -0.676 -0.06 -0.00    +0.000 A 
DOCKED: ATOM      6  C   UNL     1      28.003 -10.278  -1.971 -0.07 -0.00    +0.000 A 
DOCKED: ATOM      7  C   UNL     1      27.332 -11.184  -2.805 -0.10 -0.00    +0.000 A 
DOCKED: ATOM      8  C   UNL     1      26.974 -10.811  -4.108 -0.13 -0.00    +0.000 A 
DOCKED: ATOM      9  C   UNL     1      26.309 -11.713  -4.938 -0.25 -0.00    +0.000 A 
DOCKED: ATOM     10  C   UNL     1      25.995 -12.993  -4.479 -0.32 -0.00    +0.000 A 
DOCKED: ATOM     11  C   UNL     1      26.342 -13.390  -3.175 -0.22 -0.00    +0.000 A 
DOCKED: ATOM     12  C   UNL     1      27.016 -12.483  -2.328 -0.09 -0.00    +0.000 A 
DOCKED: ATOM     13  O   UNL     1      27.416 -14.542   0.656 -0.31 -0.00    +0.000 OA
DOCKED: ATOM     14  C   UNL     1      26.008 -14.748  -2.688 -0.44 -0.00    +0.000 C 
DOCKED: ATOM     15  O   UNL     1      25.434 -15.569  -3.457 -0.64 -0.00    +0.000 OA
DOCKED: ENDROOT
DOCKED: BRANCH   1  16
DOCKED: ATOM     16  C   UNL     1      26.048 -16.491  -0.860 -0.52 -0.00    +0.000 C 
DOCKED: BRANCH  16  17
DOCKED: ATOM     17  C   UNL     1      24.549 -16.780  -0.976 -0.63 -0.00    +0.000 C 
DOCKED: BRANCH  17  18
DOCKED: ATOM     18  C   UNL     1      24.289 -17.996  -1.872 -0.59 -0.00    +0.000 C 
DOCKED: BRANCH  18  19
DOCKED: ATOM     19  C   UNL     1      23.626 -19.132  -1.079 -0.75 -0.00    +0.000 C 
DOCKED: BRANCH  19  20
DOCKED: ATOM     20  C   UNL     1      22.723 -18.609   0.046 -0.75 -0.00    +0.000 C 
DOCKED: BRANCH  20  22
DOCKED: ATOM     21  O   UNL     1      20.620 -17.865  -0.811 -2.31 -0.00    +0.000 OA
DOCKED: ATOM     22  C   UNL     1      21.269 -18.801  -0.272 -0.80 -0.00    +0.000 C 
DOCKED: ATOM     23  N   UNL     1      20.627 -20.049  -0.000 -0.72 -0.00    +0.000 N 
DOCKED: ATOM     24  O   UNL     1      19.320 -20.228  -0.303 -1.27 -0.00    +0.000 OA
DOCKED: ATOM     25  H   UNL     1      21.138 -20.783   0.410 -0.51 -0.00    +0.000 HD
DOCKED: ENDBRANCH  20  22
DOCKED: ENDBRANCH  19  20
DOCKED: ENDBRANCH  18  19
DOCKED: ENDBRANCH  17  18
DOCKED: ENDBRANCH  16  17
DOCKED: ENDBRANCH   1  16
DOCKED: TORSDOF 6
DOCKED: TER
DOCKED: ENDMDL
________________________________________________________________________________


	BEGINNING GENETIC ALGORITHM DOCKING 40 of 100
Run: 40 Seed: 917156515 1550950152 [ Run 40 of 100 GA/GALS ]
Beginning LAMARCKIAN GENETIC ALGORITHM (LGA), with a maximum of 2500000 energy evaluations.

Final-Value: -13.303


	FINAL GENETIC ALGORITHM DOCKED STATE
	_______________________________________________


Detailed state:  trans 26.563 -14.806 -3.053 quatxyzw 0.195187 0.275423 0.939452 -0.058941 center -0.011 0.081 -0.051 ntor 6 80.4598 -5.1708 60.4091 0.7769 20.6351 -143.9910
State:	 26.563 -14.806  -3.053   0.196  0.276  0.941 -173.242     80.46   -5.17   60.41    0.78   20.64 -143.99

DOCKED: MODEL       40
DOCKED: USER    Run = 40
DOCKED: USER    DPF = ligand_dock.biased.dpf
DOCKED: USER  
DOCKED: USER    Estimated Free Energy of Binding    =  -10.92 kcal/mol  [=(1)+(2)+(3)-(4)]
DOCKED: USER    Estimated Inhibition Constant, Ki   =    9.85 nM (nanomolar)  [Temperature = 298.15 K]
DOCKED: USER    
DOCKED: USER    (1) Final Intermolecular Energy     =  -12.71 kcal/mol
DOCKED: USER        vdW + Hbond + desolv Energy     =  -12.71 kcal/mol
DOCKED: USER        Electrostatic Energy            =   +0.00 kcal/mol
DOCKED: USER    (2) Final Total Internal Energy     =   -0.59 kcal/mol
DOCKED: USER    (3) Torsional Free Energy           =   +1.79 kcal/mol
DOCKED: USER    (4) Unbound System's Energy  [=(2)] =   -0.59 kcal/mol
DOCKED: USER    
DOCKED: USER    
DOCKED: USER    NEWDPF move ligand.pdbqt
DOCKED: USER    NEWDPF about -0.011000 0.081000 -0.051000
DOCKED: USER    NEWDPF tran0 26.562654 -14.806046 -3.053372
DOCKED: USER    NEWDPF quaternion0 0.195187 0.275423 0.939452 -0.058941
DOCKED: USER    NEWDPF axisangle0 0.195527 0.275903 0.941088 -173.241915
DOCKED: USER    NEWDPF quat0 0.195527 0.275903 0.941088 -173.241915
DOCKED: USER    NEWDPF dihe0 80.46 -5.17 60.41 0.78 20.64 -143.99 
DOCKED: USER  keepresnum = 1 
DOCKED: USER  
DOCKED: REMARK  Name = 
DOCKED: REMARK  6 active torsions:
DOCKED: REMARK  status: ('A' for Active; 'I' for Inactive)
DOCKED: REMARK    1  A    between atoms: C_2  and  C_5
DOCKED: REMARK    2  A    between atoms: C_5  and  C_6
DOCKED: REMARK    3  A    between atoms: C_6  and  C_7
DOCKED: REMARK    4  A    between atoms: C_7  and  C_8
DOCKED: REMARK    5  A    between atoms: C_8  and  C_9
DOCKED: REMARK    6  A    between atoms: C_9  and  N_10
DOCKED: REMARK                            x       y       z     vdW  Elec       q    Type
DOCKED: REMARK                         _______ _______ _______ _____ _____    ______ ____
DOCKED: USER                              x       y       z     vdW  Elec       q    Type
DOCKED: USER                           _______ _______ _______ _____ _____    ______ ____
DOCKED: ROOT
DOCKED: ATOM      1  N   UNL     1      27.080 -15.558  -2.940 -0.32 -0.00    +0.000 N 
DOCKED: ATOM      2  C   UNL     1      27.283 -15.555  -4.366 -0.39 -0.00    +0.000 C 
DOCKED: ATOM      3  C   UNL     1      28.657 -15.602  -4.918 -0.32 -0.00    +0.000 A 
DOCKED: ATOM      4  C   UNL     1      28.868 -15.629  -6.308 -0.21 -0.00    +0.000 A 
DOCKED: ATOM      5  C   UNL     1      30.161 -15.674  -6.829 -0.28 -0.00    +0.000 A 
DOCKED: ATOM      6  C   UNL     1      31.264 -15.692  -5.975 -0.14 -0.00    +0.000 A 
DOCKED: ATOM      7  C   UNL     1      31.080 -15.663  -4.585 -0.09 -0.00    +0.000 A 
DOCKED: ATOM      8  C   UNL     1      32.189 -15.677  -3.728 -0.03 -0.00    +0.000 A 
DOCKED: ATOM      9  C   UNL     1      32.007 -15.646  -2.345 -0.02 -0.00    +0.000 A 
DOCKED: ATOM     10  C   UNL     1      30.721 -15.601  -1.805 -0.06 -0.00    +0.000 A 
DOCKED: ATOM     11  C   UNL     1      29.593 -15.588  -2.644 -0.13 -0.00    +0.000 A 
DOCKED: ATOM     12  C   UNL     1      29.768 -15.618  -4.045 -0.17 -0.00    +0.000 A 
DOCKED: ATOM     13  O   UNL     1      26.292 -15.508  -5.146 -1.11 +0.00    +0.000 OA
DOCKED: ATOM     14  C   UNL     1      28.229 -15.540  -2.071 -0.24 -0.00    +0.000 C 
DOCKED: ATOM     15  O   UNL     1      28.074 -15.480  -0.819 -0.25 -0.00    +0.000 OA
DOCKED: ENDROOT
DOCKED: BRANCH   1  16
DOCKED: ATOM     16  C   UNL     1      25.723 -15.473  -2.382 -0.50 -0.00    +0.000 C 
DOCKED: BRANCH  16  17
DOCKED: ATOM     17  C   UNL     1      25.497 -16.598  -1.368 -0.59 -0.00    +0.000 C 
DOCKED: BRANCH  17  18
DOCKED: ATOM     18  C   UNL     1      24.002 -16.857  -1.155 -0.63 -0.00    +0.000 C 
DOCKED: BRANCH  18  19
DOCKED: ATOM     19  C   UNL     1      23.778 -17.968  -0.118 -0.71 -0.00    +0.000 C 
DOCKED: BRANCH  19  20
DOCKED: ATOM     20  C   UNL     1      23.086 -19.198  -0.721 -0.76 -0.00    +0.000 C 
DOCKED: BRANCH  20  22
DOCKED: ATOM     21  O   UNL     1      21.134 -17.820  -0.714 -2.04 -0.00    +0.000 OA
DOCKED: ATOM     22  C   UNL     1      21.630 -18.945  -0.986 -0.84 -0.00    +0.000 C 
DOCKED: ATOM     23  N   UNL     1      20.815 -19.959  -1.577 -0.55 -0.00    +0.000 N 
DOCKED: ATOM     24  O   UNL     1      19.507 -19.726  -1.832 -2.13 -0.00    +0.000 OA
DOCKED: ATOM     25  H   UNL     1      21.208 -20.835  -1.800 -0.20 -0.00    +0.000 HD
DOCKED: ENDBRANCH  20  22
DOCKED: ENDBRANCH  19  20
DOCKED: ENDBRANCH  18  19
DOCKED: ENDBRANCH  17  18
DOCKED: ENDBRANCH  16  17
DOCKED: ENDBRANCH   1  16
DOCKED: TORSDOF 6
DOCKED: TER
DOCKED: ENDMDL
________________________________________________________________________________


	BEGINNING GENETIC ALGORITHM DOCKING 41 of 100
Run: 41 Seed: 552955735 1831762103 [ Run 41 of 100 GA/GALS ]
Beginning LAMARCKIAN GENETIC ALGORITHM (LGA), with a maximum of 2500000 energy evaluations.

Final-Value: -13.343


	FINAL GENETIC ALGORITHM DOCKED STATE
	_______________________________________________


Detailed state:  trans 27.167 -15.216 -2.740 quatxyzw -0.649427 0.655719 -0.374746 -0.088554 center -0.011 0.081 -0.051 ntor 6 -10.0041 169.6788 35.8395 82.9100 50.7133 155.0579
State:	 27.167 -15.216  -2.740  -0.652  0.658 -0.376 -169.839    -10.00  169.68   35.84   82.91   50.71  155.06

DOCKED: MODEL       41
DOCKED: USER    Run = 41
DOCKED: USER    DPF = ligand_dock.biased.dpf
DOCKED: USER  
DOCKED: USER    Estimated Free Energy of Binding    =  -10.87 kcal/mol  [=(1)+(2)+(3)-(4)]
DOCKED: USER    Estimated Inhibition Constant, Ki   =   10.84 nM (nanomolar)  [Temperature = 298.15 K]
DOCKED: USER    
DOCKED: USER    (1) Final Intermolecular Energy     =  -12.66 kcal/mol
DOCKED: USER        vdW + Hbond + desolv Energy     =  -12.66 kcal/mol
DOCKED: USER        Electrostatic Energy            =   +0.00 kcal/mol
DOCKED: USER    (2) Final Total Internal Energy     =   -0.69 kcal/mol
DOCKED: USER    (3) Torsional Free Energy           =   +1.79 kcal/mol
DOCKED: USER    (4) Unbound System's Energy  [=(2)] =   -0.69 kcal/mol
DOCKED: USER    
DOCKED: USER    
DOCKED: USER    NEWDPF move ligand.pdbqt
DOCKED: USER    NEWDPF about -0.011000 0.081000 -0.051000
DOCKED: USER    NEWDPF tran0 27.167336 -15.215572 -2.740096
DOCKED: USER    NEWDPF quaternion0 -0.649427 0.655719 -0.374746 -0.088554
DOCKED: USER    NEWDPF axisangle0 -0.651988 0.658306 -0.376224 -169.839160
DOCKED: USER    NEWDPF quat0 -0.651988 0.658306 -0.376224 -169.839160
DOCKED: USER    NEWDPF dihe0 -10.00 169.68 35.84 82.91 50.71 155.06 
DOCKED: USER  keepresnum = 1 
DOCKED: USER  
DOCKED: REMARK  Name = 
DOCKED: REMARK  6 active torsions:
DOCKED: REMARK  status: ('A' for Active; 'I' for Inactive)
DOCKED: REMARK    1  A    between atoms: C_2  and  C_5
DOCKED: REMARK    2  A    between atoms: C_5  and  C_6
DOCKED: REMARK    3  A    between atoms: C_6  and  C_7
DOCKED: REMARK    4  A    between atoms: C_7  and  C_8
DOCKED: REMARK    5  A    between atoms: C_8  and  C_9
DOCKED: REMARK    6  A    between atoms: C_9  and  N_10
DOCKED: REMARK                            x       y       z     vdW  Elec       q    Type
DOCKED: REMARK                         _______ _______ _______ _____ _____    ______ ____
DOCKED: USER                              x       y       z     vdW  Elec       q    Type
DOCKED: USER                           _______ _______ _______ _____ _____    ______ ____
DOCKED: ROOT
DOCKED: ATOM      1  N   UNL     1      26.661 -14.721  -3.328 -0.34 -0.00    +0.000 N 
DOCKED: ATOM      2  C   UNL     1      26.749 -13.633  -2.387 -0.24 -0.00    +0.000 C 
DOCKED: ATOM      3  C   UNL     1      27.220 -12.303  -2.836 -0.13 -0.00    +0.000 A 
DOCKED: ATOM      4  C   UNL     1      27.281 -11.225  -1.935 -0.08 -0.00    +0.000 A 
DOCKED: ATOM      5  C   UNL     1      27.724  -9.971  -2.357 -0.07 -0.00    +0.000 A 
DOCKED: ATOM      6  C   UNL     1      28.113  -9.771  -3.681 -0.05 -0.00    +0.000 A 
DOCKED: ATOM      7  C   UNL     1      28.064 -10.830  -4.599 -0.07 -0.00    +0.000 A 
DOCKED: ATOM      8  C   UNL     1      28.458 -10.629  -5.929 -0.06 -0.00    +0.000 A 
DOCKED: ATOM      9  C   UNL     1      28.410 -11.683  -6.842 -0.14 -0.00    +0.000 A 
DOCKED: ATOM     10  C   UNL     1      27.970 -12.944  -6.439 -0.17 -0.00    +0.000 A 
DOCKED: ATOM     11  C   UNL     1      27.568 -13.171  -5.110 -0.23 -0.00    +0.000 A 
DOCKED: ATOM     12  C   UNL     1      27.613 -12.109  -4.180 -0.14 -0.00    +0.000 A 
DOCKED: ATOM     13  O   UNL     1      26.428 -13.813  -1.180 -0.29 -0.00    +0.000 OA
DOCKED: ATOM     14  C   UNL     1      27.101 -14.510  -4.683 -0.43 -0.00    +0.000 C 
DOCKED: ATOM     15  O   UNL     1      27.091 -15.465  -5.508 -1.11 +0.00    +0.000 OA
DOCKED: ENDROOT
DOCKED: BRANCH   1  16
DOCKED: ATOM     16  C   UNL     1      26.231 -16.055  -2.884 -0.46 -0.00    +0.000 C 
DOCKED: BRANCH  16  17
DOCKED: ATOM     17  C   UNL     1      24.759 -16.024  -2.467 -0.30 -0.00    +0.000 C 
DOCKED: BRANCH  17  18
DOCKED: ATOM     18  C   UNL     1      24.564 -16.648  -1.081 -0.61 -0.00    +0.000 C 
DOCKED: BRANCH  18  19
DOCKED: ATOM     19  C   UNL     1      24.129 -18.117  -1.194 -0.77 -0.00    +0.000 C 
DOCKED: BRANCH  19  20
DOCKED: ATOM     20  C   UNL     1      23.078 -18.497  -0.143 -0.77 -0.00    +0.000 C 
DOCKED: BRANCH  20  22
DOCKED: ATOM     21  O   UNL     1      20.990 -17.480  -0.706 -2.07 +0.00    +0.000 OA
DOCKED: ATOM     22  C   UNL     1      21.694 -18.524  -0.724 -0.86 -0.00    +0.000 C 
DOCKED: ATOM     23  N   UNL     1      21.185 -19.716  -1.327 -0.70 -0.00    +0.000 N 
DOCKED: ATOM     24  O   UNL     1      19.944 -19.736  -1.865 -2.39 -0.00    +0.000 OA
DOCKED: ATOM     25  H   UNL     1      21.741 -20.529  -1.350 -0.18 -0.00    +0.000 HD
DOCKED: ENDBRANCH  20  22
DOCKED: ENDBRANCH  19  20
DOCKED: ENDBRANCH  18  19
DOCKED: ENDBRANCH  17  18
DOCKED: ENDBRANCH  16  17
DOCKED: ENDBRANCH   1  16
DOCKED: TORSDOF 6
DOCKED: TER
DOCKED: ENDMDL
________________________________________________________________________________


	BEGINNING GENETIC ALGORITHM DOCKING 42 of 100
Run: 42 Seed: 491806690 309661206 [ Run 42 of 100 GA/GALS ]
Beginning LAMARCKIAN GENETIC ALGORITHM (LGA), with a maximum of 2500000 energy evaluations.

Final-Value: -13.940


	FINAL GENETIC ALGORITHM DOCKED STATE
	_______________________________________________


Detailed state:  trans 26.958 -17.453 -0.667 quatxyzw -0.133816 0.737113 0.261389 0.608632 center -0.011 0.081 -0.051 ntor 6 -174.6059 -145.8228 -20.0304 82.7380 143.8169 12.3605
State:	 26.958 -17.453  -0.667  -0.169  0.929  0.329 105.019   -174.61 -145.82  -20.03   82.74  143.82   12.36

DOCKED: MODEL       42
DOCKED: USER    Run = 42
DOCKED: USER    DPF = ligand_dock.biased.dpf
DOCKED: USER  
DOCKED: USER    Estimated Free Energy of Binding    =  -11.05 kcal/mol  [=(1)+(2)+(3)-(4)]
DOCKED: USER    Estimated Inhibition Constant, Ki   =    7.95 nM (nanomolar)  [Temperature = 298.15 K]
DOCKED: USER    
DOCKED: USER    (1) Final Intermolecular Energy     =  -12.84 kcal/mol
DOCKED: USER        vdW + Hbond + desolv Energy     =  -12.84 kcal/mol
DOCKED: USER        Electrostatic Energy            =   +0.00 kcal/mol
DOCKED: USER    (2) Final Total Internal Energy     =   -1.10 kcal/mol
DOCKED: USER    (3) Torsional Free Energy           =   +1.79 kcal/mol
DOCKED: USER    (4) Unbound System's Energy  [=(2)] =   -1.10 kcal/mol
DOCKED: USER    
DOCKED: USER    
DOCKED: USER    NEWDPF move ligand.pdbqt
DOCKED: USER    NEWDPF about -0.011000 0.081000 -0.051000
DOCKED: USER    NEWDPF tran0 26.957707 -17.453158 -0.667259
DOCKED: USER    NEWDPF quaternion0 -0.133816 0.737113 0.261389 0.608632
DOCKED: USER    NEWDPF axisangle0 -0.168650 0.928995 0.329432 105.018648
DOCKED: USER    NEWDPF quat0 -0.168650 0.928995 0.329432 105.018648
DOCKED: USER    NEWDPF dihe0 -174.61 -145.82 -20.03 82.74 143.82 12.36 
DOCKED: USER  keepresnum = 1 
DOCKED: USER  
DOCKED: REMARK  Name = 
DOCKED: REMARK  6 active torsions:
DOCKED: REMARK  status: ('A' for Active; 'I' for Inactive)
DOCKED: REMARK    1  A    between atoms: C_2  and  C_5
DOCKED: REMARK    2  A    between atoms: C_5  and  C_6
DOCKED: REMARK    3  A    between atoms: C_6  and  C_7
DOCKED: REMARK    4  A    between atoms: C_7  and  C_8
DOCKED: REMARK    5  A    between atoms: C_8  and  C_9
DOCKED: REMARK    6  A    between atoms: C_9  and  N_10
DOCKED: REMARK                            x       y       z     vdW  Elec       q    Type
DOCKED: REMARK                         _______ _______ _______ _____ _____    ______ ____
DOCKED: USER                              x       y       z     vdW  Elec       q    Type
DOCKED: USER                           _______ _______ _______ _____ _____    ______ ____
DOCKED: ROOT
DOCKED: ATOM      1  N   UNL     1      27.251 -16.588  -0.776 -0.40 -0.00    +0.000 N 
DOCKED: ATOM      2  C   UNL     1      28.290 -17.114  -1.623 -0.32 -0.00    +0.000 C 
DOCKED: ATOM      3  C   UNL     1      28.487 -16.560  -2.982 -0.17 -0.00    +0.000 A 
DOCKED: ATOM      4  C   UNL     1      29.517 -17.044  -3.808 -0.17 -0.00    +0.000 A 
DOCKED: ATOM      5  C   UNL     1      29.704 -16.523  -5.089 -0.28 -0.00    +0.000 A 
DOCKED: ATOM      6  C   UNL     1      28.869 -15.513  -5.566 -0.34 -0.00    +0.000 A 
DOCKED: ATOM      7  C   UNL     1      27.834 -15.015  -4.763 -0.36 -0.00    +0.000 A 
DOCKED: ATOM      8  C   UNL     1      26.992 -14.002  -5.245 -0.24 -0.00    +0.000 A 
DOCKED: ATOM      9  C   UNL     1      25.961 -13.508  -4.447 -0.35 -0.00    +0.000 A 
DOCKED: ATOM     10  C   UNL     1      25.758 -14.017  -3.164 -0.31 -0.00    +0.000 A 
DOCKED: ATOM     11  C   UNL     1      26.589 -15.031  -2.657 -0.34 -0.00    +0.000 A 
DOCKED: ATOM     12  C   UNL     1      27.636 -15.538  -3.458 -0.29 -0.00    +0.000 A 
DOCKED: ATOM     13  O   UNL     1      29.031 -18.049  -1.210 -0.27 -0.00    +0.000 OA
DOCKED: ATOM     14  C   UNL     1      26.373 -15.571  -1.295 -0.42 -0.00    +0.000 C 
DOCKED: ATOM     15  O   UNL     1      25.418 -15.139  -0.592 -0.41 -0.00    +0.000 OA
DOCKED: ENDROOT
DOCKED: BRANCH   1  16
DOCKED: ATOM     16  C   UNL     1      27.022 -17.156   0.561 +0.11 -0.00    +0.000 C 
DOCKED: BRANCH  16  17
DOCKED: ATOM     17  C   UNL     1      26.313 -18.508   0.447 -0.47 -0.00    +0.000 C 
DOCKED: BRANCH  17  18
DOCKED: ATOM     18  C   UNL     1      25.303 -18.506  -0.706 -0.63 -0.00    +0.000 C 
DOCKED: BRANCH  18  19
DOCKED: ATOM     19  C   UNL     1      23.885 -18.214  -0.194 -0.75 -0.00    +0.000 C 
DOCKED: BRANCH  19  20
DOCKED: ATOM     20  C   UNL     1      22.932 -17.797  -1.322 -0.60 -0.00    +0.000 C 
DOCKED: BRANCH  20  22
DOCKED: ATOM     21  O   UNL     1      20.643 -17.484  -0.708 -2.08 +0.00    +0.000 OA
DOCKED: ATOM     22  C   UNL     1      21.534 -18.292  -1.083 -0.71 -0.00    +0.000 C 
DOCKED: ATOM     23  N   UNL     1      21.202 -19.663  -1.312 -0.71 -0.00    +0.000 N 
DOCKED: ATOM     24  O   UNL     1      19.939 -20.105  -1.114 -1.95 -0.00    +0.000 OA
DOCKED: ATOM     25  H   UNL     1      21.897 -20.291  -1.617 -0.38 -0.00    +0.000 HD
DOCKED: ENDBRANCH  20  22
DOCKED: ENDBRANCH  19  20
DOCKED: ENDBRANCH  18  19
DOCKED: ENDBRANCH  17  18
DOCKED: ENDBRANCH  16  17
DOCKED: ENDBRANCH   1  16
DOCKED: TORSDOF 6
DOCKED: TER
DOCKED: ENDMDL
________________________________________________________________________________


	BEGINNING GENETIC ALGORITHM DOCKING 43 of 100
Run: 43 Seed: 1223200112 1604615461 [ Run 43 of 100 GA/GALS ]
Beginning LAMARCKIAN GENETIC ALGORITHM (LGA), with a maximum of 2500000 energy evaluations.

Final-Value: -13.823


	FINAL GENETIC ALGORITHM DOCKED STATE
	_______________________________________________


Detailed state:  trans 27.329 -17.376 -2.233 quatxyzw 0.292189 -0.677456 -0.329359 -0.589238 center -0.011 0.081 -0.051 ntor 6 163.6094 -125.2845 174.4868 -28.8439 41.6861 -39.6885
State:	 27.329 -17.376  -2.233   0.362 -0.838 -0.408 -107.794    163.61 -125.28  174.49  -28.84   41.69  -39.69

DOCKED: MODEL       43
DOCKED: USER    Run = 43
DOCKED: USER    DPF = ligand_dock.biased.dpf
DOCKED: USER  
DOCKED: USER    Estimated Free Energy of Binding    =  -11.22 kcal/mol  [=(1)+(2)+(3)-(4)]
DOCKED: USER    Estimated Inhibition Constant, Ki   =    5.94 nM (nanomolar)  [Temperature = 298.15 K]
DOCKED: USER    
DOCKED: USER    (1) Final Intermolecular Energy     =  -13.01 kcal/mol
DOCKED: USER        vdW + Hbond + desolv Energy     =  -13.01 kcal/mol
DOCKED: USER        Electrostatic Energy            =   +0.00 kcal/mol
DOCKED: USER    (2) Final Total Internal Energy     =   -0.81 kcal/mol
DOCKED: USER    (3) Torsional Free Energy           =   +1.79 kcal/mol
DOCKED: USER    (4) Unbound System's Energy  [=(2)] =   -0.81 kcal/mol
DOCKED: USER    
DOCKED: USER    
DOCKED: USER    NEWDPF move ligand.pdbqt
DOCKED: USER    NEWDPF about -0.011000 0.081000 -0.051000
DOCKED: USER    NEWDPF tran0 27.328715 -17.375708 -2.233126
DOCKED: USER    NEWDPF quaternion0 0.292189 -0.677456 -0.329359 -0.589238
DOCKED: USER    NEWDPF axisangle0 0.361638 -0.838478 -0.407643 -107.794051
DOCKED: USER    NEWDPF quat0 0.361638 -0.838478 -0.407643 -107.794051
DOCKED: USER    NEWDPF dihe0 163.61 -125.28 174.49 -28.84 41.69 -39.69 
DOCKED: USER  keepresnum = 1 
DOCKED: USER  
DOCKED: REMARK  Name = 
DOCKED: REMARK  6 active torsions:
DOCKED: REMARK  status: ('A' for Active; 'I' for Inactive)
DOCKED: REMARK    1  A    between atoms: C_2  and  C_5
DOCKED: REMARK    2  A    between atoms: C_5  and  C_6
DOCKED: REMARK    3  A    between atoms: C_6  and  C_7
DOCKED: REMARK    4  A    between atoms: C_7  and  C_8
DOCKED: REMARK    5  A    between atoms: C_8  and  C_9
DOCKED: REMARK    6  A    between atoms: C_9  and  N_10
DOCKED: REMARK                            x       y       z     vdW  Elec       q    Type
DOCKED: REMARK                         _______ _______ _______ _____ _____    ______ ____
DOCKED: USER                              x       y       z     vdW  Elec       q    Type
DOCKED: USER                           _______ _______ _______ _____ _____    ______ ____
DOCKED: ROOT
DOCKED: ATOM      1  N   UNL     1      27.482 -16.489  -2.043 -0.33 -0.00    +0.000 N 
DOCKED: ATOM      2  C   UNL     1      28.586 -16.547  -2.966 -0.23 -0.00    +0.000 C 
DOCKED: ATOM      3  C   UNL     1      28.686 -15.558  -4.064 -0.26 -0.00    +0.000 A 
DOCKED: ATOM      4  C   UNL     1      29.775 -15.586  -4.953 -0.22 -0.00    +0.000 A 
DOCKED: ATOM      5  C   UNL     1      29.870 -14.655  -5.988 -0.22 -0.00    +0.000 A 
DOCKED: ATOM      6  C   UNL     1      28.884 -13.682  -6.152 -0.25 -0.00    +0.000 A 
DOCKED: ATOM      7  C   UNL     1      27.787 -13.635  -5.280 -0.26 -0.00    +0.000 A 
DOCKED: ATOM      8  C   UNL     1      26.795 -12.659  -5.448 -0.09 -0.00    +0.000 A 
DOCKED: ATOM      9  C   UNL     1      25.702 -12.613  -4.582 -0.26 -0.00    +0.000 A 
DOCKED: ATOM     10  C   UNL     1      25.589 -13.536  -3.542 -0.19 -0.00    +0.000 A 
DOCKED: ATOM     11  C   UNL     1      26.573 -14.523  -3.351 -0.36 -0.00    +0.000 A 
DOCKED: ATOM     12  C   UNL     1      27.682 -14.577  -4.224 -0.29 -0.00    +0.000 A 
DOCKED: ATOM     13  O   UNL     1      29.467 -17.443  -2.843 -0.26 -0.00    +0.000 OA
DOCKED: ATOM     14  C   UNL     1      26.452 -15.502  -2.247 -0.42 -0.00    +0.000 C 
DOCKED: ATOM     15  O   UNL     1      25.444 -15.472  -1.487 -0.48 -0.00    +0.000 OA
DOCKED: ENDROOT
DOCKED: BRANCH   1  16
DOCKED: ATOM     16  C   UNL     1      27.353 -17.489  -0.973 -0.46 -0.00    +0.000 C 
DOCKED: BRANCH  16  17
DOCKED: ATOM     17  C   UNL     1      25.961 -18.126  -1.009 -0.51 -0.00    +0.000 C 
DOCKED: BRANCH  17  18
DOCKED: ATOM     18  C   UNL     1      25.394 -18.295   0.404 -0.44 -0.00    +0.000 C 
DOCKED: BRANCH  18  19
DOCKED: ATOM     19  C   UNL     1      23.859 -18.240   0.392 -0.50 -0.00    +0.000 C 
DOCKED: BRANCH  19  20
DOCKED: ATOM     20  C   UNL     1      23.296 -17.975  -1.011 -0.79 -0.00    +0.000 C 
DOCKED: BRANCH  20  22
DOCKED: ATOM     21  O   UNL     1      21.004 -17.367  -0.711 -1.98 +0.00    +0.000 OA
DOCKED: ATOM     22  C   UNL     1      21.822 -18.251  -1.082 -0.73 -0.00    +0.000 C 
DOCKED: ATOM     23  N   UNL     1      21.342 -19.494  -1.599 -0.66 -0.00    +0.000 N 
DOCKED: ATOM     24  O   UNL     1      20.013 -19.736  -1.679 -2.34 -0.00    +0.000 OA
DOCKED: ATOM     25  H   UNL     1      21.982 -20.180  -1.899 -0.48 -0.00    +0.000 HD
DOCKED: ENDBRANCH  20  22
DOCKED: ENDBRANCH  19  20
DOCKED: ENDBRANCH  18  19
DOCKED: ENDBRANCH  17  18
DOCKED: ENDBRANCH  16  17
DOCKED: ENDBRANCH   1  16
DOCKED: TORSDOF 6
DOCKED: TER
DOCKED: ENDMDL
________________________________________________________________________________


	BEGINNING GENETIC ALGORITHM DOCKING 44 of 100
Run: 44 Seed: 505322010 1355847367 [ Run 44 of 100 GA/GALS ]
Beginning LAMARCKIAN GENETIC ALGORITHM (LGA), with a maximum of 2500000 energy evaluations.

Final-Value: -13.266


	FINAL GENETIC ALGORITHM DOCKED STATE
	_______________________________________________


Detailed state:  trans 25.454 -15.837 -2.337 quatxyzw 0.205133 -0.029625 0.977331 0.043215 center -0.011 0.081 -0.051 ntor 6 153.3709 -162.4203 -28.4085 151.3427 36.2060 -44.7645
State:	 25.454 -15.837  -2.337   0.205 -0.030  0.978 175.046    153.37 -162.42  -28.41  151.34   36.21  -44.76

DOCKED: MODEL       44
DOCKED: USER    Run = 44
DOCKED: USER    DPF = ligand_dock.biased.dpf
DOCKED: USER  
DOCKED: USER    Estimated Free Energy of Binding    =  -10.94 kcal/mol  [=(1)+(2)+(3)-(4)]
DOCKED: USER    Estimated Inhibition Constant, Ki   =    9.63 nM (nanomolar)  [Temperature = 298.15 K]
DOCKED: USER    
DOCKED: USER    (1) Final Intermolecular Energy     =  -12.73 kcal/mol
DOCKED: USER        vdW + Hbond + desolv Energy     =  -12.73 kcal/mol
DOCKED: USER        Electrostatic Energy            =   +0.00 kcal/mol
DOCKED: USER    (2) Final Total Internal Energy     =   -0.54 kcal/mol
DOCKED: USER    (3) Torsional Free Energy           =   +1.79 kcal/mol
DOCKED: USER    (4) Unbound System's Energy  [=(2)] =   -0.54 kcal/mol
DOCKED: USER    
DOCKED: USER    
DOCKED: USER    NEWDPF move ligand.pdbqt
DOCKED: USER    NEWDPF about -0.011000 0.081000 -0.051000
DOCKED: USER    NEWDPF tran0 25.454092 -15.837235 -2.337497
DOCKED: USER    NEWDPF quaternion0 0.205133 -0.029625 0.977331 0.043215
DOCKED: USER    NEWDPF axisangle0 0.205325 -0.029652 0.978244 175.046372
DOCKED: USER    NEWDPF quat0 0.205325 -0.029652 0.978244 175.046372
DOCKED: USER    NEWDPF dihe0 153.37 -162.42 -28.41 151.34 36.21 -44.76 
DOCKED: USER  keepresnum = 1 
DOCKED: USER  
DOCKED: REMARK  Name = 
DOCKED: REMARK  6 active torsions:
DOCKED: REMARK  status: ('A' for Active; 'I' for Inactive)
DOCKED: REMARK    1  A    between atoms: C_2  and  C_5
DOCKED: REMARK    2  A    between atoms: C_5  and  C_6
DOCKED: REMARK    3  A    between atoms: C_6  and  C_7
DOCKED: REMARK    4  A    between atoms: C_7  and  C_8
DOCKED: REMARK    5  A    between atoms: C_8  and  C_9
DOCKED: REMARK    6  A    between atoms: C_9  and  N_10
DOCKED: REMARK                            x       y       z     vdW  Elec       q    Type
DOCKED: REMARK                         _______ _______ _______ _____ _____    ______ ____
DOCKED: USER                              x       y       z     vdW  Elec       q    Type
DOCKED: USER                           _______ _______ _______ _____ _____    ______ ____
DOCKED: ROOT
DOCKED: ATOM      1  N   UNL     1      26.021 -16.464  -2.701 -0.44 -0.00    +0.000 N 
DOCKED: ATOM      2  C   UNL     1      26.158 -15.590  -3.836 -0.55 -0.00    +0.000 C 
DOCKED: ATOM      3  C   UNL     1      27.505 -15.192  -4.305 -0.37 -0.00    +0.000 A 
DOCKED: ATOM      4  C   UNL     1      27.653 -14.362  -5.431 -0.33 -0.00    +0.000 A 
DOCKED: ATOM      5  C   UNL     1      28.922 -13.987  -5.874 -0.25 -0.00    +0.000 A 
DOCKED: ATOM      6  C   UNL     1      30.061 -14.431  -5.203 -0.13 -0.00    +0.000 A 
DOCKED: ATOM      7  C   UNL     1      29.940 -15.256  -4.077 -0.13 -0.00    +0.000 A 
DOCKED: ATOM      8  C   UNL     1      31.086 -15.699  -3.401 -0.06 -0.00    +0.000 A 
DOCKED: ATOM      9  C   UNL     1      30.966 -16.519  -2.279 -0.09 -0.00    +0.000 A 
DOCKED: ATOM     10  C   UNL     1      29.706 -16.905  -1.821 -0.21 -0.00    +0.000 A 
DOCKED: ATOM     11  C   UNL     1      28.541 -16.476  -2.482 -0.24 -0.00    +0.000 A 
DOCKED: ATOM     12  C   UNL     1      28.654 -15.645  -3.619 -0.23 -0.00    +0.000 A 
DOCKED: ATOM     13  O   UNL     1      25.131 -15.159  -4.431 -0.89 -0.00    +0.000 OA
DOCKED: ATOM     14  C   UNL     1      27.204 -16.885  -1.996 -0.30 -0.00    +0.000 C 
DOCKED: ATOM     15  O   UNL     1      27.104 -17.602  -0.961 -0.54 -0.00    +0.000 OA
DOCKED: ENDROOT
DOCKED: BRANCH   1  16
DOCKED: ATOM     16  C   UNL     1      24.687 -16.835  -2.204 -0.50 -0.00    +0.000 C 
DOCKED: BRANCH  16  17
DOCKED: ATOM     17  C   UNL     1      24.624 -16.665  -0.684 -0.53 -0.00    +0.000 C 
DOCKED: BRANCH  17  18
DOCKED: ATOM     18  C   UNL     1      23.762 -17.758  -0.041 -0.60 -0.00    +0.000 C 
DOCKED: BRANCH  18  19
DOCKED: ATOM     19  C   UNL     1      22.683 -18.252  -1.016 -0.81 -0.00    +0.000 C 
DOCKED: BRANCH  19  20
DOCKED: ATOM     20  C   UNL     1      22.227 -19.684  -0.704 -0.44 -0.00    +0.000 C 
DOCKED: BRANCH  20  22
DOCKED: ATOM     21  O   UNL     1      20.038 -19.725  -1.661 -2.32 -0.00    +0.000 OA
DOCKED: ATOM     22  C   UNL     1      20.733 -19.786  -0.612 -0.80 -0.00    +0.000 C 
DOCKED: ATOM     23  N   UNL     1      20.097 -19.987   0.652 -0.71 -0.00    +0.000 N 
DOCKED: ATOM     24  O   UNL     1      18.751 -20.095   0.734 -0.81 -0.00    +0.000 OA
DOCKED: ATOM     25  H   UNL     1      20.642 -20.046   1.471 -0.43 -0.00    +0.000 HD
DOCKED: ENDBRANCH  20  22
DOCKED: ENDBRANCH  19  20
DOCKED: ENDBRANCH  18  19
DOCKED: ENDBRANCH  17  18
DOCKED: ENDBRANCH  16  17
DOCKED: ENDBRANCH   1  16
DOCKED: TORSDOF 6
DOCKED: TER
DOCKED: ENDMDL
________________________________________________________________________________


	BEGINNING GENETIC ALGORITHM DOCKING 45 of 100
Run: 45 Seed: 400665236 1602493792 [ Run 45 of 100 GA/GALS ]
Beginning LAMARCKIAN GENETIC ALGORITHM (LGA), with a maximum of 2500000 energy evaluations.

Final-Value: -14.620


	FINAL GENETIC ALGORITHM DOCKED STATE
	_______________________________________________


Detailed state:  trans 26.139 -15.167 -1.525 quatxyzw 0.386129 0.018119 0.915989 -0.107426 center -0.011 0.081 -0.051 ntor 6 -117.9679 -173.5372 -178.2555 -47.1351 -104.1392 163.7852
State:	 26.139 -15.167  -1.525   0.388  0.018  0.921 -167.666   -117.97 -173.54 -178.26  -47.14 -104.14  163.79

DOCKED: MODEL       45
DOCKED: USER    Run = 45
DOCKED: USER    DPF = ligand_dock.biased.dpf
DOCKED: USER  
DOCKED: USER    Estimated Free Energy of Binding    =  -11.95 kcal/mol  [=(1)+(2)+(3)-(4)]
DOCKED: USER    Estimated Inhibition Constant, Ki   =    1.74 nM (nanomolar)  [Temperature = 298.15 K]
DOCKED: USER    
DOCKED: USER    (1) Final Intermolecular Energy     =  -13.74 kcal/mol
DOCKED: USER        vdW + Hbond + desolv Energy     =  -13.74 kcal/mol
DOCKED: USER        Electrostatic Energy            =   +0.00 kcal/mol
DOCKED: USER    (2) Final Total Internal Energy     =   -0.88 kcal/mol
DOCKED: USER    (3) Torsional Free Energy           =   +1.79 kcal/mol
DOCKED: USER    (4) Unbound System's Energy  [=(2)] =   -0.88 kcal/mol
DOCKED: USER    
DOCKED: USER    
DOCKED: USER    NEWDPF move ligand.pdbqt
DOCKED: USER    NEWDPF about -0.011000 0.081000 -0.051000
DOCKED: USER    NEWDPF tran0 26.139331 -15.166710 -1.525156
DOCKED: USER    NEWDPF quaternion0 0.386129 0.018119 0.915989 -0.107426
DOCKED: USER    NEWDPF axisangle0 0.388377 0.018224 0.921320 -167.666039
DOCKED: USER    NEWDPF quat0 0.388377 0.018224 0.921320 -167.666039
DOCKED: USER    NEWDPF dihe0 -117.97 -173.54 -178.26 -47.14 -104.14 163.79 
DOCKED: USER  keepresnum = 1 
DOCKED: USER  
DOCKED: REMARK  Name = 
DOCKED: REMARK  6 active torsions:
DOCKED: REMARK  status: ('A' for Active; 'I' for Inactive)
DOCKED: REMARK    1  A    between atoms: C_2  and  C_5
DOCKED: REMARK    2  A    between atoms: C_5  and  C_6
DOCKED: REMARK    3  A    between atoms: C_6  and  C_7
DOCKED: REMARK    4  A    between atoms: C_7  and  C_8
DOCKED: REMARK    5  A    between atoms: C_8  and  C_9
DOCKED: REMARK    6  A    between atoms: C_9  and  N_10
DOCKED: REMARK                            x       y       z     vdW  Elec       q    Type
DOCKED: REMARK                         _______ _______ _______ _____ _____    ______ ____
DOCKED: USER                              x       y       z     vdW  Elec       q    Type
DOCKED: USER                           _______ _______ _______ _____ _____    ______ ____
DOCKED: ROOT
DOCKED: ATOM      1  N   UNL     1      26.365 -15.965  -1.922 -0.40 -0.00    +0.000 N 
DOCKED: ATOM      2  C   UNL     1      26.232 -15.298  -3.192 -0.50 -0.00    +0.000 C 
DOCKED: ATOM      3  C   UNL     1      27.337 -15.353  -4.176 -0.36 -0.00    +0.000 A 
DOCKED: ATOM      4  C   UNL     1      27.208 -14.731  -5.431 -0.30 -0.00    +0.000 A 
DOCKED: ATOM      5  C   UNL     1      28.249 -14.783  -6.359 -0.30 -0.00    +0.000 A 
DOCKED: ATOM      6  C   UNL     1      29.433 -15.452  -6.052 -0.32 -0.00    +0.000 A 
DOCKED: ATOM      7  C   UNL     1      29.587 -16.078  -4.807 -0.26 -0.00    +0.000 A 
DOCKED: ATOM      8  C   UNL     1      30.780 -16.748  -4.498 -0.17 -0.00    +0.000 A 
DOCKED: ATOM      9  C   UNL     1      30.934 -17.369  -3.258 -0.15 -0.00    +0.000 A 
DOCKED: ATOM     10  C   UNL     1      29.905 -17.328  -2.317 -0.17 -0.00    +0.000 A 
DOCKED: ATOM     11  C   UNL     1      28.699 -16.665  -2.604 -0.23 -0.00    +0.000 A 
DOCKED: ATOM     12  C   UNL     1      28.534 -16.033  -3.856 -0.22 -0.00    +0.000 A 
DOCKED: ATOM     13  O   UNL     1      25.176 -14.664  -3.466 -0.77 -0.00    +0.000 OA
DOCKED: ATOM     14  C   UNL     1      27.607 -16.622  -1.605 -0.38 -0.00    +0.000 C 
DOCKED: ATOM     15  O   UNL     1      27.768 -17.160  -0.474 -0.45 -0.00    +0.000 OA
DOCKED: ENDROOT
DOCKED: BRANCH   1  16
DOCKED: ATOM     16  C   UNL     1      25.289 -15.885  -0.923 -0.44 -0.00    +0.000 C 
DOCKED: BRANCH  16  17
DOCKED: ATOM     17  C   UNL     1      24.133 -16.808  -1.317 -0.62 -0.00    +0.000 C 
DOCKED: BRANCH  17  18
DOCKED: ATOM     18  C   UNL     1      24.475 -18.275  -1.035 -0.75 -0.00    +0.000 C 
DOCKED: BRANCH  18  19
DOCKED: ATOM     19  C   UNL     1      23.319 -18.981  -0.312 -0.67 -0.00    +0.000 C 
DOCKED: BRANCH  19  20
DOCKED: ATOM     20  C   UNL     1      22.085 -18.081  -0.168 -0.79 -0.00    +0.000 C 
DOCKED: BRANCH  20  22
DOCKED: ATOM     21  O   UNL     1      19.739 -18.236  -0.599 -1.65 -0.00    +0.000 OA
DOCKED: ATOM     22  C   UNL     1      20.895 -18.646  -0.888 -0.82 -0.00    +0.000 C 
DOCKED: ATOM     23  N   UNL     1      21.069 -19.617  -1.922 -0.55 -0.00    +0.000 N 
DOCKED: ATOM     24  O   UNL     1      19.999 -20.113  -2.584 -1.95 -0.00    +0.000 OA
DOCKED: ATOM     25  H   UNL     1      21.974 -19.927  -2.155 -0.52 -0.00    +0.000 HD
DOCKED: ENDBRANCH  20  22
DOCKED: ENDBRANCH  19  20
DOCKED: ENDBRANCH  18  19
DOCKED: ENDBRANCH  17  18
DOCKED: ENDBRANCH  16  17
DOCKED: ENDBRANCH   1  16
DOCKED: TORSDOF 6
DOCKED: TER
DOCKED: ENDMDL
________________________________________________________________________________


	BEGINNING GENETIC ALGORITHM DOCKING 46 of 100
Run: 46 Seed: 1708634825 1384430780 [ Run 46 of 100 GA/GALS ]
Beginning LAMARCKIAN GENETIC ALGORITHM (LGA), with a maximum of 2500000 energy evaluations.

Final-Value: -12.985


	FINAL GENETIC ALGORITHM DOCKED STATE
	_______________________________________________


Detailed state:  trans 26.482 -16.403 -0.280 quatxyzw 0.104356 -0.557219 0.672803 0.475346 center -0.011 0.081 -0.051 ntor 6 -47.2776 -53.4196 49.9390 178.9062 -49.2272 -27.0866
State:	 26.482 -16.403  -0.280   0.119 -0.633  0.765 123.236    -47.28  -53.42   49.94  178.91  -49.23  -27.09

DOCKED: MODEL       46
DOCKED: USER    Run = 46
DOCKED: USER    DPF = ligand_dock.biased.dpf
DOCKED: USER  
DOCKED: USER    Estimated Free Energy of Binding    =  -10.29 kcal/mol  [=(1)+(2)+(3)-(4)]
DOCKED: USER    Estimated Inhibition Constant, Ki   =   28.67 nM (nanomolar)  [Temperature = 298.15 K]
DOCKED: USER    
DOCKED: USER    (1) Final Intermolecular Energy     =  -12.08 kcal/mol
DOCKED: USER        vdW + Hbond + desolv Energy     =  -12.08 kcal/mol
DOCKED: USER        Electrostatic Energy            =   +0.00 kcal/mol
DOCKED: USER    (2) Final Total Internal Energy     =   -0.91 kcal/mol
DOCKED: USER    (3) Torsional Free Energy           =   +1.79 kcal/mol
DOCKED: USER    (4) Unbound System's Energy  [=(2)] =   -0.91 kcal/mol
DOCKED: USER    
DOCKED: USER    
DOCKED: USER    NEWDPF move ligand.pdbqt
DOCKED: USER    NEWDPF about -0.011000 0.081000 -0.051000
DOCKED: USER    NEWDPF tran0 26.481786 -16.403043 -0.280033
DOCKED: USER    NEWDPF quaternion0 0.104356 -0.557219 0.672803 0.475346
DOCKED: USER    NEWDPF axisangle0 0.118613 -0.633348 0.764723 123.236260
DOCKED: USER    NEWDPF quat0 0.118613 -0.633348 0.764723 123.236260
DOCKED: USER    NEWDPF dihe0 -47.28 -53.42 49.94 178.91 -49.23 -27.09 
DOCKED: USER  keepresnum = 1 
DOCKED: USER  
DOCKED: REMARK  Name = 
DOCKED: REMARK  6 active torsions:
DOCKED: REMARK  status: ('A' for Active; 'I' for Inactive)
DOCKED: REMARK    1  A    between atoms: C_2  and  C_5
DOCKED: REMARK    2  A    between atoms: C_5  and  C_6
DOCKED: REMARK    3  A    between atoms: C_6  and  C_7
DOCKED: REMARK    4  A    between atoms: C_7  and  C_8
DOCKED: REMARK    5  A    between atoms: C_8  and  C_9
DOCKED: REMARK    6  A    between atoms: C_9  and  N_10
DOCKED: REMARK                            x       y       z     vdW  Elec       q    Type
DOCKED: REMARK                         _______ _______ _______ _____ _____    ______ ____
DOCKED: USER                              x       y       z     vdW  Elec       q    Type
DOCKED: USER                           _______ _______ _______ _____ _____    ______ ____
DOCKED: ROOT
DOCKED: ATOM      1  N   UNL     1      27.108 -15.848  -0.661 -0.33 -0.00    +0.000 N 
DOCKED: ATOM      2  C   UNL     1      26.369 -14.741  -0.110 -0.27 -0.00    +0.000 C 
DOCKED: ATOM      3  C   UNL     1      27.063 -13.726   0.714 -0.27 -0.00    +0.000 A 
DOCKED: ATOM      4  C   UNL     1      26.359 -12.624   1.234 -0.33 -0.00    +0.000 A 
DOCKED: ATOM      5  C   UNL     1      27.012 -11.667   2.010 -0.27 +0.00    +0.000 A 
DOCKED: ATOM      6  C   UNL     1      28.374 -11.791   2.282 -0.14 -0.00    +0.000 A 
DOCKED: ATOM      7  C   UNL     1      29.098 -12.881   1.779 -0.11 -0.00    +0.000 A 
DOCKED: ATOM      8  C   UNL     1      30.466 -13.007   2.056 -0.06 -0.00    +0.000 A 
DOCKED: ATOM      9  C   UNL     1      31.186 -14.092   1.556 -0.08 -0.00    +0.000 A 
DOCKED: ATOM     10  C   UNL     1      30.551 -15.060   0.777 -0.11 -0.00    +0.000 A 
DOCKED: ATOM     11  C   UNL     1      29.180 -14.955   0.484 -0.15 -0.00    +0.000 A 
DOCKED: ATOM     12  C   UNL     1      28.443 -13.859   0.986 -0.18 -0.00    +0.000 A 
DOCKED: ATOM     13  O   UNL     1      25.130 -14.638  -0.326 -0.21 -0.00    +0.000 OA
DOCKED: ATOM     14  C   UNL     1      28.506 -15.983  -0.342 -0.27 -0.00    +0.000 C 
DOCKED: ATOM     15  O   UNL     1      29.159 -16.978  -0.764 -0.31 -0.00    +0.000 OA
DOCKED: ENDROOT
DOCKED: BRANCH   1  16
DOCKED: ATOM     16  C   UNL     1      26.422 -16.882  -1.450 -0.51 -0.00    +0.000 C 
DOCKED: BRANCH  16  17
DOCKED: ATOM     17  C   UNL     1      26.479 -18.227  -0.722 -0.54 -0.00    +0.000 C 
DOCKED: BRANCH  17  18
DOCKED: ATOM     18  C   UNL     1      25.092 -18.876  -0.651 -0.36 -0.00    +0.000 C 
DOCKED: BRANCH  18  19
DOCKED: ATOM     19  C   UNL     1      24.032 -17.984  -1.313 -0.76 -0.00    +0.000 C 
DOCKED: BRANCH  19  20
DOCKED: ATOM     20  C   UNL     1      22.840 -17.709  -0.387 -0.78 -0.00    +0.000 C 
DOCKED: BRANCH  20  22
DOCKED: ATOM     21  O   UNL     1      20.577 -17.359  -1.070 -1.98 -0.00    +0.000 OA
DOCKED: ATOM     22  C   UNL     1      21.545 -18.162  -0.996 -0.70 -0.00    +0.000 C 
DOCKED: ATOM     23  N   UNL     1      21.415 -19.484  -1.523 -0.68 -0.00    +0.000 N 
DOCKED: ATOM     24  O   UNL     1      20.253 -19.886  -2.087 -2.31 -0.00    +0.000 OA
DOCKED: ATOM     25  H   UNL     1      22.176 -20.107  -1.474 -0.38 -0.00    +0.000 HD
DOCKED: ENDBRANCH  20  22
DOCKED: ENDBRANCH  19  20
DOCKED: ENDBRANCH  18  19
DOCKED: ENDBRANCH  17  18
DOCKED: ENDBRANCH  16  17
DOCKED: ENDBRANCH   1  16
DOCKED: TORSDOF 6
DOCKED: TER
DOCKED: ENDMDL
________________________________________________________________________________


	BEGINNING GENETIC ALGORITHM DOCKING 47 of 100
Run: 47 Seed: 335872574 1786497380 [ Run 47 of 100 GA/GALS ]
Beginning LAMARCKIAN GENETIC ALGORITHM (LGA), with a maximum of 2500000 energy evaluations.

Final-Value: -13.855


	FINAL GENETIC ALGORITHM DOCKED STATE
	_______________________________________________


Detailed state:  trans 25.902 -15.213 -1.898 quatxyzw -0.321456 0.015456 -0.941391 0.101048 center -0.011 0.081 -0.051 ntor 6 180.0000 -96.5826 -86.4971 -55.3425 -68.6190 -174.5712
State:	 25.902 -15.213  -1.898  -0.323  0.016 -0.946 168.401    180.00  -96.58  -86.50  -55.34  -68.62 -174.57

DOCKED: MODEL       47
DOCKED: USER    Run = 47
DOCKED: USER    DPF = ligand_dock.biased.dpf
DOCKED: USER  
DOCKED: USER    Estimated Free Energy of Binding    =  -11.40 kcal/mol  [=(1)+(2)+(3)-(4)]
DOCKED: USER    Estimated Inhibition Constant, Ki   =    4.42 nM (nanomolar)  [Temperature = 298.15 K]
DOCKED: USER    
DOCKED: USER    (1) Final Intermolecular Energy     =  -13.19 kcal/mol
DOCKED: USER        vdW + Hbond + desolv Energy     =  -13.19 kcal/mol
DOCKED: USER        Electrostatic Energy            =   +0.00 kcal/mol
DOCKED: USER    (2) Final Total Internal Energy     =   -0.67 kcal/mol
DOCKED: USER    (3) Torsional Free Energy           =   +1.79 kcal/mol
DOCKED: USER    (4) Unbound System's Energy  [=(2)] =   -0.67 kcal/mol
DOCKED: USER    
DOCKED: USER    
DOCKED: USER    NEWDPF move ligand.pdbqt
DOCKED: USER    NEWDPF about -0.011000 0.081000 -0.051000
DOCKED: USER    NEWDPF tran0 25.902259 -15.213174 -1.898276
DOCKED: USER    NEWDPF quaternion0 -0.321456 0.015456 -0.941391 0.101048
DOCKED: USER    NEWDPF axisangle0 -0.323110 0.015535 -0.946234 168.400932
DOCKED: USER    NEWDPF quat0 -0.323110 0.015535 -0.946234 168.400932
DOCKED: USER    NEWDPF dihe0 180.00 -96.58 -86.50 -55.34 -68.62 -174.57 
DOCKED: USER  keepresnum = 1 
DOCKED: USER  
DOCKED: REMARK  Name = 
DOCKED: REMARK  6 active torsions:
DOCKED: REMARK  status: ('A' for Active; 'I' for Inactive)
DOCKED: REMARK    1  A    between atoms: C_2  and  C_5
DOCKED: REMARK    2  A    between atoms: C_5  and  C_6
DOCKED: REMARK    3  A    between atoms: C_6  and  C_7
DOCKED: REMARK    4  A    between atoms: C_7  and  C_8
DOCKED: REMARK    5  A    between atoms: C_8  and  C_9
DOCKED: REMARK    6  A    between atoms: C_9  and  N_10
DOCKED: REMARK                            x       y       z     vdW  Elec       q    Type
DOCKED: REMARK                         _______ _______ _______ _____ _____    ______ ____
DOCKED: USER                              x       y       z     vdW  Elec       q    Type
DOCKED: USER                           _______ _______ _______ _____ _____    ______ ____
DOCKED: ROOT
DOCKED: ATOM      1  N   UNL     1      26.181 -15.992  -2.301 -0.43 -0.00    +0.000 N 
DOCKED: ATOM      2  C   UNL     1      26.235 -15.258  -3.539 -0.53 -0.00    +0.000 C 
DOCKED: ATOM      3  C   UNL     1      27.471 -15.272  -4.354 -0.37 -0.00    +0.000 A 
DOCKED: ATOM      4  C   UNL     1      27.526 -14.583  -5.579 -0.33 -0.00    +0.000 A 
DOCKED: ATOM      5  C   UNL     1      28.690 -14.596  -6.349 -0.34 -0.00    +0.000 A 
DOCKED: ATOM      6  C   UNL     1      29.816 -15.293  -5.910 -0.27 -0.00    +0.000 A 
DOCKED: ATOM      7  C   UNL     1      29.787 -15.985  -4.692 -0.23 -0.00    +0.000 A 
DOCKED: ATOM      8  C   UNL     1      30.920 -16.683  -4.250 -0.14 -0.00    +0.000 A 
DOCKED: ATOM      9  C   UNL     1      30.892 -17.370  -3.036 -0.14 -0.00    +0.000 A 
DOCKED: ATOM     10  C   UNL     1      29.738 -17.369  -2.253 -0.15 -0.00    +0.000 A 
DOCKED: ATOM     11  C   UNL     1      28.588 -16.678  -2.675 -0.21 -0.00    +0.000 A 
DOCKED: ATOM     12  C   UNL     1      28.607 -15.980  -3.902 -0.24 -0.00    +0.000 A 
DOCKED: ATOM     13  O   UNL     1      25.231 -14.599  -3.928 -0.89 -0.00    +0.000 OA
DOCKED: ATOM     14  C   UNL     1      27.363 -16.677  -1.843 -0.39 -0.00    +0.000 C 
DOCKED: ATOM     15  O   UNL     1      27.357 -17.276  -0.731 -0.50 -0.00    +0.000 OA
DOCKED: ENDROOT
DOCKED: BRANCH   1  16
DOCKED: ATOM     16  C   UNL     1      24.972 -15.954  -1.465 -0.44 -0.00    +0.000 C 
DOCKED: BRANCH  16  17
DOCKED: ATOM     17  C   UNL     1      24.109 -17.191  -1.728 -0.58 -0.00    +0.000 C 
DOCKED: BRANCH  17  18
DOCKED: ATOM     18  C   UNL     1      24.095 -18.123  -0.511 -0.77 -0.00    +0.000 C 
DOCKED: BRANCH  18  19
DOCKED: ATOM     19  C   UNL     1      22.658 -18.410  -0.054 -0.78 -0.00    +0.000 C 
DOCKED: BRANCH  19  20
DOCKED: ATOM     20  C   UNL     1      22.120 -19.733  -0.616 -0.39 -0.00    +0.000 C 
DOCKED: BRANCH  20  22
DOCKED: ATOM     21  O   UNL     1      19.888 -19.583  -1.457 -2.18 -0.00    +0.000 OA
DOCKED: ATOM     22  C   UNL     1      20.630 -19.836  -0.470 -0.81 -0.00    +0.000 C 
DOCKED: ATOM     23  N   UNL     1      20.050 -20.252   0.768 -0.69 -0.00    +0.000 N 
DOCKED: ATOM     24  O   UNL     1      18.708 -20.361   0.895 -0.80 -0.00    +0.000 OA
DOCKED: ATOM     25  H   UNL     1      20.632 -20.460   1.536 -0.55 -0.00    +0.000 HD
DOCKED: ENDBRANCH  20  22
DOCKED: ENDBRANCH  19  20
DOCKED: ENDBRANCH  18  19
DOCKED: ENDBRANCH  17  18
DOCKED: ENDBRANCH  16  17
DOCKED: ENDBRANCH   1  16
DOCKED: TORSDOF 6
DOCKED: TER
DOCKED: ENDMDL
________________________________________________________________________________


	BEGINNING GENETIC ALGORITHM DOCKING 48 of 100
Run: 48 Seed: 488910521 339503647 [ Run 48 of 100 GA/GALS ]
Beginning LAMARCKIAN GENETIC ALGORITHM (LGA), with a maximum of 2500000 energy evaluations.

Final-Value: -13.306


	FINAL GENETIC ALGORITHM DOCKED STATE
	_______________________________________________


Detailed state:  trans 25.175 -15.084 -2.319 quatxyzw -0.179125 0.113586 -0.910417 -0.355180 center -0.011 0.081 -0.051 ntor 6 149.2765 -70.2706 -129.8434 69.7081 56.8793 -27.2803
State:	 25.175 -15.084  -2.319  -0.192  0.122 -0.974 -138.391    149.28  -70.27 -129.84   69.71   56.88  -27.28

DOCKED: MODEL       48
DOCKED: USER    Run = 48
DOCKED: USER    DPF = ligand_dock.biased.dpf
DOCKED: USER  
DOCKED: USER    Estimated Free Energy of Binding    =  -10.74 kcal/mol  [=(1)+(2)+(3)-(4)]
DOCKED: USER    Estimated Inhibition Constant, Ki   =   13.32 nM (nanomolar)  [Temperature = 298.15 K]
DOCKED: USER    
DOCKED: USER    (1) Final Intermolecular Energy     =  -12.53 kcal/mol
DOCKED: USER        vdW + Hbond + desolv Energy     =  -12.53 kcal/mol
DOCKED: USER        Electrostatic Energy            =   +0.00 kcal/mol
DOCKED: USER    (2) Final Total Internal Energy     =   -0.77 kcal/mol
DOCKED: USER    (3) Torsional Free Energy           =   +1.79 kcal/mol
DOCKED: USER    (4) Unbound System's Energy  [=(2)] =   -0.77 kcal/mol
DOCKED: USER    
DOCKED: USER    
DOCKED: USER    NEWDPF move ligand.pdbqt
DOCKED: USER    NEWDPF about -0.011000 0.081000 -0.051000
DOCKED: USER    NEWDPF tran0 25.174933 -15.083616 -2.319205
DOCKED: USER    NEWDPF quaternion0 -0.179125 0.113586 -0.910417 -0.355180
DOCKED: USER    NEWDPF axisangle0 -0.191619 0.121508 -0.973919 -138.391071
DOCKED: USER    NEWDPF quat0 -0.191619 0.121508 -0.973919 -138.391071
DOCKED: USER    NEWDPF dihe0 149.28 -70.27 -129.84 69.71 56.88 -27.28 
DOCKED: USER  keepresnum = 1 
DOCKED: USER  
DOCKED: REMARK  Name = 
DOCKED: REMARK  6 active torsions:
DOCKED: REMARK  status: ('A' for Active; 'I' for Inactive)
DOCKED: REMARK    1  A    between atoms: C_2  and  C_5
DOCKED: REMARK    2  A    between atoms: C_5  and  C_6
DOCKED: REMARK    3  A    between atoms: C_6  and  C_7
DOCKED: REMARK    4  A    between atoms: C_7  and  C_8
DOCKED: REMARK    5  A    between atoms: C_8  and  C_9
DOCKED: REMARK    6  A    between atoms: C_9  and  N_10
DOCKED: REMARK                            x       y       z     vdW  Elec       q    Type
DOCKED: REMARK                         _______ _______ _______ _____ _____    ______ ____
DOCKED: USER                              x       y       z     vdW  Elec       q    Type
DOCKED: USER                           _______ _______ _______ _____ _____    ______ ____
DOCKED: ROOT
DOCKED: ATOM      1  N   UNL     1      25.973 -15.164  -2.769 -0.42 -0.00    +0.000 N 
DOCKED: ATOM      2  C   UNL     1      25.543 -14.069  -3.599 -0.48 -0.00    +0.000 C 
DOCKED: ATOM      3  C   UNL     1      26.417 -12.888  -3.778 -0.26 -0.00    +0.000 A 
DOCKED: ATOM      4  C   UNL     1      26.021 -11.825  -4.610 -0.29 -0.00    +0.000 A 
DOCKED: ATOM      5  C   UNL     1      26.845 -10.712  -4.780 -0.15 -0.00    +0.000 A 
DOCKED: ATOM      6  C   UNL     1      28.074 -10.639  -4.124 -0.06 -0.00    +0.000 A 
DOCKED: ATOM      7  C   UNL     1      28.490 -11.683  -3.287 -0.06 -0.00    +0.000 A 
DOCKED: ATOM      8  C   UNL     1      29.724 -11.608  -2.626 -0.02 -0.00    +0.000 A 
DOCKED: ATOM      9  C   UNL     1      30.138 -12.646  -1.792 -0.02 -0.00    +0.000 A 
DOCKED: ATOM     10  C   UNL     1      29.328 -13.768  -1.609 -0.06 -0.00    +0.000 A 
DOCKED: ATOM     11  C   UNL     1      28.087 -13.869  -2.263 -0.13 -0.00    +0.000 A 
DOCKED: ATOM     12  C   UNL     1      27.660 -12.821  -3.109 -0.13 -0.00    +0.000 A 
DOCKED: ATOM     13  O   UNL     1      24.419 -14.113  -4.172 -1.10 -0.00    +0.000 OA
DOCKED: ATOM     14  C   UNL     1      27.228 -15.059  -2.069 -0.30 -0.00    +0.000 C 
DOCKED: ATOM     15  O   UNL     1      27.597 -15.980  -1.288 -0.31 -0.00    +0.000 OA
DOCKED: ENDROOT
DOCKED: BRANCH   1  16
DOCKED: ATOM     16  C   UNL     1      25.097 -16.325  -2.554 -0.50 -0.00    +0.000 C 
DOCKED: BRANCH  16  17
DOCKED: ATOM     17  C   UNL     1      24.681 -16.409  -1.083 -0.55 -0.00    +0.000 C 
DOCKED: BRANCH  17  18
DOCKED: ATOM     18  C   UNL     1      25.070 -17.761  -0.476 -0.69 -0.00    +0.000 C 
DOCKED: BRANCH  18  19
DOCKED: ATOM     19  C   UNL     1      23.825 -18.615  -0.193 -0.69 -0.00    +0.000 C 
DOCKED: BRANCH  19  20
DOCKED: ATOM     20  C   UNL     1      22.929 -18.768  -1.429 -0.76 -0.00    +0.000 C 
DOCKED: BRANCH  20  22
DOCKED: ATOM     21  O   UNL     1      21.004 -17.547  -0.711 -2.09 -0.00    +0.000 OA
DOCKED: ATOM     22  C   UNL     1      21.473 -18.656  -1.079 -0.80 -0.00    +0.000 C 
DOCKED: ATOM     23  N   UNL     1      20.612 -19.791  -1.195 -0.79 -0.00    +0.000 N 
DOCKED: ATOM     24  O   UNL     1      19.296 -19.686  -0.896 -1.63 -0.00    +0.000 OA
DOCKED: ATOM     25  H   UNL     1      20.977 -20.655  -1.494 -0.23 -0.00    +0.000 HD
DOCKED: ENDBRANCH  20  22
DOCKED: ENDBRANCH  19  20
DOCKED: ENDBRANCH  18  19
DOCKED: ENDBRANCH  17  18
DOCKED: ENDBRANCH  16  17
DOCKED: ENDBRANCH   1  16
DOCKED: TORSDOF 6
DOCKED: TER
DOCKED: ENDMDL
________________________________________________________________________________


	BEGINNING GENETIC ALGORITHM DOCKING 49 of 100
Run: 49 Seed: 91057328 876751785 [ Run 49 of 100 GA/GALS ]
Beginning LAMARCKIAN GENETIC ALGORITHM (LGA), with a maximum of 2500000 energy evaluations.

Final-Value: -13.963


	FINAL GENETIC ALGORITHM DOCKED STATE
	_______________________________________________


Detailed state:  trans 26.901 -16.701 -1.318 quatxyzw -0.016920 0.848189 0.207581 0.487032 center -0.011 0.081 -0.051 ntor 6 -13.7410 179.9213 -136.4509 -24.8494 134.6761 0.8403
State:	 26.901 -16.701  -1.318  -0.019  0.971  0.238 121.709    -13.74  179.92 -136.45  -24.85  134.68    0.84

DOCKED: MODEL       49
DOCKED: USER    Run = 49
DOCKED: USER    DPF = ligand_dock.biased.dpf
DOCKED: USER  
DOCKED: USER    Estimated Free Energy of Binding    =  -11.33 kcal/mol  [=(1)+(2)+(3)-(4)]
DOCKED: USER    Estimated Inhibition Constant, Ki   =    4.97 nM (nanomolar)  [Temperature = 298.15 K]
DOCKED: USER    
DOCKED: USER    (1) Final Intermolecular Energy     =  -13.12 kcal/mol
DOCKED: USER        vdW + Hbond + desolv Energy     =  -13.12 kcal/mol
DOCKED: USER        Electrostatic Energy            =   +0.00 kcal/mol
DOCKED: USER    (2) Final Total Internal Energy     =   -0.84 kcal/mol
DOCKED: USER    (3) Torsional Free Energy           =   +1.79 kcal/mol
DOCKED: USER    (4) Unbound System's Energy  [=(2)] =   -0.84 kcal/mol
DOCKED: USER    
DOCKED: USER    
DOCKED: USER    NEWDPF move ligand.pdbqt
DOCKED: USER    NEWDPF about -0.011000 0.081000 -0.051000
DOCKED: USER    NEWDPF tran0 26.901394 -16.700585 -1.317915
DOCKED: USER    NEWDPF quaternion0 -0.016920 0.848189 0.207581 0.487032
DOCKED: USER    NEWDPF axisangle0 -0.019373 0.971152 0.237675 121.708668
DOCKED: USER    NEWDPF quat0 -0.019373 0.971152 0.237675 121.708668
DOCKED: USER    NEWDPF dihe0 -13.74 179.92 -136.45 -24.85 134.68 0.84 
DOCKED: USER  keepresnum = 1 
DOCKED: USER  
DOCKED: REMARK  Name = 
DOCKED: REMARK  6 active torsions:
DOCKED: REMARK  status: ('A' for Active; 'I' for Inactive)
DOCKED: REMARK    1  A    between atoms: C_2  and  C_5
DOCKED: REMARK    2  A    between atoms: C_5  and  C_6
DOCKED: REMARK    3  A    between atoms: C_6  and  C_7
DOCKED: REMARK    4  A    between atoms: C_7  and  C_8
DOCKED: REMARK    5  A    between atoms: C_8  and  C_9
DOCKED: REMARK    6  A    between atoms: C_9  and  N_10
DOCKED: REMARK                            x       y       z     vdW  Elec       q    Type
DOCKED: REMARK                         _______ _______ _______ _____ _____    ______ ____
DOCKED: USER                              x       y       z     vdW  Elec       q    Type
DOCKED: USER                           _______ _______ _______ _____ _____    ______ ____
DOCKED: ROOT
DOCKED: ATOM      1  N   UNL     1      27.402 -15.956  -1.521 -0.30 -0.00    +0.000 N 
DOCKED: ATOM      2  C   UNL     1      28.463 -16.852  -1.901 -0.30 -0.00    +0.000 C 
DOCKED: ATOM      3  C   UNL     1      29.099 -16.723  -3.233 -0.20 -0.00    +0.000 A 
DOCKED: ATOM      4  C   UNL     1      30.157 -17.572  -3.605 -0.16 -0.00    +0.000 A 
DOCKED: ATOM      5  C   UNL     1      30.756 -17.451  -4.859 -0.22 -0.00    +0.000 A 
DOCKED: ATOM      6  C   UNL     1      30.312 -16.485  -5.761 -0.27 -0.00    +0.000 A 
DOCKED: ATOM      7  C   UNL     1      29.258 -15.628  -5.415 -0.30 -0.00    +0.000 A 
DOCKED: ATOM      8  C   UNL     1      28.810 -14.659  -6.324 -0.34 -0.00    +0.000 A 
DOCKED: ATOM      9  C   UNL     1      27.759 -13.808  -5.981 -0.20 -0.00    +0.000 A 
DOCKED: ATOM     10  C   UNL     1      27.147 -13.913  -4.732 -0.32 -0.00    +0.000 A 
DOCKED: ATOM     11  C   UNL     1      27.580 -14.875  -3.802 -0.29 -0.00    +0.000 A 
DOCKED: ATOM     12  C   UNL     1      28.642 -15.742  -4.141 -0.26 -0.00    +0.000 A 
DOCKED: ATOM     13  O   UNL     1      28.851 -17.749  -1.103 -0.37 -0.00    +0.000 OA
DOCKED: ATOM     14  C   UNL     1      26.929 -14.987  -2.476 -0.34 -0.00    +0.000 C 
DOCKED: ATOM     15  O   UNL     1      25.959 -14.233  -2.186 -0.36 -0.00    +0.000 OA
DOCKED: ENDROOT
DOCKED: BRANCH   1  16
DOCKED: ATOM     16  C   UNL     1      26.739 -16.099  -0.216 -0.39 -0.00    +0.000 C 
DOCKED: BRANCH  16  17
DOCKED: ATOM     17  C   UNL     1      25.589 -17.105  -0.315 -0.52 -0.00    +0.000 C 
DOCKED: BRANCH  17  18
DOCKED: ATOM     18  C   UNL     1      24.740 -16.851  -1.566 -0.64 -0.00    +0.000 C 
DOCKED: BRANCH  18  19
DOCKED: ATOM     19  C   UNL     1      24.013 -18.130  -2.007 -0.47 -0.00    +0.000 C 
DOCKED: BRANCH  19  20
DOCKED: ATOM     20  C   UNL     1      23.333 -18.849  -0.834 -0.81 -0.00    +0.000 C 
DOCKED: BRANCH  20  22
DOCKED: ATOM     21  O   UNL     1      21.212 -17.866  -0.337 -1.80 -0.00    +0.000 OA
DOCKED: ATOM     22  C   UNL     1      21.836 -18.783  -0.933 -0.84 -0.00    +0.000 C 
DOCKED: ATOM     23  N   UNL     1      21.121 -19.733  -1.725 -0.63 -0.00    +0.000 N 
DOCKED: ATOM     24  O   UNL     1      19.774 -19.665  -1.828 -2.25 -0.00    +0.000 OA
DOCKED: ATOM     25  H   UNL     1      21.611 -20.444  -2.200 -0.53 -0.00    +0.000 HD
DOCKED: ENDBRANCH  20  22
DOCKED: ENDBRANCH  19  20
DOCKED: ENDBRANCH  18  19
DOCKED: ENDBRANCH  17  18
DOCKED: ENDBRANCH  16  17
DOCKED: ENDBRANCH   1  16
DOCKED: TORSDOF 6
DOCKED: TER
DOCKED: ENDMDL
________________________________________________________________________________


	BEGINNING GENETIC ALGORITHM DOCKING 50 of 100
Run: 50 Seed: 666719826 1118144212 [ Run 50 of 100 GA/GALS ]
Beginning LAMARCKIAN GENETIC ALGORITHM (LGA), with a maximum of 2500000 energy evaluations.

Final-Value: -13.239


	FINAL GENETIC ALGORITHM DOCKED STATE
	_______________________________________________


Detailed state:  trans 26.087 -14.632 -2.274 quatxyzw 0.268534 0.262441 0.926343 0.030053 center -0.011 0.081 -0.051 ntor 6 33.9635 -101.2928 91.9388 100.5077 93.3142 -149.5171
State:	 26.087 -14.632  -2.274   0.269  0.263  0.927 176.556     33.96 -101.29   91.94  100.51   93.31 -149.52

DOCKED: MODEL       50
DOCKED: USER    Run = 50
DOCKED: USER    DPF = ligand_dock.biased.dpf
DOCKED: USER  
DOCKED: USER    Estimated Free Energy of Binding    =  -10.71 kcal/mol  [=(1)+(2)+(3)-(4)]
DOCKED: USER    Estimated Inhibition Constant, Ki   =   14.21 nM (nanomolar)  [Temperature = 298.15 K]
DOCKED: USER    
DOCKED: USER    (1) Final Intermolecular Energy     =  -12.50 kcal/mol
DOCKED: USER        vdW + Hbond + desolv Energy     =  -12.50 kcal/mol
DOCKED: USER        Electrostatic Energy            =   +0.00 kcal/mol
DOCKED: USER    (2) Final Total Internal Energy     =   -0.74 kcal/mol
DOCKED: USER    (3) Torsional Free Energy           =   +1.79 kcal/mol
DOCKED: USER    (4) Unbound System's Energy  [=(2)] =   -0.74 kcal/mol
DOCKED: USER    
DOCKED: USER    
DOCKED: USER    NEWDPF move ligand.pdbqt
DOCKED: USER    NEWDPF about -0.011000 0.081000 -0.051000
DOCKED: USER    NEWDPF tran0 26.086575 -14.632419 -2.274281
DOCKED: USER    NEWDPF quaternion0 0.268534 0.262441 0.926343 0.030053
DOCKED: USER    NEWDPF axisangle0 0.268655 0.262560 0.926762 176.555616
DOCKED: USER    NEWDPF quat0 0.268655 0.262560 0.926762 176.555616
DOCKED: USER    NEWDPF dihe0 33.96 -101.29 91.94 100.51 93.31 -149.52 
DOCKED: USER  keepresnum = 1 
DOCKED: USER  
DOCKED: REMARK  Name = 
DOCKED: REMARK  6 active torsions:
DOCKED: REMARK  status: ('A' for Active; 'I' for Inactive)
DOCKED: REMARK    1  A    between atoms: C_2  and  C_5
DOCKED: REMARK    2  A    between atoms: C_5  and  C_6
DOCKED: REMARK    3  A    between atoms: C_6  and  C_7
DOCKED: REMARK    4  A    between atoms: C_7  and  C_8
DOCKED: REMARK    5  A    between atoms: C_8  and  C_9
DOCKED: REMARK    6  A    between atoms: C_9  and  N_10
DOCKED: REMARK                            x       y       z     vdW  Elec       q    Type
DOCKED: REMARK                         _______ _______ _______ _____ _____    ______ ____
DOCKED: USER                              x       y       z     vdW  Elec       q    Type
DOCKED: USER                           _______ _______ _______ _____ _____    ______ ____
DOCKED: ROOT
DOCKED: ATOM      1  N   UNL     1      26.698 -15.318  -2.313 -0.32 -0.00    +0.000 N 
DOCKED: ATOM      2  C   UNL     1      26.621 -15.220  -3.748 -0.49 -0.00    +0.000 C 
DOCKED: ATOM      3  C   UNL     1      27.859 -15.068  -4.547 -0.34 -0.00    +0.000 A 
DOCKED: ATOM      4  C   UNL     1      27.799 -15.001  -5.951 -0.28 +0.00    +0.000 A 
DOCKED: ATOM      5  C   UNL     1      28.965 -14.859  -6.704 -0.31 -0.00    +0.000 A 
DOCKED: ATOM      6  C   UNL     1      30.206 -14.780  -6.073 -0.21 -0.00    +0.000 A 
DOCKED: ATOM      7  C   UNL     1      30.292 -14.841  -4.675 -0.10 -0.00    +0.000 A 
DOCKED: ATOM      8  C   UNL     1      31.539 -14.758  -4.041 -0.03 -0.00    +0.000 A 
DOCKED: ATOM      9  C   UNL     1      31.625 -14.818  -2.650 -0.02 -0.00    +0.000 A 
DOCKED: ATOM     10  C   UNL     1      30.471 -14.960  -1.879 -0.05 -0.00    +0.000 A 
DOCKED: ATOM     11  C   UNL     1      29.208 -15.048  -2.491 -0.12 -0.00    +0.000 A 
DOCKED: ATOM     12  C   UNL     1      29.112 -14.988  -3.899 -0.17 -0.00    +0.000 A 
DOCKED: ATOM     13  O   UNL     1      25.499 -15.260  -4.326 -0.83 -0.00    +0.000 OA
DOCKED: ATOM     14  C   UNL     1      27.983 -15.199  -1.673 -0.23 -0.00    +0.000 C 
DOCKED: ATOM     15  O   UNL     1      28.067 -15.220  -0.413 -0.25 -0.00    +0.000 OA
DOCKED: ENDROOT
DOCKED: BRANCH   1  16
DOCKED: ATOM     16  C   UNL     1      25.473 -15.432  -1.508 -0.42 -0.00    +0.000 C 
DOCKED: BRANCH  16  17
DOCKED: ATOM     17  C   UNL     1      25.518 -16.700  -0.653 -0.53 -0.00    +0.000 C 
DOCKED: BRANCH  17  18
DOCKED: ATOM     18  C   UNL     1      24.983 -17.909  -1.428 -0.64 -0.00    +0.000 C 
DOCKED: BRANCH  18  19
DOCKED: ATOM     19  C   UNL     1      23.447 -17.914  -1.448 -0.72 -0.00    +0.000 C 
DOCKED: BRANCH  19  20
DOCKED: ATOM     20  C   UNL     1      22.850 -18.570  -0.195 -0.80 -0.00    +0.000 C 
DOCKED: BRANCH  20  22
DOCKED: ATOM     21  O   UNL     1      20.641 -17.864  -0.772 -2.32 -0.00    +0.000 OA
DOCKED: ATOM     22  C   UNL     1      21.372 -18.791  -0.332 -0.83 -0.00    +0.000 C 
DOCKED: ATOM     23  N   UNL     1      20.795 -20.056  -0.001 -0.69 -0.00    +0.000 N 
DOCKED: ATOM     24  O   UNL     1      19.465 -20.261  -0.141 -1.23 -0.00    +0.000 OA
DOCKED: ATOM     25  H   UNL     1      21.369 -20.784   0.332 -0.56 -0.00    +0.000 HD
DOCKED: ENDBRANCH  20  22
DOCKED: ENDBRANCH  19  20
DOCKED: ENDBRANCH  18  19
DOCKED: ENDBRANCH  17  18
DOCKED: ENDBRANCH  16  17
DOCKED: ENDBRANCH   1  16
DOCKED: TORSDOF 6
DOCKED: TER
DOCKED: ENDMDL
________________________________________________________________________________


	BEGINNING GENETIC ALGORITHM DOCKING 51 of 100
Run: 51 Seed: 663128008 476206369 [ Run 51 of 100 GA/GALS ]
Beginning LAMARCKIAN GENETIC ALGORITHM (LGA), with a maximum of 2500000 energy evaluations.

Final-Value: -13.783


	FINAL GENETIC ALGORITHM DOCKED STATE
	_______________________________________________


Detailed state:  trans 25.815 -15.249 -1.526 quatxyzw -0.304846 -0.092306 -0.944326 0.082439 center -0.011 0.081 -0.051 ntor 6 86.2252 -173.8546 -69.6190 -19.3850 48.8731 -161.5998
State:	 25.815 -15.249  -1.526  -0.306 -0.093 -0.948 170.542     86.23 -173.85  -69.62  -19.39   48.87 -161.60

DOCKED: MODEL       51
DOCKED: USER    Run = 51
DOCKED: USER    DPF = ligand_dock.biased.dpf
DOCKED: USER  
DOCKED: USER    Estimated Free Energy of Binding    =  -11.36 kcal/mol  [=(1)+(2)+(3)-(4)]
DOCKED: USER    Estimated Inhibition Constant, Ki   =    4.70 nM (nanomolar)  [Temperature = 298.15 K]
DOCKED: USER    
DOCKED: USER    (1) Final Intermolecular Energy     =  -13.15 kcal/mol
DOCKED: USER        vdW + Hbond + desolv Energy     =  -13.15 kcal/mol
DOCKED: USER        Electrostatic Energy            =   +0.00 kcal/mol
DOCKED: USER    (2) Final Total Internal Energy     =   -0.63 kcal/mol
DOCKED: USER    (3) Torsional Free Energy           =   +1.79 kcal/mol
DOCKED: USER    (4) Unbound System's Energy  [=(2)] =   -0.63 kcal/mol
DOCKED: USER    
DOCKED: USER    
DOCKED: USER    NEWDPF move ligand.pdbqt
DOCKED: USER    NEWDPF about -0.011000 0.081000 -0.051000
DOCKED: USER    NEWDPF tran0 25.814665 -15.248801 -1.525735
DOCKED: USER    NEWDPF quaternion0 -0.304846 -0.092306 -0.944326 0.082439
DOCKED: USER    NEWDPF axisangle0 -0.305887 -0.092621 -0.947552 170.542485
DOCKED: USER    NEWDPF quat0 -0.305887 -0.092621 -0.947552 170.542485
DOCKED: USER    NEWDPF dihe0 86.23 -173.85 -69.62 -19.39 48.87 -161.60 
DOCKED: USER  keepresnum = 1 
DOCKED: USER  
DOCKED: REMARK  Name = 
DOCKED: REMARK  6 active torsions:
DOCKED: REMARK  status: ('A' for Active; 'I' for Inactive)
DOCKED: REMARK    1  A    between atoms: C_2  and  C_5
DOCKED: REMARK    2  A    between atoms: C_5  and  C_6
DOCKED: REMARK    3  A    between atoms: C_6  and  C_7
DOCKED: REMARK    4  A    between atoms: C_7  and  C_8
DOCKED: REMARK    5  A    between atoms: C_8  and  C_9
DOCKED: REMARK    6  A    between atoms: C_9  and  N_10
DOCKED: REMARK                            x       y       z     vdW  Elec       q    Type
DOCKED: REMARK                         _______ _______ _______ _____ _____    ______ ____
DOCKED: USER                              x       y       z     vdW  Elec       q    Type
DOCKED: USER                           _______ _______ _______ _____ _____    ______ ____
DOCKED: ROOT
DOCKED: ATOM      1  N   UNL     1      26.181 -16.057  -1.769 -0.42 -0.00    +0.000 N 
DOCKED: ATOM      2  C   UNL     1      26.186 -15.573  -3.126 -0.51 -0.00    +0.000 C 
DOCKED: ATOM      3  C   UNL     1      27.435 -15.614  -3.921 -0.31 -0.00    +0.000 A 
DOCKED: ATOM      4  C   UNL     1      27.446 -15.173  -5.256 -0.40 -0.00    +0.000 A 
DOCKED: ATOM      5  C   UNL     1      28.622 -15.211  -6.007 -0.36 -0.00    +0.000 A 
DOCKED: ATOM      6  C   UNL     1      29.803 -15.689  -5.439 -0.26 -0.00    +0.000 A 
DOCKED: ATOM      7  C   UNL     1      29.819 -16.132  -4.110 -0.20 -0.00    +0.000 A 
DOCKED: ATOM      8  C   UNL     1      31.007 -16.609  -3.539 -0.11 -0.00    +0.000 A 
DOCKED: ATOM      9  C   UNL     1      31.023 -17.049  -2.216 -0.12 -0.00    +0.000 A 
DOCKED: ATOM     10  C   UNL     1      29.858 -17.018  -1.449 -0.21 -0.00    +0.000 A 
DOCKED: ATOM     11  C   UNL     1      28.653 -16.546  -1.999 -0.25 -0.00    +0.000 A 
DOCKED: ATOM     12  C   UNL     1      28.628 -16.099  -3.338 -0.23 -0.00    +0.000 A 
DOCKED: ATOM     13  O   UNL     1      25.129 -15.111  -3.637 -0.78 -0.00    +0.000 OA
DOCKED: ATOM     14  C   UNL     1      27.416 -16.513  -1.185 -0.41 -0.00    +0.000 C 
DOCKED: ATOM     15  O   UNL     1      27.447 -16.884   0.021 -0.46 -0.00    +0.000 OA
DOCKED: ENDROOT
DOCKED: BRANCH   1  16
DOCKED: ATOM     16  C   UNL     1      24.956 -15.986  -0.959 -0.40 -0.00    +0.000 C 
DOCKED: BRANCH  16  17
DOCKED: ATOM     17  C   UNL     1      24.404 -17.392  -0.710 -0.71 -0.00    +0.000 C 
DOCKED: BRANCH  17  18
DOCKED: ATOM     18  C   UNL     1      22.905 -17.460  -1.021 -0.70 -0.00    +0.000 C 
DOCKED: BRANCH  18  19
DOCKED: ATOM     19  C   UNL     1      22.453 -18.912  -1.235 -0.78 -0.00    +0.000 C 
DOCKED: BRANCH  19  20
DOCKED: ATOM     20  C   UNL     1      21.492 -19.391  -0.138 -0.71 -0.00    +0.000 C 
DOCKED: BRANCH  20  22
DOCKED: ATOM     21  O   UNL     1      19.961 -19.735  -1.940 -2.38 -0.00    +0.000 OA
DOCKED: ATOM     22  C   UNL     1      20.143 -19.745  -0.694 -0.83 -0.00    +0.000 C 
DOCKED: ATOM     23  N   UNL     1      19.078 -20.126   0.179 -0.74 -0.00    +0.000 N 
DOCKED: ATOM     24  O   UNL     1      17.867 -20.462  -0.323 -0.85 -0.00    +0.000 OA
DOCKED: ATOM     25  H   UNL     1      19.225 -20.144   1.153 -0.03 -0.00    +0.000 HD
DOCKED: ENDBRANCH  20  22
DOCKED: ENDBRANCH  19  20
DOCKED: ENDBRANCH  18  19
DOCKED: ENDBRANCH  17  18
DOCKED: ENDBRANCH  16  17
DOCKED: ENDBRANCH   1  16
DOCKED: TORSDOF 6
DOCKED: TER
DOCKED: ENDMDL
________________________________________________________________________________


	BEGINNING GENETIC ALGORITHM DOCKING 52 of 100
Run: 52 Seed: 954178200 1614480848 [ Run 52 of 100 GA/GALS ]
Beginning LAMARCKIAN GENETIC ALGORITHM (LGA), with a maximum of 2500000 energy evaluations.

Final-Value: -13.226


	FINAL GENETIC ALGORITHM DOCKED STATE
	_______________________________________________


Detailed state:  trans 26.555 -16.163 -1.231 quatxyzw -0.410306 0.844817 -0.266849 0.216159 center -0.011 0.081 -0.051 ntor 6 -138.3669 -148.5190 162.4969 -90.0883 -35.7981 -32.0413
State:	 26.555 -16.163  -1.231  -0.420  0.865 -0.273 155.033   -138.37 -148.52  162.50  -90.09  -35.80  -32.04

DOCKED: MODEL       52
DOCKED: USER    Run = 52
DOCKED: USER    DPF = ligand_dock.biased.dpf
DOCKED: USER  
DOCKED: USER    Estimated Free Energy of Binding    =  -10.69 kcal/mol  [=(1)+(2)+(3)-(4)]
DOCKED: USER    Estimated Inhibition Constant, Ki   =   14.52 nM (nanomolar)  [Temperature = 298.15 K]
DOCKED: USER    
DOCKED: USER    (1) Final Intermolecular Energy     =  -12.48 kcal/mol
DOCKED: USER        vdW + Hbond + desolv Energy     =  -12.48 kcal/mol
DOCKED: USER        Electrostatic Energy            =   +0.00 kcal/mol
DOCKED: USER    (2) Final Total Internal Energy     =   -0.74 kcal/mol
DOCKED: USER    (3) Torsional Free Energy           =   +1.79 kcal/mol
DOCKED: USER    (4) Unbound System's Energy  [=(2)] =   -0.74 kcal/mol
DOCKED: USER    
DOCKED: USER    
DOCKED: USER    NEWDPF move ligand.pdbqt
DOCKED: USER    NEWDPF about -0.011000 0.081000 -0.051000
DOCKED: USER    NEWDPF tran0 26.555079 -16.163214 -1.230826
DOCKED: USER    NEWDPF quaternion0 -0.410306 0.844817 -0.266849 0.216159
DOCKED: USER    NEWDPF axisangle0 -0.420242 0.865274 -0.273310 155.032944
DOCKED: USER    NEWDPF quat0 -0.420242 0.865274 -0.273310 155.032944
DOCKED: USER    NEWDPF dihe0 -138.37 -148.52 162.50 -90.09 -35.80 -32.04 
DOCKED: USER  keepresnum = 1 
DOCKED: USER  
DOCKED: REMARK  Name = 
DOCKED: REMARK  6 active torsions:
DOCKED: REMARK  status: ('A' for Active; 'I' for Inactive)
DOCKED: REMARK    1  A    between atoms: C_2  and  C_5
DOCKED: REMARK    2  A    between atoms: C_5  and  C_6
DOCKED: REMARK    3  A    between atoms: C_6  and  C_7
DOCKED: REMARK    4  A    between atoms: C_7  and  C_8
DOCKED: REMARK    5  A    between atoms: C_8  and  C_9
DOCKED: REMARK    6  A    between atoms: C_9  and  N_10
DOCKED: REMARK                            x       y       z     vdW  Elec       q    Type
DOCKED: REMARK                         _______ _______ _______ _____ _____    ______ ____
DOCKED: USER                              x       y       z     vdW  Elec       q    Type
DOCKED: USER                           _______ _______ _______ _____ _____    ______ ____
DOCKED: ROOT
DOCKED: ATOM      1  N   UNL     1      26.349 -15.406  -1.712 -0.36 -0.00    +0.000 N 
DOCKED: ATOM      2  C   UNL     1      27.501 -14.787  -1.109 -0.26 -0.00    +0.000 C 
DOCKED: ATOM      3  C   UNL     1      28.528 -14.146  -1.962 -0.11 -0.00    +0.000 A 
DOCKED: ATOM      4  C   UNL     1      29.643 -13.512  -1.384 -0.04 -0.00    +0.000 A 
DOCKED: ATOM      5  C   UNL     1      30.610 -12.907  -2.187 -0.01 -0.00    +0.000 A 
DOCKED: ATOM      6  C   UNL     1      30.484 -12.925  -3.576 -0.02 -0.00    +0.000 A 
DOCKED: ATOM      7  C   UNL     1      29.384 -13.553  -4.176 -0.08 -0.00    +0.000 A 
DOCKED: ATOM      8  C   UNL     1      29.259 -13.573  -5.572 -0.16 -0.00    +0.000 A 
DOCKED: ATOM      9  C   UNL     1      28.165 -14.199  -6.170 -0.29 -0.00    +0.000 A 
DOCKED: ATOM     10  C   UNL     1      27.187 -14.810  -5.384 -0.33 -0.00    +0.000 A 
DOCKED: ATOM     11  C   UNL     1      27.288 -14.801  -3.982 -0.34 -0.00    +0.000 A 
DOCKED: ATOM     12  C   UNL     1      28.393 -14.170  -3.368 -0.14 -0.00    +0.000 A 
DOCKED: ATOM     13  O   UNL     1      27.639 -14.794   0.146 -0.28 -0.00    +0.000 OA
DOCKED: ATOM     14  C   UNL     1      26.250 -15.449  -3.148 -0.50 -0.00    +0.000 C 
DOCKED: ATOM     15  O   UNL     1      25.280 -16.040  -3.699 -0.58 -0.00    +0.000 OA
DOCKED: ENDROOT
DOCKED: BRANCH   1  16
DOCKED: ATOM     16  C   UNL     1      25.343 -16.079  -0.876 -0.48 -0.00    +0.000 C 
DOCKED: BRANCH  16  17
DOCKED: ATOM     17  C   UNL     1      25.239 -17.557  -1.260 -0.66 -0.00    +0.000 C 
DOCKED: BRANCH  17  18
DOCKED: ATOM     18  C   UNL     1      24.978 -18.431  -0.029 -0.57 -0.00    +0.000 C 
DOCKED: BRANCH  18  19
DOCKED: ATOM     19  C   UNL     1      23.471 -18.598   0.218 -0.49 -0.00    +0.000 C 
DOCKED: BRANCH  19  20
DOCKED: ATOM     20  C   UNL     1      22.634 -17.593  -0.584 -0.78 -0.00    +0.000 C 
DOCKED: BRANCH  20  22
DOCKED: ATOM     21  O   UNL     1      20.297 -17.521  -1.081 -2.04 -0.00    +0.000 OA
DOCKED: ATOM     22  C   UNL     1      21.355 -18.204  -1.081 -0.66 -0.00    +0.000 C 
DOCKED: ATOM     23  N   UNL     1      21.340 -19.541  -1.585 -0.65 -0.00    +0.000 N 
DOCKED: ATOM     24  O   UNL     1      20.191 -20.086  -2.049 -2.25 -0.00    +0.000 OA
DOCKED: ATOM     25  H   UNL     1      22.170 -20.071  -1.595 -0.40 -0.00    +0.000 HD
DOCKED: ENDBRANCH  20  22
DOCKED: ENDBRANCH  19  20
DOCKED: ENDBRANCH  18  19
DOCKED: ENDBRANCH  17  18
DOCKED: ENDBRANCH  16  17
DOCKED: ENDBRANCH   1  16
DOCKED: TORSDOF 6
DOCKED: TER
DOCKED: ENDMDL
________________________________________________________________________________


	BEGINNING GENETIC ALGORITHM DOCKING 53 of 100
Run: 53 Seed: 2079775490 411727565 [ Run 53 of 100 GA/GALS ]
Beginning LAMARCKIAN GENETIC ALGORITHM (LGA), with a maximum of 2500000 energy evaluations.

Final-Value: -12.663


	FINAL GENETIC ALGORITHM DOCKED STATE
	_______________________________________________


Detailed state:  trans 26.436 -16.069 -1.376 quatxyzw -0.437444 0.816653 -0.341288 0.158884 center -0.011 0.081 -0.051 ntor 6 -171.7031 -27.5937 100.8750 -113.8466 15.1931 21.8365
State:	 26.436 -16.069  -1.376  -0.443  0.827 -0.346 161.716   -171.70  -27.59  100.88 -113.85   15.19   21.84

DOCKED: MODEL       53
DOCKED: USER    Run = 53
DOCKED: USER    DPF = ligand_dock.biased.dpf
DOCKED: USER  
DOCKED: USER    Estimated Free Energy of Binding    =  -10.11 kcal/mol  [=(1)+(2)+(3)-(4)]
DOCKED: USER    Estimated Inhibition Constant, Ki   =   38.82 nM (nanomolar)  [Temperature = 298.15 K]
DOCKED: USER    
DOCKED: USER    (1) Final Intermolecular Energy     =  -11.90 kcal/mol
DOCKED: USER        vdW + Hbond + desolv Energy     =  -11.90 kcal/mol
DOCKED: USER        Electrostatic Energy            =   +0.00 kcal/mol
DOCKED: USER    (2) Final Total Internal Energy     =   -0.76 kcal/mol
DOCKED: USER    (3) Torsional Free Energy           =   +1.79 kcal/mol
DOCKED: USER    (4) Unbound System's Energy  [=(2)] =   -0.76 kcal/mol
DOCKED: USER    
DOCKED: USER    
DOCKED: USER    NEWDPF move ligand.pdbqt
DOCKED: USER    NEWDPF about -0.011000 0.081000 -0.051000
DOCKED: USER    NEWDPF tran0 26.436234 -16.069317 -1.376392
DOCKED: USER    NEWDPF quaternion0 -0.437444 0.816653 -0.341288 0.158884
DOCKED: USER    NEWDPF axisangle0 -0.443072 0.827160 -0.345679 161.715754
DOCKED: USER    NEWDPF quat0 -0.443072 0.827160 -0.345679 161.715754
DOCKED: USER    NEWDPF dihe0 -171.70 -27.59 100.88 -113.85 15.19 21.84 
DOCKED: USER  keepresnum = 1 
DOCKED: USER  
DOCKED: REMARK  Name = 
DOCKED: REMARK  6 active torsions:
DOCKED: REMARK  status: ('A' for Active; 'I' for Inactive)
DOCKED: REMARK    1  A    between atoms: C_2  and  C_5
DOCKED: REMARK    2  A    between atoms: C_5  and  C_6
DOCKED: REMARK    3  A    between atoms: C_6  and  C_7
DOCKED: REMARK    4  A    between atoms: C_7  and  C_8
DOCKED: REMARK    5  A    between atoms: C_8  and  C_9
DOCKED: REMARK    6  A    between atoms: C_9  and  N_10
DOCKED: REMARK                            x       y       z     vdW  Elec       q    Type
DOCKED: REMARK                         _______ _______ _______ _____ _____    ______ ____
DOCKED: USER                              x       y       z     vdW  Elec       q    Type
DOCKED: USER                           _______ _______ _______ _____ _____    ______ ____
DOCKED: ROOT
DOCKED: ATOM      1  N   UNL     1      26.204 -15.385  -1.945 -0.37 -0.00    +0.000 N 
DOCKED: ATOM      2  C   UNL     1      27.177 -14.572  -1.262 -0.27 -0.00    +0.000 C 
DOCKED: ATOM      3  C   UNL     1      28.221 -13.861  -2.034 -0.12 -0.00    +0.000 A 
DOCKED: ATOM      4  C   UNL     1      29.158 -13.040  -1.381 -0.05 -0.00    +0.000 A 
DOCKED: ATOM      5  C   UNL     1      30.142 -12.369  -2.108 -0.01 -0.00    +0.000 A 
DOCKED: ATOM      6  C   UNL     1      30.209 -12.506  -3.494 -0.02 -0.00    +0.000 A 
DOCKED: ATOM      7  C   UNL     1      29.288 -13.320  -4.168 -0.08 -0.00    +0.000 A 
DOCKED: ATOM      8  C   UNL     1      29.358 -13.459  -5.562 -0.14 -0.00    +0.000 A 
DOCKED: ATOM      9  C   UNL     1      28.443 -14.270  -6.232 -0.32 -0.00    +0.000 A 
DOCKED: ATOM     10  C   UNL     1      27.452 -14.949  -5.523 -0.36 -0.00    +0.000 A 
DOCKED: ATOM     11  C   UNL     1      27.359 -14.824  -4.126 -0.34 -0.00    +0.000 A 
DOCKED: ATOM     12  C   UNL     1      28.282 -14.005  -3.438 -0.15 -0.00    +0.000 A 
DOCKED: ATOM     13  O   UNL     1      27.143 -14.468  -0.004 -0.30 -0.00    +0.000 OA
DOCKED: ATOM     14  C   UNL     1      26.307 -15.545  -3.373 -0.51 -0.00    +0.000 C 
DOCKED: ATOM     15  O   UNL     1      25.503 -16.302  -3.985 -0.59 -0.00    +0.000 OA
DOCKED: ENDROOT
DOCKED: BRANCH   1  16
DOCKED: ATOM     16  C   UNL     1      25.186 -16.125  -1.185 -0.53 -0.00    +0.000 C 
DOCKED: BRANCH  16  17
DOCKED: ATOM     17  C   UNL     1      25.849 -17.209  -0.330 -0.57 -0.00    +0.000 C 
DOCKED: BRANCH  17  18
DOCKED: ATOM     18  C   UNL     1      24.817 -18.223   0.173 -0.58 -0.00    +0.000 C 
DOCKED: BRANCH  18  19
DOCKED: ATOM     19  C   UNL     1      24.224 -19.029  -0.991 -0.53 -0.00    +0.000 C 
DOCKED: BRANCH  19  20
DOCKED: ATOM     20  C   UNL     1      23.201 -18.220  -1.799 -0.43 -0.00    +0.000 C 
DOCKED: BRANCH  20  22
DOCKED: ATOM     21  O   UNL     1      21.161 -17.617  -0.709 -1.97 -0.00    +0.000 OA
DOCKED: ATOM     22  C   UNL     1      21.794 -18.496  -1.353 -0.43 -0.00    +0.000 C 
DOCKED: ATOM     23  N   UNL     1      21.158 -19.732  -1.684 -0.63 -0.00    +0.000 N 
DOCKED: ATOM     24  O   UNL     1      19.885 -19.974  -1.297 -2.06 -0.00    +0.000 OA
DOCKED: ATOM     25  H   UNL     1      21.650 -20.414  -2.197 -0.53 -0.00    +0.000 HD
DOCKED: ENDBRANCH  20  22
DOCKED: ENDBRANCH  19  20
DOCKED: ENDBRANCH  18  19
DOCKED: ENDBRANCH  17  18
DOCKED: ENDBRANCH  16  17
DOCKED: ENDBRANCH   1  16
DOCKED: TORSDOF 6
DOCKED: TER
DOCKED: ENDMDL
________________________________________________________________________________


	BEGINNING GENETIC ALGORITHM DOCKING 54 of 100
Run: 54 Seed: 340600350 1633230337 [ Run 54 of 100 GA/GALS ]
Beginning LAMARCKIAN GENETIC ALGORITHM (LGA), with a maximum of 2500000 energy evaluations.

Final-Value: -13.666


	FINAL GENETIC ALGORITHM DOCKED STATE
	_______________________________________________


Detailed state:  trans 26.534 -15.772 -1.345 quatxyzw -0.434296 0.053949 -0.898929 0.020057 center -0.011 0.081 -0.051 ntor 6 -170.4449 -149.5237 -90.6924 -25.9930 -17.8314 148.5477
State:	 26.534 -15.772  -1.345  -0.434  0.054 -0.899 177.701   -170.44 -149.52  -90.69  -25.99  -17.83  148.55

DOCKED: MODEL       54
DOCKED: USER    Run = 54
DOCKED: USER    DPF = ligand_dock.biased.dpf
DOCKED: USER  
DOCKED: USER    Estimated Free Energy of Binding    =  -11.29 kcal/mol  [=(1)+(2)+(3)-(4)]
DOCKED: USER    Estimated Inhibition Constant, Ki   =    5.30 nM (nanomolar)  [Temperature = 298.15 K]
DOCKED: USER    
DOCKED: USER    (1) Final Intermolecular Energy     =  -13.08 kcal/mol
DOCKED: USER        vdW + Hbond + desolv Energy     =  -13.08 kcal/mol
DOCKED: USER        Electrostatic Energy            =   +0.00 kcal/mol
DOCKED: USER    (2) Final Total Internal Energy     =   -0.59 kcal/mol
DOCKED: USER    (3) Torsional Free Energy           =   +1.79 kcal/mol
DOCKED: USER    (4) Unbound System's Energy  [=(2)] =   -0.59 kcal/mol
DOCKED: USER    
DOCKED: USER    
DOCKED: USER    NEWDPF move ligand.pdbqt
DOCKED: USER    NEWDPF about -0.011000 0.081000 -0.051000
DOCKED: USER    NEWDPF tran0 26.533747 -15.772045 -1.344960
DOCKED: USER    NEWDPF quaternion0 -0.434296 0.053949 -0.898929 0.020057
DOCKED: USER    NEWDPF axisangle0 -0.434383 0.053959 -0.899110 177.701436
DOCKED: USER    NEWDPF quat0 -0.434383 0.053959 -0.899110 177.701436
DOCKED: USER    NEWDPF dihe0 -170.44 -149.52 -90.69 -25.99 -17.83 148.55 
DOCKED: USER  keepresnum = 1 
DOCKED: USER  
DOCKED: REMARK  Name = 
DOCKED: REMARK  6 active torsions:
DOCKED: REMARK  status: ('A' for Active; 'I' for Inactive)
DOCKED: REMARK    1  A    between atoms: C_2  and  C_5
DOCKED: REMARK    2  A    between atoms: C_5  and  C_6
DOCKED: REMARK    3  A    between atoms: C_6  and  C_7
DOCKED: REMARK    4  A    between atoms: C_7  and  C_8
DOCKED: REMARK    5  A    between atoms: C_8  and  C_9
DOCKED: REMARK    6  A    between atoms: C_9  and  N_10
DOCKED: REMARK                            x       y       z     vdW  Elec       q    Type
DOCKED: REMARK                         _______ _______ _______ _____ _____    ______ ____
DOCKED: USER                              x       y       z     vdW  Elec       q    Type
DOCKED: USER                           _______ _______ _______ _____ _____    ______ ____
DOCKED: ROOT
DOCKED: ATOM      1  N   UNL     1      26.789 -16.444  -1.919 -0.38 -0.00    +0.000 N 
DOCKED: ATOM      2  C   UNL     1      26.473 -15.552  -3.004 -0.46 -0.00    +0.000 C 
DOCKED: ATOM      3  C   UNL     1      27.476 -15.286  -4.060 -0.35 -0.00    +0.000 A 
DOCKED: ATOM      4  C   UNL     1      27.168 -14.440  -5.141 -0.36 -0.00    +0.000 A 
DOCKED: ATOM      5  C   UNL     1      28.113 -14.189  -6.137 -0.28 -0.00    +0.000 A 
DOCKED: ATOM      6  C   UNL     1      29.376 -14.776  -6.072 -0.29 -0.00    +0.000 A 
DOCKED: ATOM      7  C   UNL     1      29.708 -15.621  -5.004 -0.23 -0.00    +0.000 A 
DOCKED: ATOM      8  C   UNL     1      30.980 -16.208  -4.938 -0.14 -0.00    +0.000 A 
DOCKED: ATOM      9  C   UNL     1      31.311 -17.047  -3.874 -0.12 -0.00    +0.000 A 
DOCKED: ATOM     10  C   UNL     1      30.380 -17.310  -2.869 -0.17 -0.00    +0.000 A 
DOCKED: ATOM     11  C   UNL     1      29.098 -16.735  -2.913 -0.22 -0.00    +0.000 A 
DOCKED: ATOM     12  C   UNL     1      28.754 -15.884  -3.986 -0.25 -0.00    +0.000 A 
DOCKED: ATOM     13  O   UNL     1      25.342 -14.992  -3.053 -0.60 -0.00    +0.000 OA
DOCKED: ATOM     14  C   UNL     1      28.110 -17.014  -1.845 -0.30 -0.00    +0.000 C 
DOCKED: ATOM     15  O   UNL     1      28.429 -17.750  -0.870 -0.41 -0.00    +0.000 OA
DOCKED: ENDROOT
DOCKED: BRANCH   1  16
DOCKED: ATOM     16  C   UNL     1      25.814 -16.685  -0.845 -0.55 -0.00    +0.000 C 
DOCKED: BRANCH  16  17
DOCKED: ATOM     17  C   UNL     1      24.536 -17.300  -1.420 -0.69 -0.00    +0.000 C 
DOCKED: BRANCH  17  18
DOCKED: ATOM     18  C   UNL     1      23.697 -17.961  -0.320 -0.76 -0.00    +0.000 C 
DOCKED: BRANCH  18  19
DOCKED: ATOM     19  C   UNL     1      22.213 -18.002  -0.709 -0.83 -0.00    +0.000 C 
DOCKED: BRANCH  19  20
DOCKED: ATOM     20  C   UNL     1      21.831 -19.310  -1.415 -0.66 -0.00    +0.000 C 
DOCKED: BRANCH  20  22
DOCKED: ATOM     21  O   UNL     1      19.515 -19.732  -1.827 -2.14 -0.00    +0.000 OA
DOCKED: ATOM     22  C   UNL     1      20.468 -19.787  -1.005 -0.76 -0.00    +0.000 C 
DOCKED: ATOM     23  N   UNL     1      20.254 -20.336   0.297 -0.71 -0.00    +0.000 N 
DOCKED: ATOM     24  O   UNL     1      19.029 -20.782   0.660 -0.85 -0.00    +0.000 OA
DOCKED: ATOM     25  H   UNL     1      21.002 -20.390   0.935 -0.57 -0.00    +0.000 HD
DOCKED: ENDBRANCH  20  22
DOCKED: ENDBRANCH  19  20
DOCKED: ENDBRANCH  18  19
DOCKED: ENDBRANCH  17  18
DOCKED: ENDBRANCH  16  17
DOCKED: ENDBRANCH   1  16
DOCKED: TORSDOF 6
DOCKED: TER
DOCKED: ENDMDL
________________________________________________________________________________


	BEGINNING GENETIC ALGORITHM DOCKING 55 of 100
Run: 55 Seed: 1633238436 1108931003 [ Run 55 of 100 GA/GALS ]
Beginning LAMARCKIAN GENETIC ALGORITHM (LGA), with a maximum of 2500000 energy evaluations.

Final-Value: -14.432


	FINAL GENETIC ALGORITHM DOCKED STATE
	_______________________________________________


Detailed state:  trans 27.108 -16.071 -0.643 quatxyzw 0.537121 -0.046008 0.841707 0.030215 center -0.011 0.081 -0.051 ntor 6 -104.7600 -162.1777 -61.6001 37.9714 109.4406 180.0000
State:	 27.108 -16.071  -0.643   0.537 -0.046  0.842 176.537   -104.76 -162.18  -61.60   37.97  109.44  180.00

DOCKED: MODEL       55
DOCKED: USER    Run = 55
DOCKED: USER    DPF = ligand_dock.biased.dpf
DOCKED: USER  
DOCKED: USER    Estimated Free Energy of Binding    =  -11.86 kcal/mol  [=(1)+(2)+(3)-(4)]
DOCKED: USER    Estimated Inhibition Constant, Ki   =    2.03 nM (nanomolar)  [Temperature = 298.15 K]
DOCKED: USER    
DOCKED: USER    (1) Final Intermolecular Energy     =  -13.65 kcal/mol
DOCKED: USER        vdW + Hbond + desolv Energy     =  -13.65 kcal/mol
DOCKED: USER        Electrostatic Energy            =   +0.00 kcal/mol
DOCKED: USER    (2) Final Total Internal Energy     =   -0.78 kcal/mol
DOCKED: USER    (3) Torsional Free Energy           =   +1.79 kcal/mol
DOCKED: USER    (4) Unbound System's Energy  [=(2)] =   -0.78 kcal/mol
DOCKED: USER    
DOCKED: USER    
DOCKED: USER    NEWDPF move ligand.pdbqt
DOCKED: USER    NEWDPF about -0.011000 0.081000 -0.051000
DOCKED: USER    NEWDPF tran0 27.108258 -16.071439 -0.643298
DOCKED: USER    NEWDPF quaternion0 0.537121 -0.046008 0.841707 0.030215
DOCKED: USER    NEWDPF axisangle0 0.537366 -0.046029 0.842092 176.537092
DOCKED: USER    NEWDPF quat0 0.537366 -0.046029 0.842092 176.537092
DOCKED: USER    NEWDPF dihe0 -104.76 -162.18 -61.60 37.97 109.44 180.00 
DOCKED: USER  keepresnum = 1 
DOCKED: USER  
DOCKED: REMARK  Name = 
DOCKED: REMARK  6 active torsions:
DOCKED: REMARK  status: ('A' for Active; 'I' for Inactive)
DOCKED: REMARK    1  A    between atoms: C_2  and  C_5
DOCKED: REMARK    2  A    between atoms: C_5  and  C_6
DOCKED: REMARK    3  A    between atoms: C_6  and  C_7
DOCKED: REMARK    4  A    between atoms: C_7  and  C_8
DOCKED: REMARK    5  A    between atoms: C_8  and  C_9
DOCKED: REMARK    6  A    between atoms: C_9  and  N_10
DOCKED: REMARK                            x       y       z     vdW  Elec       q    Type
DOCKED: REMARK                         _______ _______ _______ _____ _____    ______ ____
DOCKED: USER                              x       y       z     vdW  Elec       q    Type
DOCKED: USER                           _______ _______ _______ _____ _____    ______ ____
DOCKED: ROOT
DOCKED: ATOM      1  N   UNL     1      27.292 -16.695  -1.294 -0.38 -0.00    +0.000 N 
DOCKED: ATOM      2  C   UNL     1      26.646 -15.814  -2.232 -0.42 -0.00    +0.000 C 
DOCKED: ATOM      3  C   UNL     1      27.348 -15.411  -3.472 -0.32 -0.00    +0.000 A 
DOCKED: ATOM      4  C   UNL     1      26.717 -14.575  -4.410 -0.42 -0.00    +0.000 A 
DOCKED: ATOM      5  C   UNL     1      27.377 -14.195  -5.580 -0.26 -0.00    +0.000 A 
DOCKED: ATOM      6  C   UNL     1      28.674 -14.641  -5.832 -0.33 -0.00    +0.000 A 
DOCKED: ATOM      7  C   UNL     1      29.326 -15.474  -4.911 -0.25 -0.00    +0.000 A 
DOCKED: ATOM      8  C   UNL     1      30.631 -15.919  -5.164 -0.17 -0.00    +0.000 A 
DOCKED: ATOM      9  C   UNL     1      31.280 -16.745  -4.247 -0.11 -0.00    +0.000 A 
DOCKED: ATOM     10  C   UNL     1      30.637 -17.136  -3.072 -0.15 -0.00    +0.000 A 
DOCKED: ATOM     11  C   UNL     1      29.327 -16.704  -2.797 -0.22 -0.00    +0.000 A 
DOCKED: ATOM     12  C   UNL     1      28.662 -15.867  -3.720 -0.24 -0.00    +0.000 A 
DOCKED: ATOM     13  O   UNL     1      25.484 -15.381  -1.997 -0.49 -0.00    +0.000 OA
DOCKED: ATOM     14  C   UNL     1      28.645 -17.119  -1.550 -0.31 -0.00    +0.000 C 
DOCKED: ATOM     15  O   UNL     1      29.251 -17.842  -0.711 -0.33 -0.00    +0.000 OA
DOCKED: ENDROOT
DOCKED: BRANCH   1  16
DOCKED: ATOM     16  C   UNL     1      26.619 -17.071  -0.041 -0.48 -0.00    +0.000 C 
DOCKED: BRANCH  16  17
DOCKED: ATOM     17  C   UNL     1      25.835 -18.372  -0.233 -0.64 -0.00    +0.000 C 
DOCKED: BRANCH  17  18
DOCKED: ATOM     18  C   UNL     1      24.608 -18.152  -1.124 -0.72 -0.00    +0.000 C 
DOCKED: BRANCH  18  19
DOCKED: ATOM     19  C   UNL     1      23.410 -18.973  -0.626 -0.77 -0.00    +0.000 C 
DOCKED: BRANCH  19  20
DOCKED: ATOM     20  C   UNL     1      22.198 -18.092  -0.292 -0.82 -0.00    +0.000 C 
DOCKED: BRANCH  20  22
DOCKED: ATOM     21  O   UNL     1      19.845 -18.035  -0.705 -1.83 -0.00    +0.000 OA
DOCKED: ATOM     22  C   UNL     1      20.947 -18.592  -0.954 -0.80 -0.00    +0.000 C 
DOCKED: ATOM     23  N   UNL     1      21.004 -19.671  -1.890 -0.63 -0.00    +0.000 N 
DOCKED: ATOM     24  O   UNL     1      19.879 -20.110  -2.500 -1.99 -0.00    +0.000 OA
DOCKED: ATOM     25  H   UNL     1      21.868 -20.098  -2.093 -0.55 -0.00    +0.000 HD
DOCKED: ENDBRANCH  20  22
DOCKED: ENDBRANCH  19  20
DOCKED: ENDBRANCH  18  19
DOCKED: ENDBRANCH  17  18
DOCKED: ENDBRANCH  16  17
DOCKED: ENDBRANCH   1  16
DOCKED: TORSDOF 6
DOCKED: TER
DOCKED: ENDMDL
________________________________________________________________________________


	BEGINNING GENETIC ALGORITHM DOCKING 56 of 100
Run: 56 Seed: 68168515 233887040 [ Run 56 of 100 GA/GALS ]
Beginning LAMARCKIAN GENETIC ALGORITHM (LGA), with a maximum of 2500000 energy evaluations.

Final-Value: -13.616


	FINAL GENETIC ALGORITHM DOCKED STATE
	_______________________________________________


Detailed state:  trans 25.211 -15.648 -2.111 quatxyzw 0.148676 0.187603 0.968485 0.068836 center -0.011 0.081 -0.051 ntor 6 -79.3362 160.3114 -137.2221 -119.9085 -52.4993 -173.6721
State:	 25.211 -15.648  -2.111   0.149  0.188  0.971 172.106    -79.34  160.31 -137.22 -119.91  -52.50 -173.67

DOCKED: MODEL       56
DOCKED: USER    Run = 56
DOCKED: USER    DPF = ligand_dock.biased.dpf
DOCKED: USER  
DOCKED: USER    Estimated Free Energy of Binding    =  -10.99 kcal/mol  [=(1)+(2)+(3)-(4)]
DOCKED: USER    Estimated Inhibition Constant, Ki   =    8.72 nM (nanomolar)  [Temperature = 298.15 K]
DOCKED: USER    
DOCKED: USER    (1) Final Intermolecular Energy     =  -12.78 kcal/mol
DOCKED: USER        vdW + Hbond + desolv Energy     =  -12.78 kcal/mol
DOCKED: USER        Electrostatic Energy            =   +0.00 kcal/mol
DOCKED: USER    (2) Final Total Internal Energy     =   -0.83 kcal/mol
DOCKED: USER    (3) Torsional Free Energy           =   +1.79 kcal/mol
DOCKED: USER    (4) Unbound System's Energy  [=(2)] =   -0.83 kcal/mol
DOCKED: USER    
DOCKED: USER    
DOCKED: USER    NEWDPF move ligand.pdbqt
DOCKED: USER    NEWDPF about -0.011000 0.081000 -0.051000
DOCKED: USER    NEWDPF tran0 25.211423 -15.648050 -2.110722
DOCKED: USER    NEWDPF quaternion0 0.148676 0.187603 0.968485 0.068836
DOCKED: USER    NEWDPF axisangle0 0.149030 0.188049 0.970787 172.105782
DOCKED: USER    NEWDPF quat0 0.149030 0.188049 0.970787 172.105782
DOCKED: USER    NEWDPF dihe0 -79.34 160.31 -137.22 -119.91 -52.50 -173.67 
DOCKED: USER  keepresnum = 1 
DOCKED: USER  
DOCKED: REMARK  Name = 
DOCKED: REMARK  6 active torsions:
DOCKED: REMARK  status: ('A' for Active; 'I' for Inactive)
DOCKED: REMARK    1  A    between atoms: C_2  and  C_5
DOCKED: REMARK    2  A    between atoms: C_5  and  C_6
DOCKED: REMARK    3  A    between atoms: C_6  and  C_7
DOCKED: REMARK    4  A    between atoms: C_7  and  C_8
DOCKED: REMARK    5  A    between atoms: C_8  and  C_9
DOCKED: REMARK    6  A    between atoms: C_9  and  N_10
DOCKED: REMARK                            x       y       z     vdW  Elec       q    Type
DOCKED: REMARK                         _______ _______ _______ _____ _____    ______ ____
DOCKED: USER                              x       y       z     vdW  Elec       q    Type
DOCKED: USER                           _______ _______ _______ _____ _____    ______ ____
DOCKED: ROOT
DOCKED: ATOM      1  N   UNL     1      25.891 -16.268  -2.131 -0.47 -0.00    +0.000 N 
DOCKED: ATOM      2  C   UNL     1      26.104 -15.895  -3.506 -0.45 -0.00    +0.000 C 
DOCKED: ATOM      3  C   UNL     1      27.456 -15.503  -3.964 -0.32 -0.00    +0.000 A 
DOCKED: ATOM      4  C   UNL     1      27.683 -15.165  -5.311 -0.39 -0.00    +0.000 A 
DOCKED: ATOM      5  C   UNL     1      28.957 -14.796  -5.744 -0.31 -0.00    +0.000 A 
DOCKED: ATOM      6  C   UNL     1      30.022 -14.755  -4.845 -0.13 -0.00    +0.000 A 
DOCKED: ATOM      7  C   UNL     1      29.821 -15.085  -3.497 -0.11 -0.00    +0.000 A 
DOCKED: ATOM      8  C   UNL     1      30.892 -15.041  -2.593 -0.04 -0.00    +0.000 A 
DOCKED: ATOM      9  C   UNL     1      30.691 -15.367  -1.252 -0.07 -0.00    +0.000 A 
DOCKED: ATOM     10  C   UNL     1      29.425 -15.739  -0.799 -0.16 -0.00    +0.000 A 
DOCKED: ATOM     11  C   UNL     1      28.335 -15.792  -1.687 -0.22 -0.00    +0.000 A 
DOCKED: ATOM     12  C   UNL     1      28.530 -15.464  -3.047 -0.20 -0.00    +0.000 A 
DOCKED: ATOM     13  O   UNL     1      25.139 -15.899  -4.319 -0.54 -0.00    +0.000 OA
DOCKED: ATOM     14  C   UNL     1      26.992 -16.187  -1.206 -0.42 -0.00    +0.000 C 
DOCKED: ATOM     15  O   UNL     1      26.813 -16.450   0.016 -0.46 -0.00    +0.000 OA
DOCKED: ENDROOT
DOCKED: BRANCH   1  16
DOCKED: ATOM     16  C   UNL     1      24.545 -16.623  -1.657 -0.59 -0.00    +0.000 C 
DOCKED: BRANCH  16  17
DOCKED: ATOM     17  C   UNL     1      24.383 -18.145  -1.616 -0.65 -0.00    +0.000 C 
DOCKED: BRANCH  17  18
DOCKED: ATOM     18  C   UNL     1      23.891 -18.612  -0.242 -0.70 -0.00    +0.000 C 
DOCKED: BRANCH  18  19
DOCKED: ATOM     19  C   UNL     1      22.527 -17.992   0.095 -0.69 -0.00    +0.000 C 
DOCKED: BRANCH  19  20
DOCKED: ATOM     20  C   UNL     1      21.543 -18.075  -1.080 -0.62 -0.00    +0.000 C 
DOCKED: BRANCH  20  22
DOCKED: ATOM     21  O   UNL     1      20.143 -19.744  -2.065 -2.34 -0.00    +0.000 OA
DOCKED: ATOM     22  C   UNL     1      20.708 -19.322  -1.021 -0.90 -0.00    +0.000 C 
DOCKED: ATOM     23  N   UNL     1      20.579 -20.049   0.202 -0.71 -0.00    +0.000 N 
DOCKED: ATOM     24  O   UNL     1      19.841 -21.182   0.252 -0.86 -0.00    +0.000 OA
DOCKED: ATOM     25  H   UNL     1      21.031 -19.725   1.015 -0.44 -0.00    +0.000 HD
DOCKED: ENDBRANCH  20  22
DOCKED: ENDBRANCH  19  20
DOCKED: ENDBRANCH  18  19
DOCKED: ENDBRANCH  17  18
DOCKED: ENDBRANCH  16  17
DOCKED: ENDBRANCH   1  16
DOCKED: TORSDOF 6
DOCKED: TER
DOCKED: ENDMDL
________________________________________________________________________________


	BEGINNING GENETIC ALGORITHM DOCKING 57 of 100
Run: 57 Seed: 1827260749 390836864 [ Run 57 of 100 GA/GALS ]
Beginning LAMARCKIAN GENETIC ALGORITHM (LGA), with a maximum of 2500000 energy evaluations.

Final-Value: -13.012


	FINAL GENETIC ALGORITHM DOCKED STATE
	_______________________________________________


Detailed state:  trans 25.561 -14.943 -2.237 quatxyzw -0.174094 0.008300 -0.855359 -0.487835 center -0.011 0.081 -0.051 ntor 6 44.6775 -155.3211 6.2306 130.7973 -5.0140 -39.3605
State:	 25.561 -14.943  -2.237  -0.199  0.010 -0.980 -121.603     44.68 -155.32    6.23  130.80   -5.01  -39.36

DOCKED: MODEL       57
DOCKED: USER    Run = 57
DOCKED: USER    DPF = ligand_dock.biased.dpf
DOCKED: USER  
DOCKED: USER    Estimated Free Energy of Binding    =  -10.63 kcal/mol  [=(1)+(2)+(3)-(4)]
DOCKED: USER    Estimated Inhibition Constant, Ki   =   16.27 nM (nanomolar)  [Temperature = 298.15 K]
DOCKED: USER    
DOCKED: USER    (1) Final Intermolecular Energy     =  -12.42 kcal/mol
DOCKED: USER        vdW + Hbond + desolv Energy     =  -12.42 kcal/mol
DOCKED: USER        Electrostatic Energy            =   +0.00 kcal/mol
DOCKED: USER    (2) Final Total Internal Energy     =   -0.60 kcal/mol
DOCKED: USER    (3) Torsional Free Energy           =   +1.79 kcal/mol
DOCKED: USER    (4) Unbound System's Energy  [=(2)] =   -0.60 kcal/mol
DOCKED: USER    
DOCKED: USER    
DOCKED: USER    NEWDPF move ligand.pdbqt
DOCKED: USER    NEWDPF about -0.011000 0.081000 -0.051000
DOCKED: USER    NEWDPF tran0 25.560814 -14.942998 -2.236839
DOCKED: USER    NEWDPF quaternion0 -0.174094 0.008300 -0.855359 -0.487835
DOCKED: USER    NEWDPF axisangle0 -0.199435 0.009508 -0.979865 -121.603181
DOCKED: USER    NEWDPF quat0 -0.199435 0.009508 -0.979865 -121.603181
DOCKED: USER    NEWDPF dihe0 44.68 -155.32 6.23 130.80 -5.01 -39.36 
DOCKED: USER  keepresnum = 1 
DOCKED: USER  
DOCKED: REMARK  Name = 
DOCKED: REMARK  6 active torsions:
DOCKED: REMARK  status: ('A' for Active; 'I' for Inactive)
DOCKED: REMARK    1  A    between atoms: C_2  and  C_5
DOCKED: REMARK    2  A    between atoms: C_5  and  C_6
DOCKED: REMARK    3  A    between atoms: C_6  and  C_7
DOCKED: REMARK    4  A    between atoms: C_7  and  C_8
DOCKED: REMARK    5  A    between atoms: C_8  and  C_9
DOCKED: REMARK    6  A    between atoms: C_9  and  N_10
DOCKED: REMARK                            x       y       z     vdW  Elec       q    Type
DOCKED: REMARK                         _______ _______ _______ _____ _____    ______ ____
DOCKED: USER                              x       y       z     vdW  Elec       q    Type
DOCKED: USER                           _______ _______ _______ _____ _____    ______ ____
DOCKED: ROOT
DOCKED: ATOM      1  N   UNL     1      26.391 -14.814  -2.612 -0.34 -0.00    +0.000 N 
DOCKED: ATOM      2  C   UNL     1      25.743 -14.013  -3.617 -0.46 -0.00    +0.000 C 
DOCKED: ATOM      3  C   UNL     1      26.228 -12.642  -3.897 -0.25 -0.00    +0.000 A 
DOCKED: ATOM      4  C   UNL     1      25.623 -11.860  -4.897 -0.30 -0.00    +0.000 A 
DOCKED: ATOM      5  C   UNL     1      26.079 -10.569  -5.162 -0.22 -0.00    +0.000 A 
DOCKED: ATOM      6  C   UNL     1      27.144 -10.036  -4.436 -0.10 -0.00    +0.000 A 
DOCKED: ATOM      7  C   UNL     1      27.763 -10.794  -3.432 -0.08 -0.00    +0.000 A 
DOCKED: ATOM      8  C   UNL     1      28.831 -10.257  -2.700 -0.03 -0.00    +0.000 A 
DOCKED: ATOM      9  C   UNL     1      29.446 -11.011  -1.700 -0.02 -0.00    +0.000 A 
DOCKED: ATOM     10  C   UNL     1      29.003 -12.304  -1.420 -0.04 -0.00    +0.000 A 
DOCKED: ATOM     11  C   UNL     1      27.935 -12.866  -2.142 -0.11 -0.00    +0.000 A 
DOCKED: ATOM     12  C   UNL     1      27.307 -12.110  -3.156 -0.14 -0.00    +0.000 A 
DOCKED: ATOM     13  O   UNL     1      24.759 -14.476  -4.258 -1.04 -0.00    +0.000 OA
DOCKED: ATOM     14  C   UNL     1      27.466 -14.239  -1.844 -0.22 -0.00    +0.000 C 
DOCKED: ATOM     15  O   UNL     1      28.007 -14.902  -0.917 -0.20 -0.00    +0.000 OA
DOCKED: ENDROOT
DOCKED: BRANCH   1  16
DOCKED: ATOM     16  C   UNL     1      25.893 -16.163  -2.300 -0.53 -0.00    +0.000 C 
DOCKED: BRANCH  16  17
DOCKED: ATOM     17  C   UNL     1      25.641 -16.298  -0.796 -0.50 -0.00    +0.000 C 
DOCKED: BRANCH  17  18
DOCKED: ATOM     18  C   UNL     1      25.004 -17.651  -0.462 -0.68 -0.00    +0.000 C 
DOCKED: BRANCH  18  19
DOCKED: ATOM     19  C   UNL     1      23.807 -17.938  -1.381 -0.76 -0.00    +0.000 C 
DOCKED: BRANCH  19  20
DOCKED: ATOM     20  C   UNL     1      23.007 -19.168  -0.930 -0.78 -0.00    +0.000 C 
DOCKED: BRANCH  20  22
DOCKED: ATOM     21  O   UNL     1      21.074 -17.781  -0.706 -2.09 -0.00    +0.000 OA
DOCKED: ATOM     22  C   UNL     1      21.528 -18.922  -0.987 -0.85 -0.00    +0.000 C 
DOCKED: ATOM     23  N   UNL     1      20.636 -19.963  -1.393 -0.69 -0.00    +0.000 N 
DOCKED: ATOM     24  O   UNL     1      19.304 -19.736  -1.461 -1.81 -0.00    +0.000 OA
DOCKED: ATOM     25  H   UNL     1      20.993 -20.851  -1.623 -0.21 -0.00    +0.000 HD
DOCKED: ENDBRANCH  20  22
DOCKED: ENDBRANCH  19  20
DOCKED: ENDBRANCH  18  19
DOCKED: ENDBRANCH  17  18
DOCKED: ENDBRANCH  16  17
DOCKED: ENDBRANCH   1  16
DOCKED: TORSDOF 6
DOCKED: TER
DOCKED: ENDMDL
________________________________________________________________________________


	BEGINNING GENETIC ALGORITHM DOCKING 58 of 100
Run: 58 Seed: 1055164003 1505552562 [ Run 58 of 100 GA/GALS ]
Beginning LAMARCKIAN GENETIC ALGORITHM (LGA), with a maximum of 2500000 energy evaluations.

Final-Value: -13.436


	FINAL GENETIC ALGORITHM DOCKED STATE
	_______________________________________________


Detailed state:  trans 26.291 -15.782 -1.563 quatxyzw 0.357456 -0.834522 0.382333 -0.172102 center -0.011 0.081 -0.051 ntor 6 -86.3174 -150.3001 -159.0774 81.4321 88.5041 21.0316
State:	 26.291 -15.782  -1.563   0.363 -0.847  0.388 -160.180    -86.32 -150.30 -159.08   81.43   88.50   21.03

DOCKED: MODEL       58
DOCKED: USER    Run = 58
DOCKED: USER    DPF = ligand_dock.biased.dpf
DOCKED: USER  
DOCKED: USER    Estimated Free Energy of Binding    =  -10.78 kcal/mol  [=(1)+(2)+(3)-(4)]
DOCKED: USER    Estimated Inhibition Constant, Ki   =   12.44 nM (nanomolar)  [Temperature = 298.15 K]
DOCKED: USER    
DOCKED: USER    (1) Final Intermolecular Energy     =  -12.57 kcal/mol
DOCKED: USER        vdW + Hbond + desolv Energy     =  -12.57 kcal/mol
DOCKED: USER        Electrostatic Energy            =   +0.00 kcal/mol
DOCKED: USER    (2) Final Total Internal Energy     =   -0.86 kcal/mol
DOCKED: USER    (3) Torsional Free Energy           =   +1.79 kcal/mol
DOCKED: USER    (4) Unbound System's Energy  [=(2)] =   -0.86 kcal/mol
DOCKED: USER    
DOCKED: USER    
DOCKED: USER    NEWDPF move ligand.pdbqt
DOCKED: USER    NEWDPF about -0.011000 0.081000 -0.051000
DOCKED: USER    NEWDPF tran0 26.291417 -15.782220 -1.563142
DOCKED: USER    NEWDPF quaternion0 0.357456 -0.834522 0.382333 -0.172102
DOCKED: USER    NEWDPF axisangle0 0.362870 -0.847163 0.388124 -160.179920
DOCKED: USER    NEWDPF quat0 0.362870 -0.847163 0.388124 -160.179920
DOCKED: USER    NEWDPF dihe0 -86.32 -150.30 -159.08 81.43 88.50 21.03 
DOCKED: USER  keepresnum = 1 
DOCKED: USER  
DOCKED: REMARK  Name = 
DOCKED: REMARK  6 active torsions:
DOCKED: REMARK  status: ('A' for Active; 'I' for Inactive)
DOCKED: REMARK    1  A    between atoms: C_2  and  C_5
DOCKED: REMARK    2  A    between atoms: C_5  and  C_6
DOCKED: REMARK    3  A    between atoms: C_6  and  C_7
DOCKED: REMARK    4  A    between atoms: C_7  and  C_8
DOCKED: REMARK    5  A    between atoms: C_8  and  C_9
DOCKED: REMARK    6  A    between atoms: C_9  and  N_10
DOCKED: REMARK                            x       y       z     vdW  Elec       q    Type
DOCKED: REMARK                         _______ _______ _______ _____ _____    ______ ____
DOCKED: USER                              x       y       z     vdW  Elec       q    Type
DOCKED: USER                           _______ _______ _______ _____ _____    ______ ____
DOCKED: ROOT
DOCKED: ATOM      1  N   UNL     1      26.200 -15.131  -2.206 -0.36 -0.00    +0.000 N 
DOCKED: ATOM      2  C   UNL     1      27.232 -14.398  -1.518 -0.25 -0.00    +0.000 C 
DOCKED: ATOM      3  C   UNL     1      28.418 -13.916  -2.262 -0.11 -0.00    +0.000 A 
DOCKED: ATOM      4  C   UNL     1      29.418 -13.173  -1.608 -0.04 -0.00    +0.000 A 
DOCKED: ATOM      5  C   UNL     1      30.536 -12.718  -2.308 -0.01 -0.00    +0.000 A 
DOCKED: ATOM      6  C   UNL     1      30.676 -12.996  -3.668 -0.02 -0.00    +0.000 A 
DOCKED: ATOM      7  C   UNL     1      29.695 -13.736  -4.342 -0.08 -0.00    +0.000 A 
DOCKED: ATOM      8  C   UNL     1      29.838 -14.018  -5.708 -0.15 -0.00    +0.000 A 
DOCKED: ATOM      9  C   UNL     1      28.862 -14.756  -6.378 -0.34 -0.00    +0.000 A 
DOCKED: ATOM     10  C   UNL     1      27.737 -15.219  -5.696 -0.31 +0.00    +0.000 A 
DOCKED: ATOM     11  C   UNL     1      27.570 -14.949  -4.326 -0.34 -0.00    +0.000 A 
DOCKED: ATOM     12  C   UNL     1      28.553 -14.202  -3.639 -0.14 -0.00    +0.000 A 
DOCKED: ATOM     13  O   UNL     1      27.128 -14.169  -0.281 -0.28 -0.00    +0.000 OA
DOCKED: ATOM     14  C   UNL     1      26.376 -15.441  -3.602 -0.51 -0.00    +0.000 C 
DOCKED: ATOM     15  O   UNL     1      25.513 -16.135  -4.209 -0.66 -0.00    +0.000 OA
DOCKED: ENDROOT
DOCKED: BRANCH   1  16
DOCKED: ATOM     16  C   UNL     1      25.037 -15.646  -1.469 -0.27 -0.00    +0.000 C 
DOCKED: BRANCH  16  17
DOCKED: ATOM     17  C   UNL     1      25.473 -16.737  -0.488 -0.46 -0.00    +0.000 C 
DOCKED: BRANCH  17  18
DOCKED: ATOM     18  C   UNL     1      25.393 -18.125  -1.133 -0.57 -0.00    +0.000 C 
DOCKED: BRANCH  18  19
DOCKED: ATOM     19  C   UNL     1      24.092 -18.840  -0.739 -0.71 -0.00    +0.000 C 
DOCKED: BRANCH  19  20
DOCKED: ATOM     20  C   UNL     1      22.984 -17.858  -0.338 -0.79 -0.00    +0.000 C 
DOCKED: BRANCH  20  22
DOCKED: ATOM     21  O   UNL     1      20.672 -17.493  -0.820 -2.09 +0.00    +0.000 OA
DOCKED: ATOM     22  C   UNL     1      21.639 -18.299  -0.839 -0.80 -0.00    +0.000 C 
DOCKED: ATOM     23  N   UNL     1      21.460 -19.615  -1.368 -0.64 -0.00    +0.000 N 
DOCKED: ATOM     24  O   UNL     1      20.252 -20.008  -1.835 -2.32 -0.00    +0.000 OA
DOCKED: ATOM     25  H   UNL     1      22.220 -20.241  -1.392 -0.30 -0.00    +0.000 HD
DOCKED: ENDBRANCH  20  22
DOCKED: ENDBRANCH  19  20
DOCKED: ENDBRANCH  18  19
DOCKED: ENDBRANCH  17  18
DOCKED: ENDBRANCH  16  17
DOCKED: ENDBRANCH   1  16
DOCKED: TORSDOF 6
DOCKED: TER
DOCKED: ENDMDL
________________________________________________________________________________


	BEGINNING GENETIC ALGORITHM DOCKING 59 of 100
Run: 59 Seed: 888564297 1452261097 [ Run 59 of 100 GA/GALS ]
Beginning LAMARCKIAN GENETIC ALGORITHM (LGA), with a maximum of 2500000 energy evaluations.

Final-Value: -15.199


	FINAL GENETIC ALGORITHM DOCKED STATE
	_______________________________________________


Detailed state:  trans 26.079 -14.968 -1.484 quatxyzw 0.378337 0.023676 0.914882 -0.138894 center -0.011 0.081 -0.051 ntor 6 -52.6941 162.6470 178.8676 -42.9780 -137.0987 171.3572
State:	 26.079 -14.968  -1.484   0.382  0.024  0.924 -164.032    -52.69  162.65  178.87  -42.98 -137.10  171.36

DOCKED: MODEL       59
DOCKED: USER    Run = 59
DOCKED: USER    DPF = ligand_dock.biased.dpf
DOCKED: USER  
DOCKED: USER    Estimated Free Energy of Binding    =  -12.42 kcal/mol  [=(1)+(2)+(3)-(4)]
DOCKED: USER    Estimated Inhibition Constant, Ki   =  790.12 pM (picomolar)  [Temperature = 298.15 K]
DOCKED: USER    
DOCKED: USER    (1) Final Intermolecular Energy     =  -14.21 kcal/mol
DOCKED: USER        vdW + Hbond + desolv Energy     =  -14.21 kcal/mol
DOCKED: USER        Electrostatic Energy            =   +0.00 kcal/mol
DOCKED: USER    (2) Final Total Internal Energy     =   -0.99 kcal/mol
DOCKED: USER    (3) Torsional Free Energy           =   +1.79 kcal/mol
DOCKED: USER    (4) Unbound System's Energy  [=(2)] =   -0.99 kcal/mol
DOCKED: USER    
DOCKED: USER    
DOCKED: USER    NEWDPF move ligand.pdbqt
DOCKED: USER    NEWDPF about -0.011000 0.081000 -0.051000
DOCKED: USER    NEWDPF tran0 26.079465 -14.968280 -1.484231
DOCKED: USER    NEWDPF quaternion0 0.378337 0.023676 0.914882 -0.138894
DOCKED: USER    NEWDPF axisangle0 0.382040 0.023908 0.923837 -164.032305
DOCKED: USER    NEWDPF quat0 0.382040 0.023908 0.923837 -164.032305
DOCKED: USER    NEWDPF dihe0 -52.69 162.65 178.87 -42.98 -137.10 171.36 
DOCKED: USER  keepresnum = 1 
DOCKED: USER  
DOCKED: REMARK  Name = 
DOCKED: REMARK  6 active torsions:
DOCKED: REMARK  status: ('A' for Active; 'I' for Inactive)
DOCKED: REMARK    1  A    between atoms: C_2  and  C_5
DOCKED: REMARK    2  A    between atoms: C_5  and  C_6
DOCKED: REMARK    3  A    between atoms: C_6  and  C_7
DOCKED: REMARK    4  A    between atoms: C_7  and  C_8
DOCKED: REMARK    5  A    between atoms: C_8  and  C_9
DOCKED: REMARK    6  A    between atoms: C_9  and  N_10
DOCKED: REMARK                            x       y       z     vdW  Elec       q    Type
DOCKED: REMARK                         _______ _______ _______ _____ _____    ______ ____
DOCKED: USER                              x       y       z     vdW  Elec       q    Type
DOCKED: USER                           _______ _______ _______ _____ _____    ______ ____
DOCKED: ROOT
DOCKED: ATOM      1  N   UNL     1      26.267 -15.791  -1.849 -0.39 -0.00    +0.000 N 
DOCKED: ATOM      2  C   UNL     1      26.186 -15.165  -3.143 -0.49 -0.00    +0.000 C 
DOCKED: ATOM      3  C   UNL     1      27.299 -15.315  -4.109 -0.37 -0.00    +0.000 A 
DOCKED: ATOM      4  C   UNL     1      27.218 -14.733  -5.387 -0.33 -0.00    +0.000 A 
DOCKED: ATOM      5  C   UNL     1      28.266 -14.873  -6.298 -0.33 -0.00    +0.000 A 
DOCKED: ATOM      6  C   UNL     1      29.409 -15.593  -5.950 -0.33 -0.00    +0.000 A 
DOCKED: ATOM      7  C   UNL     1      29.514 -16.180  -4.681 -0.26 -0.00    +0.000 A 
DOCKED: ATOM      8  C   UNL     1      30.665 -16.901  -4.332 -0.18 -0.00    +0.000 A 
DOCKED: ATOM      9  C   UNL     1      30.771 -17.484  -3.069 -0.16 -0.00    +0.000 A 
DOCKED: ATOM     10  C   UNL     1      29.734 -17.354  -2.144 -0.16 -0.00    +0.000 A 
DOCKED: ATOM     11  C   UNL     1      28.569 -16.638  -2.472 -0.24 -0.00    +0.000 A 
DOCKED: ATOM     12  C   UNL     1      28.453 -16.045  -3.748 -0.21 -0.00    +0.000 A 
DOCKED: ATOM     13  O   UNL     1      25.168 -14.486  -3.455 -0.76 -0.00    +0.000 OA
DOCKED: ATOM     14  C   UNL     1      27.468 -16.501  -1.490 -0.39 -0.00    +0.000 C 
DOCKED: ATOM     15  O   UNL     1      27.586 -17.005  -0.339 -0.45 -0.00    +0.000 OA
DOCKED: ENDROOT
DOCKED: BRANCH   1  16
DOCKED: ATOM     16  C   UNL     1      25.185 -15.618  -0.869 -0.31 -0.00    +0.000 C 
DOCKED: BRANCH  16  17
DOCKED: ATOM     17  C   UNL     1      24.063 -16.626  -1.137 -0.51 -0.00    +0.000 C 
DOCKED: BRANCH  17  18
DOCKED: ATOM     18  C   UNL     1      24.631 -18.013  -1.454 -0.67 -0.00    +0.000 C 
DOCKED: BRANCH  18  19
DOCKED: ATOM     19  C   UNL     1      23.835 -19.112  -0.736 -0.64 -0.00    +0.000 C 
DOCKED: BRANCH  19  20
DOCKED: ATOM     20  C   UNL     1      22.655 -18.547   0.067 -0.74 -0.00    +0.000 C 
DOCKED: BRANCH  20  22
DOCKED: ATOM     21  O   UNL     1      20.649 -17.542  -0.756 -2.12 +0.00    +0.000 OA
DOCKED: ATOM     22  C   UNL     1      21.381 -18.567  -0.726 -0.86 -0.00    +0.000 C 
DOCKED: ATOM     23  N   UNL     1      21.011 -19.727  -1.474 -0.75 -0.00    +0.000 N 
DOCKED: ATOM     24  O   UNL     1      19.871 -19.739  -2.202 -2.31 -0.00    +0.000 OA
DOCKED: ATOM     25  H   UNL     1      21.590 -20.524  -1.459 -0.24 -0.00    +0.000 HD
DOCKED: ENDBRANCH  20  22
DOCKED: ENDBRANCH  19  20
DOCKED: ENDBRANCH  18  19
DOCKED: ENDBRANCH  17  18
DOCKED: ENDBRANCH  16  17
DOCKED: ENDBRANCH   1  16
DOCKED: TORSDOF 6
DOCKED: TER
DOCKED: ENDMDL
________________________________________________________________________________


	BEGINNING GENETIC ALGORITHM DOCKING 60 of 100
Run: 60 Seed: 1813586301 285428788 [ Run 60 of 100 GA/GALS ]
Beginning LAMARCKIAN GENETIC ALGORITHM (LGA), with a maximum of 2500000 energy evaluations.

Final-Value: -14.472


	FINAL GENETIC ALGORITHM DOCKED STATE
	_______________________________________________


Detailed state:  trans 27.166 -16.951 -1.364 quatxyzw 0.025125 -0.892270 -0.101701 -0.439181 center -0.011 0.081 -0.051 ntor 6 -60.4284 -160.3057 -78.2030 1.0338 96.5477 8.3667
State:	 27.166 -16.951  -1.364   0.028 -0.993 -0.113 -127.897    -60.43 -160.31  -78.20    1.03   96.55    8.37

DOCKED: MODEL       60
DOCKED: USER    Run = 60
DOCKED: USER    DPF = ligand_dock.biased.dpf
DOCKED: USER  
DOCKED: USER    Estimated Free Energy of Binding    =  -11.91 kcal/mol  [=(1)+(2)+(3)-(4)]
DOCKED: USER    Estimated Inhibition Constant, Ki   =    1.86 nM (nanomolar)  [Temperature = 298.15 K]
DOCKED: USER    
DOCKED: USER    (1) Final Intermolecular Energy     =  -13.70 kcal/mol
DOCKED: USER        vdW + Hbond + desolv Energy     =  -13.70 kcal/mol
DOCKED: USER        Electrostatic Energy            =   +0.00 kcal/mol
DOCKED: USER    (2) Final Total Internal Energy     =   -0.77 kcal/mol
DOCKED: USER    (3) Torsional Free Energy           =   +1.79 kcal/mol
DOCKED: USER    (4) Unbound System's Energy  [=(2)] =   -0.77 kcal/mol
DOCKED: USER    
DOCKED: USER    
DOCKED: USER    NEWDPF move ligand.pdbqt
DOCKED: USER    NEWDPF about -0.011000 0.081000 -0.051000
DOCKED: USER    NEWDPF tran0 27.165554 -16.950670 -1.364490
DOCKED: USER    NEWDPF quaternion0 0.025125 -0.892270 -0.101701 -0.439181
DOCKED: USER    NEWDPF axisangle0 0.027966 -0.993178 -0.113202 -127.896732
DOCKED: USER    NEWDPF quat0 0.027966 -0.993178 -0.113202 -127.896732
DOCKED: USER    NEWDPF dihe0 -60.43 -160.31 -78.20 1.03 96.55 8.37 
DOCKED: USER  keepresnum = 1 
DOCKED: USER  
DOCKED: REMARK  Name = 
DOCKED: REMARK  6 active torsions:
DOCKED: REMARK  status: ('A' for Active; 'I' for Inactive)
DOCKED: REMARK    1  A    between atoms: C_2  and  C_5
DOCKED: REMARK    2  A    between atoms: C_5  and  C_6
DOCKED: REMARK    3  A    between atoms: C_6  and  C_7
DOCKED: REMARK    4  A    between atoms: C_7  and  C_8
DOCKED: REMARK    5  A    between atoms: C_8  and  C_9
DOCKED: REMARK    6  A    between atoms: C_9  and  N_10
DOCKED: REMARK                            x       y       z     vdW  Elec       q    Type
DOCKED: REMARK                         _______ _______ _______ _____ _____    ______ ____
DOCKED: USER                              x       y       z     vdW  Elec       q    Type
DOCKED: USER                           _______ _______ _______ _____ _____    ______ ____
DOCKED: ROOT
DOCKED: ATOM      1  N   UNL     1      27.626 -16.206  -1.645 -0.30 -0.00    +0.000 N 
DOCKED: ATOM      2  C   UNL     1      28.801 -17.036  -1.714 -0.29 -0.00    +0.000 C 
DOCKED: ATOM      3  C   UNL     1      29.602 -17.083  -2.958 -0.19 -0.00    +0.000 A 
DOCKED: ATOM      4  C   UNL     1      30.768 -17.866  -3.029 -0.16 -0.00    +0.000 A 
DOCKED: ATOM      5  C   UNL     1      31.524 -17.910  -4.200 -0.14 -0.00    +0.000 A 
DOCKED: ATOM      6  C   UNL     1      31.131 -17.176  -5.319 -0.19 -0.00    +0.000 A 
DOCKED: ATOM      7  C   UNL     1      29.972 -16.389  -5.276 -0.27 -0.00    +0.000 A 
DOCKED: ATOM      8  C   UNL     1      29.576 -15.654  -6.402 -0.31 -0.00    +0.000 A 
DOCKED: ATOM      9  C   UNL     1      28.422 -14.872  -6.359 -0.33 -0.00    +0.000 A 
DOCKED: ATOM     10  C   UNL     1      27.653 -14.815  -5.197 -0.39 -0.00    +0.000 A 
DOCKED: ATOM     11  C   UNL     1      28.029 -15.542  -4.053 -0.29 -0.00    +0.000 A 
DOCKED: ATOM     12  C   UNL     1      29.197 -16.336  -4.088 -0.23 -0.00    +0.000 A 
DOCKED: ATOM     13  O   UNL     1      29.146 -17.728  -0.716 -0.34 -0.00    +0.000 OA
DOCKED: ATOM     14  C   UNL     1      27.212 -15.481  -2.820 -0.35 -0.00    +0.000 C 
DOCKED: ATOM     15  O   UNL     1      26.152 -14.796  -2.800 -0.41 -0.00    +0.000 OA
DOCKED: ENDROOT
DOCKED: BRANCH   1  16
DOCKED: ATOM     16  C   UNL     1      26.802 -16.181  -0.427 -0.43 -0.00    +0.000 C 
DOCKED: BRANCH  16  17
DOCKED: ATOM     17  C   UNL     1      25.892 -17.412  -0.380 -0.61 -0.00    +0.000 C 
DOCKED: BRANCH  17  18
DOCKED: ATOM     18  C   UNL     1      24.617 -17.187  -1.200 -0.69 -0.00    +0.000 C 
DOCKED: BRANCH  18  19
DOCKED: ATOM     19  C   UNL     1      23.692 -18.410  -1.125 -0.80 -0.00    +0.000 C 
DOCKED: BRANCH  19  20
DOCKED: ATOM     20  C   UNL     1      22.483 -18.171  -0.210 -0.81 -0.00    +0.000 C 
DOCKED: BRANCH  20  22
DOCKED: ATOM     21  O   UNL     1      20.166 -17.862  -0.709 -2.13 +0.00    +0.000 OA
DOCKED: ATOM     22  C   UNL     1      21.196 -18.569  -0.872 -0.82 -0.00    +0.000 C 
DOCKED: ATOM     23  N   UNL     1      21.140 -19.724  -1.712 -0.63 -0.00    +0.000 N 
DOCKED: ATOM     24  O   UNL     1      19.984 -20.073  -2.323 -2.13 -0.00    +0.000 OA
DOCKED: ATOM     25  H   UNL     1      21.948 -20.270  -1.848 -0.45 -0.00    +0.000 HD
DOCKED: ENDBRANCH  20  22
DOCKED: ENDBRANCH  19  20
DOCKED: ENDBRANCH  18  19
DOCKED: ENDBRANCH  17  18
DOCKED: ENDBRANCH  16  17
DOCKED: ENDBRANCH   1  16
DOCKED: TORSDOF 6
DOCKED: TER
DOCKED: ENDMDL
________________________________________________________________________________


	BEGINNING GENETIC ALGORITHM DOCKING 61 of 100
Run: 61 Seed: 779460011 1874141249 [ Run 61 of 100 GA/GALS ]
Beginning LAMARCKIAN GENETIC ALGORITHM (LGA), with a maximum of 2500000 energy evaluations.

Final-Value: -13.859


	FINAL GENETIC ALGORITHM DOCKED STATE
	_______________________________________________


Detailed state:  trans 27.529 -14.855 -1.444 quatxyzw -0.478220 0.076848 -0.847401 0.217512 center -0.011 0.081 -0.051 ntor 6 -5.6815 169.6717 -104.1019 -41.6606 94.6548 -156.0302
State:	 27.529 -14.855  -1.444  -0.490  0.079 -0.868 154.874     -5.68  169.67 -104.10  -41.66   94.65 -156.03

DOCKED: MODEL       61
DOCKED: USER    Run = 61
DOCKED: USER    DPF = ligand_dock.biased.dpf
DOCKED: USER  
DOCKED: USER    Estimated Free Energy of Binding    =  -11.21 kcal/mol  [=(1)+(2)+(3)-(4)]
DOCKED: USER    Estimated Inhibition Constant, Ki   =    6.05 nM (nanomolar)  [Temperature = 298.15 K]
DOCKED: USER    
DOCKED: USER    (1) Final Intermolecular Energy     =  -13.00 kcal/mol
DOCKED: USER        vdW + Hbond + desolv Energy     =  -13.00 kcal/mol
DOCKED: USER        Electrostatic Energy            =   +0.00 kcal/mol
DOCKED: USER    (2) Final Total Internal Energy     =   -0.86 kcal/mol
DOCKED: USER    (3) Torsional Free Energy           =   +1.79 kcal/mol
DOCKED: USER    (4) Unbound System's Energy  [=(2)] =   -0.86 kcal/mol
DOCKED: USER    
DOCKED: USER    
DOCKED: USER    NEWDPF move ligand.pdbqt
DOCKED: USER    NEWDPF about -0.011000 0.081000 -0.051000
DOCKED: USER    NEWDPF tran0 27.528520 -14.854750 -1.444240
DOCKED: USER    NEWDPF quaternion0 -0.478220 0.076848 -0.847401 0.217512
DOCKED: USER    NEWDPF axisangle0 -0.489951 0.078733 -0.868187 154.874122
DOCKED: USER    NEWDPF quat0 -0.489951 0.078733 -0.868187 154.874122
DOCKED: USER    NEWDPF dihe0 -5.68 169.67 -104.10 -41.66 94.65 -156.03 
DOCKED: USER  keepresnum = 1 
DOCKED: USER  
DOCKED: REMARK  Name = 
DOCKED: REMARK  6 active torsions:
DOCKED: REMARK  status: ('A' for Active; 'I' for Inactive)
DOCKED: REMARK    1  A    between atoms: C_2  and  C_5
DOCKED: REMARK    2  A    between atoms: C_5  and  C_6
DOCKED: REMARK    3  A    between atoms: C_6  and  C_7
DOCKED: REMARK    4  A    between atoms: C_7  and  C_8
DOCKED: REMARK    5  A    between atoms: C_8  and  C_9
DOCKED: REMARK    6  A    between atoms: C_9  and  N_10
DOCKED: REMARK                            x       y       z     vdW  Elec       q    Type
DOCKED: REMARK                         _______ _______ _______ _____ _____    ______ ____
DOCKED: USER                              x       y       z     vdW  Elec       q    Type
DOCKED: USER                           _______ _______ _______ _____ _____    ______ ____
DOCKED: ROOT
DOCKED: ATOM      1  N   UNL     1      27.431 -15.624  -1.939 -0.27 -0.00    +0.000 N 
DOCKED: ATOM      2  C   UNL     1      27.279 -14.783  -3.098 -0.31 -0.00    +0.000 C 
DOCKED: ATOM      3  C   UNL     1      28.124 -15.011  -4.293 -0.29 -0.00    +0.000 A 
DOCKED: ATOM      4  C   UNL     1      27.964 -14.216  -5.443 -0.32 -0.00    +0.000 A 
DOCKED: ATOM      5  C   UNL     1      28.759 -14.430  -6.569 -0.33 -0.00    +0.000 A 
DOCKED: ATOM      6  C   UNL     1      29.724 -15.437  -6.569 -0.30 -0.00    +0.000 A 
DOCKED: ATOM      7  C   UNL     1      29.904 -16.241  -5.435 -0.28 -0.00    +0.000 A 
DOCKED: ATOM      8  C   UNL     1      30.877 -17.251  -5.434 -0.23 -0.00    +0.000 A 
DOCKED: ATOM      9  C   UNL     1      31.058 -18.050  -4.305 -0.19 -0.00    +0.000 A 
DOCKED: ATOM     10  C   UNL     1      30.273 -17.851  -3.169 -0.08 -0.00    +0.000 A 
DOCKED: ATOM     11  C   UNL     1      29.289 -16.846  -3.145 -0.20 -0.00    +0.000 A 
DOCKED: ATOM     12  C   UNL     1      29.100 -16.033  -4.284 -0.25 -0.00    +0.000 A 
DOCKED: ATOM     13  O   UNL     1      26.429 -13.850  -3.096 -0.33 -0.00    +0.000 OA
DOCKED: ATOM     14  C   UNL     1      28.456 -16.636  -1.939 -0.31 -0.00    +0.000 C 
DOCKED: ATOM     15  O   UNL     1      28.648 -17.343  -0.911 -0.38 -0.00    +0.000 OA
DOCKED: ENDROOT
DOCKED: BRANCH   1  16
DOCKED: ATOM     16  C   UNL     1      26.624 -15.383  -0.734 -0.38 -0.00    +0.000 C 
DOCKED: BRANCH  16  17
DOCKED: ATOM     17  C   UNL     1      25.707 -16.579  -0.463 -0.43 -0.00    +0.000 C 
DOCKED: BRANCH  17  18
DOCKED: ATOM     18  C   UNL     1      24.402 -16.465  -1.258 -0.53 -0.00    +0.000 C 
DOCKED: BRANCH  18  19
DOCKED: ATOM     19  C   UNL     1      23.995 -17.824  -1.846 -0.62 -0.00    +0.000 C 
DOCKED: BRANCH  19  20
DOCKED: ATOM     20  C   UNL     1      23.331 -18.735  -0.805 -0.82 -0.00    +0.000 C 
DOCKED: BRANCH  20  22
DOCKED: ATOM     21  O   UNL     1      21.149 -17.860  -0.375 -1.86 -0.00    +0.000 OA
DOCKED: ATOM     22  C   UNL     1      21.837 -18.747  -0.947 -0.83 -0.00    +0.000 C 
DOCKED: ATOM     23  N   UNL     1      21.194 -19.735  -1.754 -0.58 -0.00    +0.000 N 
DOCKED: ATOM     24  O   UNL     1      19.848 -19.736  -1.896 -2.36 -0.00    +0.000 OA
DOCKED: ATOM     25  H   UNL     1      21.734 -20.422  -2.210 -0.54 -0.00    +0.000 HD
DOCKED: ENDBRANCH  20  22
DOCKED: ENDBRANCH  19  20
DOCKED: ENDBRANCH  18  19
DOCKED: ENDBRANCH  17  18
DOCKED: ENDBRANCH  16  17
DOCKED: ENDBRANCH   1  16
DOCKED: TORSDOF 6
DOCKED: TER
DOCKED: ENDMDL
________________________________________________________________________________


	BEGINNING GENETIC ALGORITHM DOCKING 62 of 100
Run: 62 Seed: 877819947 1723887572 [ Run 62 of 100 GA/GALS ]
Beginning LAMARCKIAN GENETIC ALGORITHM (LGA), with a maximum of 2500000 energy evaluations.

Final-Value: -13.710


	FINAL GENETIC ALGORITHM DOCKED STATE
	_______________________________________________


Detailed state:  trans 27.499 -16.048 -1.134 quatxyzw 0.495503 0.036152 0.866954 0.039511 center -0.011 0.081 -0.051 ntor 6 112.1204 -163.3129 -108.4486 -90.5932 24.8212 167.7491
State:	 27.499 -16.048  -1.134   0.496  0.036  0.868 175.471    112.12 -163.31 -108.45  -90.59   24.82  167.75

DOCKED: MODEL       62
DOCKED: USER    Run = 62
DOCKED: USER    DPF = ligand_dock.biased.dpf
DOCKED: USER  
DOCKED: USER    Estimated Free Energy of Binding    =  -11.12 kcal/mol  [=(1)+(2)+(3)-(4)]
DOCKED: USER    Estimated Inhibition Constant, Ki   =    7.06 nM (nanomolar)  [Temperature = 298.15 K]
DOCKED: USER    
DOCKED: USER    (1) Final Intermolecular Energy     =  -12.91 kcal/mol
DOCKED: USER        vdW + Hbond + desolv Energy     =  -12.91 kcal/mol
DOCKED: USER        Electrostatic Energy            =   +0.00 kcal/mol
DOCKED: USER    (2) Final Total Internal Energy     =   -0.80 kcal/mol
DOCKED: USER    (3) Torsional Free Energy           =   +1.79 kcal/mol
DOCKED: USER    (4) Unbound System's Energy  [=(2)] =   -0.80 kcal/mol
DOCKED: USER    
DOCKED: USER    
DOCKED: USER    NEWDPF move ligand.pdbqt
DOCKED: USER    NEWDPF about -0.011000 0.081000 -0.051000
DOCKED: USER    NEWDPF tran0 27.499106 -16.047750 -1.133767
DOCKED: USER    NEWDPF quaternion0 0.495503 0.036152 0.866954 0.039511
DOCKED: USER    NEWDPF axisangle0 0.495890 0.036180 0.867631 175.471249
DOCKED: USER    NEWDPF quat0 0.495890 0.036180 0.867631 175.471249
DOCKED: USER    NEWDPF dihe0 112.12 -163.31 -108.45 -90.59 24.82 167.75 
DOCKED: USER  keepresnum = 1 
DOCKED: USER  
DOCKED: REMARK  Name = 
DOCKED: REMARK  6 active torsions:
DOCKED: REMARK  status: ('A' for Active; 'I' for Inactive)
DOCKED: REMARK    1  A    between atoms: C_2  and  C_5
DOCKED: REMARK    2  A    between atoms: C_5  and  C_6
DOCKED: REMARK    3  A    between atoms: C_6  and  C_7
DOCKED: REMARK    4  A    between atoms: C_7  and  C_8
DOCKED: REMARK    5  A    between atoms: C_8  and  C_9
DOCKED: REMARK    6  A    between atoms: C_9  and  N_10
DOCKED: REMARK                            x       y       z     vdW  Elec       q    Type
DOCKED: REMARK                         _______ _______ _______ _____ _____    ______ ____
DOCKED: USER                              x       y       z     vdW  Elec       q    Type
DOCKED: USER                           _______ _______ _______ _____ _____    ______ ____
DOCKED: ROOT
DOCKED: ATOM      1  N   UNL     1      27.809 -16.724  -1.675 -0.34 -0.00    +0.000 N 
DOCKED: ATOM      2  C   UNL     1      27.191 -16.037  -2.779 -0.34 -0.00    +0.000 C 
DOCKED: ATOM      3  C   UNL     1      27.984 -15.717  -3.989 -0.25 -0.00    +0.000 A 
DOCKED: ATOM      4  C   UNL     1      27.385 -15.073  -5.086 -0.41 -0.00    +0.000 A 
DOCKED: ATOM      5  C   UNL     1      28.131 -14.772  -6.226 -0.32 -0.00    +0.000 A 
DOCKED: ATOM      6  C   UNL     1      29.483 -15.108  -6.291 -0.32 -0.00    +0.000 A 
DOCKED: ATOM      7  C   UNL     1      30.104 -15.748  -5.210 -0.22 -0.00    +0.000 A 
DOCKED: ATOM      8  C   UNL     1      31.464 -16.082  -5.275 -0.10 -0.00    +0.000 A 
DOCKED: ATOM      9  C   UNL     1      32.083 -16.717  -4.198 -0.06 -0.00    +0.000 A 
DOCKED: ATOM     10  C   UNL     1      31.354 -17.026  -3.049 -0.10 -0.00    +0.000 A 
DOCKED: ATOM     11  C   UNL     1      29.987 -16.704  -2.961 -0.18 -0.00    +0.000 A 
DOCKED: ATOM     12  C   UNL     1      29.353 -16.060  -4.046 -0.23 -0.00    +0.000 A 
DOCKED: ATOM     13  O   UNL     1      25.975 -15.702  -2.717 -0.49 -0.00    +0.000 OA
DOCKED: ATOM     14  C   UNL     1      29.214 -17.032  -1.741 -0.27 -0.00    +0.000 C 
DOCKED: ATOM     15  O   UNL     1      29.790 -17.579  -0.760 -0.29 -0.00    +0.000 OA
DOCKED: ENDROOT
DOCKED: BRANCH   1  16
DOCKED: ATOM     16  C   UNL     1      27.040 -17.012  -0.455 -0.49 -0.00    +0.000 C 
DOCKED: BRANCH  16  17
DOCKED: ATOM     17  C   UNL     1      26.164 -18.250  -0.661 -0.60 -0.00    +0.000 C 
DOCKED: BRANCH  17  18
DOCKED: ATOM     18  C   UNL     1      24.954 -18.233   0.279 -0.53 -0.00    +0.000 C 
DOCKED: BRANCH  18  19
DOCKED: ATOM     19  C   UNL     1      23.761 -17.516  -0.371 -0.69 -0.00    +0.000 C 
DOCKED: BRANCH  19  20
DOCKED: ATOM     20  C   UNL     1      23.087 -18.370  -1.453 -0.74 -0.00    +0.000 C 
DOCKED: BRANCH  20  22
DOCKED: ATOM     21  O   UNL     1      20.982 -17.518  -0.708 -2.08 -0.00    +0.000 OA
DOCKED: ATOM     22  C   UNL     1      21.605 -18.477  -1.236 -0.52 -0.00    +0.000 C 
DOCKED: ATOM     23  N   UNL     1      20.894 -19.643  -1.656 -0.74 -0.00    +0.000 N 
DOCKED: ATOM     24  O   UNL     1      19.556 -19.733  -1.476 -2.12 -0.00    +0.000 OA
DOCKED: ATOM     25  H   UNL     1      21.381 -20.388  -2.079 -0.49 -0.00    +0.000 HD
DOCKED: ENDBRANCH  20  22
DOCKED: ENDBRANCH  19  20
DOCKED: ENDBRANCH  18  19
DOCKED: ENDBRANCH  17  18
DOCKED: ENDBRANCH  16  17
DOCKED: ENDBRANCH   1  16
DOCKED: TORSDOF 6
DOCKED: TER
DOCKED: ENDMDL
________________________________________________________________________________


	BEGINNING GENETIC ALGORITHM DOCKING 63 of 100
Run: 63 Seed: 2145095132 1517017105 [ Run 63 of 100 GA/GALS ]
Beginning LAMARCKIAN GENETIC ALGORITHM (LGA), with a maximum of 2500000 energy evaluations.

Final-Value: -14.782


	FINAL GENETIC ALGORITHM DOCKED STATE
	_______________________________________________


Detailed state:  trans 25.520 -15.528 -2.283 quatxyzw -0.230152 -0.012181 -0.973077 0.001649 center -0.011 0.081 -0.051 ntor 6 -145.5254 176.2764 164.8178 -91.8664 -78.1209 -155.4234
State:	 25.520 -15.528  -2.283  -0.230 -0.012 -0.973 179.811   -145.53  176.28  164.82  -91.87  -78.12 -155.42

DOCKED: MODEL       63
DOCKED: USER    Run = 63
DOCKED: USER    DPF = ligand_dock.biased.dpf
DOCKED: USER  
DOCKED: USER    Estimated Free Energy of Binding    =  -12.19 kcal/mol  [=(1)+(2)+(3)-(4)]
DOCKED: USER    Estimated Inhibition Constant, Ki   =    1.17 nM (nanomolar)  [Temperature = 298.15 K]
DOCKED: USER    
DOCKED: USER    (1) Final Intermolecular Energy     =  -13.98 kcal/mol
DOCKED: USER        vdW + Hbond + desolv Energy     =  -13.98 kcal/mol
DOCKED: USER        Electrostatic Energy            =   +0.00 kcal/mol
DOCKED: USER    (2) Final Total Internal Energy     =   -0.81 kcal/mol
DOCKED: USER    (3) Torsional Free Energy           =   +1.79 kcal/mol
DOCKED: USER    (4) Unbound System's Energy  [=(2)] =   -0.81 kcal/mol
DOCKED: USER    
DOCKED: USER    
DOCKED: USER    NEWDPF move ligand.pdbqt
DOCKED: USER    NEWDPF about -0.011000 0.081000 -0.051000
DOCKED: USER    NEWDPF tran0 25.520306 -15.528209 -2.283218
DOCKED: USER    NEWDPF quaternion0 -0.230152 -0.012181 -0.973077 0.001649
DOCKED: USER    NEWDPF axisangle0 -0.230152 -0.012181 -0.973078 179.810993
DOCKED: USER    NEWDPF quat0 -0.230152 -0.012181 -0.973078 179.810993
DOCKED: USER    NEWDPF dihe0 -145.53 176.28 164.82 -91.87 -78.12 -155.42 
DOCKED: USER  keepresnum = 1 
DOCKED: USER  
DOCKED: REMARK  Name = 
DOCKED: REMARK  6 active torsions:
DOCKED: REMARK  status: ('A' for Active; 'I' for Inactive)
DOCKED: REMARK    1  A    between atoms: C_2  and  C_5
DOCKED: REMARK    2  A    between atoms: C_5  and  C_6
DOCKED: REMARK    3  A    between atoms: C_6  and  C_7
DOCKED: REMARK    4  A    between atoms: C_7  and  C_8
DOCKED: REMARK    5  A    between atoms: C_8  and  C_9
DOCKED: REMARK    6  A    between atoms: C_9  and  N_10
DOCKED: REMARK                            x       y       z     vdW  Elec       q    Type
DOCKED: REMARK                         _______ _______ _______ _____ _____    ______ ____
DOCKED: USER                              x       y       z     vdW  Elec       q    Type
DOCKED: USER                           _______ _______ _______ _____ _____    ______ ____
DOCKED: ROOT
DOCKED: ATOM      1  N   UNL     1      26.024 -16.227  -2.605 -0.47 -0.00    +0.000 N 
DOCKED: ATOM      2  C   UNL     1      26.158 -15.483  -3.830 -0.55 -0.00    +0.000 C 
DOCKED: ATOM      3  C   UNL     1      27.502 -15.230  -4.400 -0.38 -0.00    +0.000 A 
DOCKED: ATOM      4  C   UNL     1      27.645 -14.530  -5.611 -0.33 -0.00    +0.000 A 
DOCKED: ATOM      5  C   UNL     1      28.910 -14.292  -6.149 -0.30 -0.00    +0.000 A 
DOCKED: ATOM      6  C   UNL     1      30.052 -14.747  -5.489 -0.17 -0.00    +0.000 A 
DOCKED: ATOM      7  C   UNL     1      29.936 -15.444  -4.278 -0.15 -0.00    +0.000 A 
DOCKED: ATOM      8  C   UNL     1      31.085 -15.898  -3.614 -0.07 -0.00    +0.000 A 
DOCKED: ATOM      9  C   UNL     1      30.970 -16.591  -2.408 -0.10 -0.00    +0.000 A 
DOCKED: ATOM     10  C   UNL     1      29.714 -16.838  -1.855 -0.20 -0.00    +0.000 A 
DOCKED: ATOM     11  C   UNL     1      28.547 -16.396  -2.503 -0.24 -0.00    +0.000 A 
DOCKED: ATOM     12  C   UNL     1      28.654 -15.693  -3.724 -0.24 -0.00    +0.000 A 
DOCKED: ATOM     13  O   UNL     1      25.132 -15.041  -4.418 -0.92 -0.00    +0.000 OA
DOCKED: ATOM     14  C   UNL     1      27.213 -16.658  -1.916 -0.39 -0.00    +0.000 C 
DOCKED: ATOM     15  O   UNL     1      27.121 -17.259  -0.809 -0.52 -0.00    +0.000 OA
DOCKED: ENDROOT
DOCKED: BRANCH   1  16
DOCKED: ATOM     16  C   UNL     1      24.698 -16.451  -2.012 -0.53 -0.00    +0.000 C 
DOCKED: BRANCH  16  17
DOCKED: ATOM     17  C   UNL     1      24.378 -17.948  -1.980 -0.53 -0.00    +0.000 C 
DOCKED: BRANCH  17  18
DOCKED: ATOM     18  C   UNL     1      24.588 -18.528  -0.577 -0.71 -0.00    +0.000 C 
DOCKED: BRANCH  18  19
DOCKED: ATOM     19  C   UNL     1      23.311 -18.402   0.267 -0.55 -0.00    +0.000 C 
DOCKED: BRANCH  19  20
DOCKED: ATOM     20  C   UNL     1      22.269 -17.483  -0.385 -0.77 -0.00    +0.000 C 
DOCKED: BRANCH  20  22
DOCKED: ATOM     21  O   UNL     1      19.931 -17.861  -0.706 -1.90 +0.00    +0.000 OA
DOCKED: ATOM     22  C   UNL     1      21.105 -18.259  -0.930 -0.70 -0.00    +0.000 C 
DOCKED: ATOM     23  N   UNL     1      21.321 -19.423  -1.729 -0.65 -0.00    +0.000 N 
DOCKED: ATOM     24  O   UNL     1      20.273 -20.113  -2.235 -2.21 -0.00    +0.000 OA
DOCKED: ATOM     25  H   UNL     1      22.240 -19.727  -1.914 -0.40 -0.00    +0.000 HD
DOCKED: ENDBRANCH  20  22
DOCKED: ENDBRANCH  19  20
DOCKED: ENDBRANCH  18  19
DOCKED: ENDBRANCH  17  18
DOCKED: ENDBRANCH  16  17
DOCKED: ENDBRANCH   1  16
DOCKED: TORSDOF 6
DOCKED: TER
DOCKED: ENDMDL
________________________________________________________________________________


	BEGINNING GENETIC ALGORITHM DOCKING 64 of 100
Run: 64 Seed: 224950533 1351580581 [ Run 64 of 100 GA/GALS ]
Beginning LAMARCKIAN GENETIC ALGORITHM (LGA), with a maximum of 2500000 energy evaluations.

Final-Value: -13.447


	FINAL GENETIC ALGORITHM DOCKED STATE
	_______________________________________________


Detailed state:  trans 27.619 -15.847 -1.715 quatxyzw 0.753371 -0.651061 0.058582 -0.071553 center -0.011 0.081 -0.051 ntor 6 -141.9793 -123.0959 -163.3599 32.7743 -12.7373 178.4968
State:	 27.619 -15.847  -1.715   0.755 -0.653  0.059 -171.794   -141.98 -123.10 -163.36   32.77  -12.74  178.50

DOCKED: MODEL       64
DOCKED: USER    Run = 64
DOCKED: USER    DPF = ligand_dock.biased.dpf
DOCKED: USER  
DOCKED: USER    Estimated Free Energy of Binding    =  -10.87 kcal/mol  [=(1)+(2)+(3)-(4)]
DOCKED: USER    Estimated Inhibition Constant, Ki   =   10.84 nM (nanomolar)  [Temperature = 298.15 K]
DOCKED: USER    
DOCKED: USER    (1) Final Intermolecular Energy     =  -12.66 kcal/mol
DOCKED: USER        vdW + Hbond + desolv Energy     =  -12.66 kcal/mol
DOCKED: USER        Electrostatic Energy            =   +0.00 kcal/mol
DOCKED: USER    (2) Final Total Internal Energy     =   -0.79 kcal/mol
DOCKED: USER    (3) Torsional Free Energy           =   +1.79 kcal/mol
DOCKED: USER    (4) Unbound System's Energy  [=(2)] =   -0.79 kcal/mol
DOCKED: USER    
DOCKED: USER    
DOCKED: USER    NEWDPF move ligand.pdbqt
DOCKED: USER    NEWDPF about -0.011000 0.081000 -0.051000
DOCKED: USER    NEWDPF tran0 27.618703 -15.847359 -1.714700
DOCKED: USER    NEWDPF quaternion0 0.753371 -0.651061 0.058582 -0.071553
DOCKED: USER    NEWDPF axisangle0 0.755307 -0.652734 0.058732 -171.793611
DOCKED: USER    NEWDPF quat0 0.755307 -0.652734 0.058732 -171.793611
DOCKED: USER    NEWDPF dihe0 -141.98 -123.10 -163.36 32.77 -12.74 178.50 
DOCKED: USER  keepresnum = 1 
DOCKED: USER  
DOCKED: REMARK  Name = 
DOCKED: REMARK  6 active torsions:
DOCKED: REMARK  status: ('A' for Active; 'I' for Inactive)
DOCKED: REMARK    1  A    between atoms: C_2  and  C_5
DOCKED: REMARK    2  A    between atoms: C_5  and  C_6
DOCKED: REMARK    3  A    between atoms: C_6  and  C_7
DOCKED: REMARK    4  A    between atoms: C_7  and  C_8
DOCKED: REMARK    5  A    between atoms: C_8  and  C_9
DOCKED: REMARK    6  A    between atoms: C_9  and  N_10
DOCKED: REMARK                            x       y       z     vdW  Elec       q    Type
DOCKED: REMARK                         _______ _______ _______ _____ _____    ______ ____
DOCKED: USER                              x       y       z     vdW  Elec       q    Type
DOCKED: USER                           _______ _______ _______ _____ _____    ______ ____
DOCKED: ROOT
DOCKED: ATOM      1  N   UNL     1      26.847 -15.347  -1.725 -0.30 -0.00    +0.000 N 
DOCKED: ATOM      2  C   UNL     1      27.522 -14.406  -0.869 -0.24 -0.00    +0.000 C 
DOCKED: ATOM      3  C   UNL     1      27.570 -12.972  -1.239 -0.13 -0.00    +0.000 A 
DOCKED: ATOM      4  C   UNL     1      28.200 -12.038  -0.396 -0.08 -0.00    +0.000 A 
DOCKED: ATOM      5  C   UNL     1      28.245 -10.688  -0.743 -0.06 -0.00    +0.000 A 
DOCKED: ATOM      6  C   UNL     1      27.666 -10.247  -1.933 -0.08 -0.00    +0.000 A 
DOCKED: ATOM      7  C   UNL     1      27.035 -11.158  -2.791 -0.10 -0.00    +0.000 A 
DOCKED: ATOM      8  C   UNL     1      26.456 -10.714  -3.988 -0.17 -0.00    +0.000 A 
DOCKED: ATOM      9  C   UNL     1      25.829 -11.621  -4.842 -0.30 -0.00    +0.000 A 
DOCKED: ATOM     10  C   UNL     1      25.773 -12.976  -4.513 -0.28 -0.00    +0.000 A 
DOCKED: ATOM     11  C   UNL     1      26.345 -13.445  -3.317 -0.26 -0.00    +0.000 A 
DOCKED: ATOM     12  C   UNL     1      26.981 -12.534  -2.446 -0.09 -0.00    +0.000 A 
DOCKED: ATOM     13  O   UNL     1      28.075 -14.801   0.194 -0.26 -0.00    +0.000 OA
DOCKED: ATOM     14  C   UNL     1      26.285 -14.883  -2.968 -0.44 -0.00    +0.000 C 
DOCKED: ATOM     15  O   UNL     1      25.743 -15.702  -3.762 -0.64 -0.00    +0.000 OA
DOCKED: ENDROOT
DOCKED: BRANCH   1  16
DOCKED: ATOM     16  C   UNL     1      26.826 -16.778  -1.387 -0.47 -0.00    +0.000 C 
DOCKED: BRANCH  16  17
DOCKED: ATOM     17  C   UNL     1      25.591 -17.103  -0.542 -0.58 -0.00    +0.000 C 
DOCKED: BRANCH  17  18
DOCKED: ATOM     18  C   UNL     1      25.373 -18.616  -0.442 -0.60 -0.00    +0.000 C 
DOCKED: BRANCH  18  19
DOCKED: ATOM     19  C   UNL     1      23.877 -18.953  -0.366 -0.54 -0.00    +0.000 C 
DOCKED: BRANCH  19  20
DOCKED: ATOM     20  C   UNL     1      22.995 -17.810  -0.885 -0.78 -0.00    +0.000 C 
DOCKED: BRANCH  20  22
DOCKED: ATOM     21  O   UNL     1      20.634 -17.483  -0.711 -2.08 +0.00    +0.000 OA
DOCKED: ATOM     22  C   UNL     1      21.570 -18.245  -1.071 -0.71 -0.00    +0.000 C 
DOCKED: ATOM     23  N   UNL     1      21.270 -19.500  -1.684 -0.65 -0.00    +0.000 N 
DOCKED: ATOM     24  O   UNL     1      19.986 -19.885  -1.867 -2.28 -0.00    +0.000 OA
DOCKED: ATOM     25  H   UNL     1      22.003 -20.090  -1.976 -0.51 -0.00    +0.000 HD
DOCKED: ENDBRANCH  20  22
DOCKED: ENDBRANCH  19  20
DOCKED: ENDBRANCH  18  19
DOCKED: ENDBRANCH  17  18
DOCKED: ENDBRANCH  16  17
DOCKED: ENDBRANCH   1  16
DOCKED: TORSDOF 6
DOCKED: TER
DOCKED: ENDMDL
________________________________________________________________________________


	BEGINNING GENETIC ALGORITHM DOCKING 65 of 100
Run: 65 Seed: 1721861466 895024250 [ Run 65 of 100 GA/GALS ]
Beginning LAMARCKIAN GENETIC ALGORITHM (LGA), with a maximum of 2500000 energy evaluations.

Final-Value: -14.354


	FINAL GENETIC ALGORITHM DOCKED STATE
	_______________________________________________


Detailed state:  trans 25.886 -15.689 -4.748 quatxyzw 0.397228 -0.689379 -0.470753 -0.381259 center -0.011 0.081 -0.051 ntor 6 -16.1420 163.7043 -17.5372 -84.5638 -59.7315 -179.1797
State:	 25.886 -15.689  -4.748   0.430 -0.746 -0.509 -135.177    -16.14  163.70  -17.54  -84.56  -59.73 -179.18

DOCKED: MODEL       65
DOCKED: USER    Run = 65
DOCKED: USER    DPF = ligand_dock.biased.dpf
DOCKED: USER  
DOCKED: USER    Estimated Free Energy of Binding    =  -11.84 kcal/mol  [=(1)+(2)+(3)-(4)]
DOCKED: USER    Estimated Inhibition Constant, Ki   =    2.08 nM (nanomolar)  [Temperature = 298.15 K]
DOCKED: USER    
DOCKED: USER    (1) Final Intermolecular Energy     =  -13.63 kcal/mol
DOCKED: USER        vdW + Hbond + desolv Energy     =  -13.63 kcal/mol
DOCKED: USER        Electrostatic Energy            =   +0.00 kcal/mol
DOCKED: USER    (2) Final Total Internal Energy     =   -0.72 kcal/mol
DOCKED: USER    (3) Torsional Free Energy           =   +1.79 kcal/mol
DOCKED: USER    (4) Unbound System's Energy  [=(2)] =   -0.72 kcal/mol
DOCKED: USER    
DOCKED: USER    
DOCKED: USER    NEWDPF move ligand.pdbqt
DOCKED: USER    NEWDPF about -0.011000 0.081000 -0.051000
DOCKED: USER    NEWDPF tran0 25.885789 -15.688638 -4.747704
DOCKED: USER    NEWDPF quaternion0 0.397228 -0.689379 -0.470753 -0.381259
DOCKED: USER    NEWDPF axisangle0 0.429682 -0.745703 -0.509214 -135.176665
DOCKED: USER    NEWDPF quat0 0.429682 -0.745703 -0.509214 -135.176665
DOCKED: USER    NEWDPF dihe0 -16.14 163.70 -17.54 -84.56 -59.73 -179.18 
DOCKED: USER  keepresnum = 1 
DOCKED: USER  
DOCKED: REMARK  Name = 
DOCKED: REMARK  6 active torsions:
DOCKED: REMARK  status: ('A' for Active; 'I' for Inactive)
DOCKED: REMARK    1  A    between atoms: C_2  and  C_5
DOCKED: REMARK    2  A    between atoms: C_5  and  C_6
DOCKED: REMARK    3  A    between atoms: C_6  and  C_7
DOCKED: REMARK    4  A    between atoms: C_7  and  C_8
DOCKED: REMARK    5  A    between atoms: C_8  and  C_9
DOCKED: REMARK    6  A    between atoms: C_9  and  N_10
DOCKED: REMARK                            x       y       z     vdW  Elec       q    Type
DOCKED: REMARK                         _______ _______ _______ _____ _____    ______ ____
DOCKED: USER                              x       y       z     vdW  Elec       q    Type
DOCKED: USER                           _______ _______ _______ _____ _____    ______ ____
DOCKED: ROOT
DOCKED: ATOM      1  N   UNL     1      26.062 -15.004  -4.159 -0.53 -0.00    +0.000 N 
DOCKED: ATOM      2  C   UNL     1      27.385 -14.943  -4.726 -0.44 -0.00    +0.000 C 
DOCKED: ATOM      3  C   UNL     1      27.918 -13.654  -5.223 -0.25 -0.00    +0.000 A 
DOCKED: ATOM      4  C   UNL     1      29.219 -13.575  -5.751 -0.18 -0.00    +0.000 A 
DOCKED: ATOM      5  C   UNL     1      29.722 -12.361  -6.219 -0.09 -0.00    +0.000 A 
DOCKED: ATOM      6  C   UNL     1      28.939 -11.208  -6.170 -0.07 -0.00    +0.000 A 
DOCKED: ATOM      7  C   UNL     1      27.638 -11.261  -5.650 -0.13 -0.00    +0.000 A 
DOCKED: ATOM      8  C   UNL     1      26.849 -10.102  -5.604 -0.12 -0.00    +0.000 A 
DOCKED: ATOM      9  C   UNL     1      25.554 -10.155  -5.089 -0.26 -0.00    +0.000 A 
DOCKED: ATOM     10  C   UNL     1      25.033 -11.360  -4.617 -0.28 -0.00    +0.000 A 
DOCKED: ATOM     11  C   UNL     1      25.804 -12.535  -4.650 -0.26 -0.00    +0.000 A 
DOCKED: ATOM     12  C   UNL     1      27.117 -12.491  -5.170 -0.21 -0.00    +0.000 A 
DOCKED: ATOM     13  O   UNL     1      28.089 -15.987  -4.802 -0.55 -0.00    +0.000 OA
DOCKED: ATOM     14  C   UNL     1      25.251 -13.814  -4.148 -0.45 -0.00    +0.000 C 
DOCKED: ATOM     15  O   UNL     1      24.066 -13.858  -3.713 -0.83 -0.00    +0.000 OA
DOCKED: ENDROOT
DOCKED: BRANCH   1  16
DOCKED: ATOM     16  C   UNL     1      25.509 -16.286  -3.697 -0.16 -0.00    +0.000 C 
DOCKED: BRANCH  16  17
DOCKED: ATOM     17  C   UNL     1      25.789 -16.475  -2.204 -0.54 -0.00    +0.000 C 
DOCKED: BRANCH  17  18
DOCKED: ATOM     18  C   UNL     1      24.485 -16.620  -1.412 -0.60 -0.00    +0.000 C 
DOCKED: BRANCH  18  19
DOCKED: ATOM     19  C   UNL     1      24.135 -18.099  -1.194 -0.77 -0.00    +0.000 C 
DOCKED: BRANCH  19  20
DOCKED: ATOM     20  C   UNL     1      23.052 -18.290  -0.123 -0.78 -0.00    +0.000 C 
DOCKED: BRANCH  20  22
DOCKED: ATOM     21  O   UNL     1      20.949 -17.374  -0.793 -1.95 -0.00    +0.000 OA
DOCKED: ATOM     22  C   UNL     1      21.682 -18.396  -0.728 -0.85 -0.00    +0.000 C 
DOCKED: ATOM     23  N   UNL     1      21.220 -19.638  -1.262 -0.72 -0.00    +0.000 N 
DOCKED: ATOM     24  O   UNL     1      19.992 -19.730  -1.823 -2.39 -0.00    +0.000 OA
DOCKED: ATOM     25  H   UNL     1      21.799 -20.434  -1.221 -0.22 -0.00    +0.000 HD
DOCKED: ENDBRANCH  20  22
DOCKED: ENDBRANCH  19  20
DOCKED: ENDBRANCH  18  19
DOCKED: ENDBRANCH  17  18
DOCKED: ENDBRANCH  16  17
DOCKED: ENDBRANCH   1  16
DOCKED: TORSDOF 6
DOCKED: TER
DOCKED: ENDMDL
________________________________________________________________________________


	BEGINNING GENETIC ALGORITHM DOCKING 66 of 100
Run: 66 Seed: 1946754511 1866264865 [ Run 66 of 100 GA/GALS ]
Beginning LAMARCKIAN GENETIC ALGORITHM (LGA), with a maximum of 2500000 energy evaluations.

Final-Value: -13.483


	FINAL GENETIC ALGORITHM DOCKED STATE
	_______________________________________________


Detailed state:  trans 26.716 -15.474 -1.668 quatxyzw -0.431357 0.047845 -0.897990 0.072498 center -0.011 0.081 -0.051 ntor 6 133.6063 -27.3719 87.0641 51.7181 33.6822 179.6090
State:	 26.716 -15.474  -1.668  -0.432  0.048 -0.900 171.685    133.61  -27.37   87.06   51.72   33.68  179.61

DOCKED: MODEL       66
DOCKED: USER    Run = 66
DOCKED: USER    DPF = ligand_dock.biased.dpf
DOCKED: USER  
DOCKED: USER    Estimated Free Energy of Binding    =  -11.05 kcal/mol  [=(1)+(2)+(3)-(4)]
DOCKED: USER    Estimated Inhibition Constant, Ki   =    7.97 nM (nanomolar)  [Temperature = 298.15 K]
DOCKED: USER    
DOCKED: USER    (1) Final Intermolecular Energy     =  -12.84 kcal/mol
DOCKED: USER        vdW + Hbond + desolv Energy     =  -12.84 kcal/mol
DOCKED: USER        Electrostatic Energy            =   +0.00 kcal/mol
DOCKED: USER    (2) Final Total Internal Energy     =   -0.65 kcal/mol
DOCKED: USER    (3) Torsional Free Energy           =   +1.79 kcal/mol
DOCKED: USER    (4) Unbound System's Energy  [=(2)] =   -0.65 kcal/mol
DOCKED: USER    
DOCKED: USER    
DOCKED: USER    NEWDPF move ligand.pdbqt
DOCKED: USER    NEWDPF about -0.011000 0.081000 -0.051000
DOCKED: USER    NEWDPF tran0 26.715680 -15.474084 -1.668454
DOCKED: USER    NEWDPF quaternion0 -0.431357 0.047845 -0.897990 0.072498
DOCKED: USER    NEWDPF axisangle0 -0.432495 0.047971 -0.900359 171.685065
DOCKED: USER    NEWDPF quat0 -0.432495 0.047971 -0.900359 171.685065
DOCKED: USER    NEWDPF dihe0 133.61 -27.37 87.06 51.72 33.68 179.61 
DOCKED: USER  keepresnum = 1 
DOCKED: USER  
DOCKED: REMARK  Name = 
DOCKED: REMARK  6 active torsions:
DOCKED: REMARK  status: ('A' for Active; 'I' for Inactive)
DOCKED: REMARK    1  A    between atoms: C_2  and  C_5
DOCKED: REMARK    2  A    between atoms: C_5  and  C_6
DOCKED: REMARK    3  A    between atoms: C_6  and  C_7
DOCKED: REMARK    4  A    between atoms: C_7  and  C_8
DOCKED: REMARK    5  A    between atoms: C_8  and  C_9
DOCKED: REMARK    6  A    between atoms: C_9  and  N_10
DOCKED: REMARK                            x       y       z     vdW  Elec       q    Type
DOCKED: REMARK                         _______ _______ _______ _____ _____    ______ ____
DOCKED: USER                              x       y       z     vdW  Elec       q    Type
DOCKED: USER                           _______ _______ _______ _____ _____    ______ ____
DOCKED: ROOT
DOCKED: ATOM      1  N   UNL     1      26.908 -16.198  -2.203 -0.36 -0.00    +0.000 N 
DOCKED: ATOM      2  C   UNL     1      26.668 -15.343  -3.337 -0.45 -0.00    +0.000 C 
DOCKED: ATOM      3  C   UNL     1      27.687 -15.228  -4.406 -0.36 -0.00    +0.000 A 
DOCKED: ATOM      4  C   UNL     1      27.452 -14.420  -5.533 -0.31 -0.00    +0.000 A 
DOCKED: ATOM      5  C   UNL     1      28.411 -14.311  -6.540 -0.28 -0.00    +0.000 A 
DOCKED: ATOM      6  C   UNL     1      29.617 -15.004  -6.441 -0.31 -0.00    +0.000 A 
DOCKED: ATOM      7  C   UNL     1      29.876 -15.814  -5.327 -0.25 -0.00    +0.000 A 
DOCKED: ATOM      8  C   UNL     1      31.091 -16.507  -5.226 -0.15 -0.00    +0.000 A 
DOCKED: ATOM      9  C   UNL     1      31.350 -17.311  -4.117 -0.13 -0.00    +0.000 A 
DOCKED: ATOM     10  C   UNL     1      30.404 -17.433  -3.099 -0.18 -0.00    +0.000 A 
DOCKED: ATOM     11  C   UNL     1      29.177 -16.749  -3.177 -0.21 -0.00    +0.000 A 
DOCKED: ATOM     12  C   UNL     1      28.907 -15.932  -4.297 -0.26 -0.00    +0.000 A 
DOCKED: ATOM     13  O   UNL     1      25.592 -14.689  -3.420 -0.59 -0.00    +0.000 OA
DOCKED: ATOM     14  C   UNL     1      28.173 -16.878  -2.096 -0.27 -0.00    +0.000 C 
DOCKED: ATOM     15  O   UNL     1      28.429 -17.583  -1.081 -0.41 -0.00    +0.000 OA
DOCKED: ENDROOT
DOCKED: BRANCH   1  16
DOCKED: ATOM     16  C   UNL     1      25.920 -16.290  -1.118 -0.52 -0.00    +0.000 C 
DOCKED: BRANCH  16  17
DOCKED: ATOM     17  C   UNL     1      24.948 -17.442  -1.385 -0.68 -0.00    +0.000 C 
DOCKED: BRANCH  17  18
DOCKED: ATOM     18  C   UNL     1      23.545 -17.114  -0.862 -0.69 -0.00    +0.000 C 
DOCKED: BRANCH  18  19
DOCKED: ATOM     19  C   UNL     1      23.018 -18.237   0.043 -0.76 -0.00    +0.000 C 
DOCKED: BRANCH  19  20
DOCKED: ATOM     20  C   UNL     1      22.252 -19.309  -0.743 -0.77 -0.00    +0.000 C 
DOCKED: BRANCH  20  22
DOCKED: ATOM     21  O   UNL     1      20.317 -17.946  -1.073 -2.16 -0.00    +0.000 OA
DOCKED: ATOM     22  C   UNL     1      20.771 -19.066  -0.719 -0.90 -0.00    +0.000 C 
DOCKED: ATOM     23  N   UNL     1      19.872 -20.108  -0.332 -0.74 -0.00    +0.000 N 
DOCKED: ATOM     24  O   UNL     1      18.536 -19.894  -0.327 -1.05 -0.00    +0.000 OA
DOCKED: ATOM     25  H   UNL     1      20.227 -20.987  -0.066 -0.05 -0.00    +0.000 HD
DOCKED: ENDBRANCH  20  22
DOCKED: ENDBRANCH  19  20
DOCKED: ENDBRANCH  18  19
DOCKED: ENDBRANCH  17  18
DOCKED: ENDBRANCH  16  17
DOCKED: ENDBRANCH   1  16
DOCKED: TORSDOF 6
DOCKED: TER
DOCKED: ENDMDL
________________________________________________________________________________


	BEGINNING GENETIC ALGORITHM DOCKING 67 of 100
Run: 67 Seed: 592643538 572030121 [ Run 67 of 100 GA/GALS ]
Beginning LAMARCKIAN GENETIC ALGORITHM (LGA), with a maximum of 2500000 energy evaluations.

Final-Value: -13.931


	FINAL GENETIC ALGORITHM DOCKED STATE
	_______________________________________________


Detailed state:  trans 26.435 -16.850 -1.599 quatxyzw 0.076570 -0.915170 -0.095900 -0.383932 center -0.011 0.081 -0.051 ntor 6 -13.8364 -136.6675 -33.3513 25.2196 76.7432 15.8124
State:	 26.435 -16.850  -1.599   0.083 -0.991 -0.104 -134.845    -13.84 -136.67  -33.35   25.22   76.74   15.81

DOCKED: MODEL       67
DOCKED: USER    Run = 67
DOCKED: USER    DPF = ligand_dock.biased.dpf
DOCKED: USER  
DOCKED: USER    Estimated Free Energy of Binding    =  -11.48 kcal/mol  [=(1)+(2)+(3)-(4)]
DOCKED: USER    Estimated Inhibition Constant, Ki   =    3.85 nM (nanomolar)  [Temperature = 298.15 K]
DOCKED: USER    
DOCKED: USER    (1) Final Intermolecular Energy     =  -13.27 kcal/mol
DOCKED: USER        vdW + Hbond + desolv Energy     =  -13.27 kcal/mol
DOCKED: USER        Electrostatic Energy            =   +0.00 kcal/mol
DOCKED: USER    (2) Final Total Internal Energy     =   -0.66 kcal/mol
DOCKED: USER    (3) Torsional Free Energy           =   +1.79 kcal/mol
DOCKED: USER    (4) Unbound System's Energy  [=(2)] =   -0.66 kcal/mol
DOCKED: USER    
DOCKED: USER    
DOCKED: USER    NEWDPF move ligand.pdbqt
DOCKED: USER    NEWDPF about -0.011000 0.081000 -0.051000
DOCKED: USER    NEWDPF tran0 26.435485 -16.850121 -1.599238
DOCKED: USER    NEWDPF quaternion0 0.076570 -0.915170 -0.095900 -0.383932
DOCKED: USER    NEWDPF axisangle0 0.082925 -0.991129 -0.103860 -134.845061
DOCKED: USER    NEWDPF quat0 0.082925 -0.991129 -0.103860 -134.845061
DOCKED: USER    NEWDPF dihe0 -13.84 -136.67 -33.35 25.22 76.74 15.81 
DOCKED: USER  keepresnum = 1 
DOCKED: USER  
DOCKED: REMARK  Name = 
DOCKED: REMARK  6 active torsions:
DOCKED: REMARK  status: ('A' for Active; 'I' for Inactive)
DOCKED: REMARK    1  A    between atoms: C_2  and  C_5
DOCKED: REMARK    2  A    between atoms: C_5  and  C_6
DOCKED: REMARK    3  A    between atoms: C_6  and  C_7
DOCKED: REMARK    4  A    between atoms: C_7  and  C_8
DOCKED: REMARK    5  A    between atoms: C_8  and  C_9
DOCKED: REMARK    6  A    between atoms: C_9  and  N_10
DOCKED: REMARK                            x       y       z     vdW  Elec       q    Type
DOCKED: REMARK                         _______ _______ _______ _____ _____    ______ ____
DOCKED: USER                              x       y       z     vdW  Elec       q    Type
DOCKED: USER                           _______ _______ _______ _____ _____    ______ ____
DOCKED: ROOT
DOCKED: ATOM      1  N   UNL     1      26.862 -16.060  -1.797 -0.35 -0.00    +0.000 N 
DOCKED: ATOM      2  C   UNL     1      28.103 -16.788  -1.735 -0.34 -0.00    +0.000 C 
DOCKED: ATOM      3  C   UNL     1      29.058 -16.720  -2.865 -0.22 -0.00    +0.000 A 
DOCKED: ATOM      4  C   UNL     1      30.286 -17.402  -2.804 -0.17 -0.00    +0.000 A 
DOCKED: ATOM      5  C   UNL     1      31.187 -17.339  -3.867 -0.14 -0.00    +0.000 A 
DOCKED: ATOM      6  C   UNL     1      30.878 -16.597  -5.008 -0.17 -0.00    +0.000 A 
DOCKED: ATOM      7  C   UNL     1      29.659 -15.911  -5.094 -0.26 -0.00    +0.000 A 
DOCKED: ATOM      8  C   UNL     1      29.349 -15.168  -6.242 -0.33 -0.00    +0.000 A 
DOCKED: ATOM      9  C   UNL     1      28.135 -14.486  -6.329 -0.29 -0.00    +0.000 A 
DOCKED: ATOM     10  C   UNL     1      27.221 -14.537  -5.275 -0.34 -0.00    +0.000 A 
DOCKED: ATOM     11  C   UNL     1      27.511 -15.273  -4.113 -0.35 -0.00    +0.000 A 
DOCKED: ATOM     12  C   UNL     1      28.737 -15.967  -4.016 -0.25 -0.00    +0.000 A 
DOCKED: ATOM     13  O   UNL     1      28.377 -17.486  -0.720 -0.42 -0.00    +0.000 OA
DOCKED: ATOM     14  C   UNL     1      26.541 -15.327  -2.995 -0.44 -0.00    +0.000 C 
DOCKED: ATOM     15  O   UNL     1      25.432 -14.733  -3.095 -0.57 -0.00    +0.000 OA
DOCKED: ENDROOT
DOCKED: BRANCH   1  16
DOCKED: ATOM     16  C   UNL     1      25.891 -16.150  -0.697 -0.47 -0.00    +0.000 C 
DOCKED: BRANCH  16  17
DOCKED: ATOM     17  C   UNL     1      25.222 -17.527  -0.693 -0.68 -0.00    +0.000 C 
DOCKED: BRANCH  17  18
DOCKED: ATOM     18  C   UNL     1      23.805 -17.455  -1.271 -0.72 -0.00    +0.000 C 
DOCKED: BRANCH  18  19
DOCKED: ATOM     19  C   UNL     1      22.928 -18.590  -0.723 -0.83 -0.00    +0.000 C 
DOCKED: BRANCH  19  20
DOCKED: ATOM     20  C   UNL     1      21.448 -18.194  -0.636 -0.78 -0.00    +0.000 C 
DOCKED: BRANCH  20  22
DOCKED: ATOM     21  O   UNL     1      20.068 -19.755  -1.807 -2.37 -0.00    +0.000 OA
DOCKED: ATOM     22  C   UNL     1      20.546 -19.392  -0.699 -0.90 -0.00    +0.000 C 
DOCKED: ATOM     23  N   UNL     1      20.255 -20.143   0.482 -0.71 -0.00    +0.000 N 
DOCKED: ATOM     24  O   UNL     1      19.455 -21.233   0.422 -0.84 -0.00    +0.000 OA
DOCKED: ATOM     25  H   UNL     1      20.638 -19.865   1.346 -0.33 -0.00    +0.000 HD
DOCKED: ENDBRANCH  20  22
DOCKED: ENDBRANCH  19  20
DOCKED: ENDBRANCH  18  19
DOCKED: ENDBRANCH  17  18
DOCKED: ENDBRANCH  16  17
DOCKED: ENDBRANCH   1  16
DOCKED: TORSDOF 6
DOCKED: TER
DOCKED: ENDMDL
________________________________________________________________________________


	BEGINNING GENETIC ALGORITHM DOCKING 68 of 100
Run: 68 Seed: 917025894 2032263641 [ Run 68 of 100 GA/GALS ]
Beginning LAMARCKIAN GENETIC ALGORITHM (LGA), with a maximum of 2500000 energy evaluations.

Final-Value: -13.113


	FINAL GENETIC ALGORITHM DOCKED STATE
	_______________________________________________


Detailed state:  trans 27.617 -15.295 -1.139 quatxyzw 0.607460 -0.676135 -0.145445 0.390742 center -0.011 0.081 -0.051 ntor 6 35.7547 -125.4806 24.1790 9.7553 89.4378 -178.6925
State:	 27.617 -15.295  -1.139   0.660 -0.735 -0.158 133.999     35.75 -125.48   24.18    9.76   89.44 -178.69

DOCKED: MODEL       68
DOCKED: USER    Run = 68
DOCKED: USER    DPF = ligand_dock.biased.dpf
DOCKED: USER  
DOCKED: USER    Estimated Free Energy of Binding    =  -10.61 kcal/mol  [=(1)+(2)+(3)-(4)]
DOCKED: USER    Estimated Inhibition Constant, Ki   =   16.76 nM (nanomolar)  [Temperature = 298.15 K]
DOCKED: USER    
DOCKED: USER    (1) Final Intermolecular Energy     =  -12.40 kcal/mol
DOCKED: USER        vdW + Hbond + desolv Energy     =  -12.40 kcal/mol
DOCKED: USER        Electrostatic Energy            =   +0.00 kcal/mol
DOCKED: USER    (2) Final Total Internal Energy     =   -0.71 kcal/mol
DOCKED: USER    (3) Torsional Free Energy           =   +1.79 kcal/mol
DOCKED: USER    (4) Unbound System's Energy  [=(2)] =   -0.71 kcal/mol
DOCKED: USER    
DOCKED: USER    
DOCKED: USER    NEWDPF move ligand.pdbqt
DOCKED: USER    NEWDPF about -0.011000 0.081000 -0.051000
DOCKED: USER    NEWDPF tran0 27.617461 -15.294943 -1.139396
DOCKED: USER    NEWDPF quaternion0 0.607460 -0.676135 -0.145445 0.390742
DOCKED: USER    NEWDPF axisangle0 0.659924 -0.734530 -0.158007 133.998704
DOCKED: USER    NEWDPF quat0 0.659924 -0.734530 -0.158007 133.998704
DOCKED: USER    NEWDPF dihe0 35.75 -125.48 24.18 9.76 89.44 -178.69 
DOCKED: USER  keepresnum = 1 
DOCKED: USER  
DOCKED: REMARK  Name = 
DOCKED: REMARK  6 active torsions:
DOCKED: REMARK  status: ('A' for Active; 'I' for Inactive)
DOCKED: REMARK    1  A    between atoms: C_2  and  C_5
DOCKED: REMARK    2  A    between atoms: C_5  and  C_6
DOCKED: REMARK    3  A    between atoms: C_6  and  C_7
DOCKED: REMARK    4  A    between atoms: C_7  and  C_8
DOCKED: REMARK    5  A    between atoms: C_8  and  C_9
DOCKED: REMARK    6  A    between atoms: C_9  and  N_10
DOCKED: REMARK                            x       y       z     vdW  Elec       q    Type
DOCKED: REMARK                         _______ _______ _______ _____ _____    ______ ____
DOCKED: USER                              x       y       z     vdW  Elec       q    Type
DOCKED: USER                           _______ _______ _______ _____ _____    ______ ____
DOCKED: ROOT
DOCKED: ATOM      1  N   UNL     1      26.917 -14.770  -0.857 -0.27 -0.00    +0.000 N 
DOCKED: ATOM      2  C   UNL     1      27.254 -15.155   0.489 -0.27 -0.00    +0.000 C 
DOCKED: ATOM      3  C   UNL     1      27.472 -14.117   1.523 -0.25 -0.00    +0.000 A 
DOCKED: ATOM      4  C   UNL     1      27.772 -14.481   2.848 -0.27 -0.00    +0.000 A 
DOCKED: ATOM      5  C   UNL     1      27.977 -13.504   3.823 -0.39 -0.00    +0.000 A 
DOCKED: ATOM      6  C   UNL     1      27.886 -12.151   3.494 -0.26 +0.00    +0.000 A 
DOCKED: ATOM      7  C   UNL     1      27.591 -11.763   2.179 -0.22 +0.00    +0.000 A 
DOCKED: ATOM      8  C   UNL     1      27.504 -10.403   1.849 -0.19 +0.00    +0.000 A 
DOCKED: ATOM      9  C   UNL     1      27.211 -10.017   0.541 -0.17 +0.00    +0.000 A 
DOCKED: ATOM     10  C   UNL     1      27.004 -10.979  -0.448 -0.12 +0.00    +0.000 A 
DOCKED: ATOM     11  C   UNL     1      27.083 -12.349  -0.141 -0.17 -0.00    +0.000 A 
DOCKED: ATOM     12  C   UNL     1      27.379 -12.749   1.181 -0.22 -0.00    +0.000 A 
DOCKED: ATOM     13  O   UNL     1      27.368 -16.376   0.788 -0.35 -0.00    +0.000 OA
DOCKED: ATOM     14  C   UNL     1      26.863 -13.370  -1.191 -0.19 -0.00    +0.000 C 
DOCKED: ATOM     15  O   UNL     1      26.630 -13.010  -2.379 -0.22 -0.00    +0.000 OA
DOCKED: ENDROOT
DOCKED: BRANCH   1  16
DOCKED: ATOM     16  C   UNL     1      26.736 -15.791  -1.900 -0.40 -0.00    +0.000 C 
DOCKED: BRANCH  16  17
DOCKED: ATOM     17  C   UNL     1      25.258 -16.175  -2.013 -0.57 -0.00    +0.000 C 
DOCKED: BRANCH  17  18
DOCKED: ATOM     18  C   UNL     1      24.921 -17.352  -1.091 -0.69 -0.00    +0.000 C 
DOCKED: BRANCH  18  19
DOCKED: ATOM     19  C   UNL     1      23.515 -17.895  -1.383 -0.74 -0.00    +0.000 C 
DOCKED: BRANCH  19  20
DOCKED: ATOM     20  C   UNL     1      22.877 -18.554  -0.152 -0.79 -0.00    +0.000 C 
DOCKED: BRANCH  20  22
DOCKED: ATOM     21  O   UNL     1      20.694 -17.859  -0.832 -2.28 -0.00    +0.000 OA
DOCKED: ATOM     22  C   UNL     1      21.404 -18.775  -0.339 -0.83 -0.00    +0.000 C 
DOCKED: ATOM     23  N   UNL     1      20.811 -20.029   0.006 -0.69 -0.00    +0.000 N 
DOCKED: ATOM     24  O   UNL     1      19.486 -20.234  -0.178 -1.26 -0.00    +0.000 OA
DOCKED: ATOM     25  H   UNL     1      21.369 -20.748   0.381 -0.59 -0.00    +0.000 HD
DOCKED: ENDBRANCH  20  22
DOCKED: ENDBRANCH  19  20
DOCKED: ENDBRANCH  18  19
DOCKED: ENDBRANCH  17  18
DOCKED: ENDBRANCH  16  17
DOCKED: ENDBRANCH   1  16
DOCKED: TORSDOF 6
DOCKED: TER
DOCKED: ENDMDL
________________________________________________________________________________


	BEGINNING GENETIC ALGORITHM DOCKING 69 of 100
Run: 69 Seed: 889088046 1111200767 [ Run 69 of 100 GA/GALS ]
Beginning LAMARCKIAN GENETIC ALGORITHM (LGA), with a maximum of 2500000 energy evaluations.

Final-Value: -13.483


	FINAL GENETIC ALGORITHM DOCKED STATE
	_______________________________________________


Detailed state:  trans 27.205 -15.807 -0.606 quatxyzw 0.606369 -0.154073 0.780111 -0.002278 center -0.011 0.081 -0.051 ntor 6 153.5018 164.7259 -66.8567 -103.1811 59.2475 -158.2028
State:	 27.205 -15.807  -0.606   0.606 -0.154  0.780 -179.739    153.50  164.73  -66.86 -103.18   59.25 -158.20

DOCKED: MODEL       69
DOCKED: USER    Run = 69
DOCKED: USER    DPF = ligand_dock.biased.dpf
DOCKED: USER  
DOCKED: USER    Estimated Free Energy of Binding    =  -10.80 kcal/mol  [=(1)+(2)+(3)-(4)]
DOCKED: USER    Estimated Inhibition Constant, Ki   =   12.04 nM (nanomolar)  [Temperature = 298.15 K]
DOCKED: USER    
DOCKED: USER    (1) Final Intermolecular Energy     =  -12.59 kcal/mol
DOCKED: USER        vdW + Hbond + desolv Energy     =  -12.59 kcal/mol
DOCKED: USER        Electrostatic Energy            =   +0.00 kcal/mol
DOCKED: USER    (2) Final Total Internal Energy     =   -0.89 kcal/mol
DOCKED: USER    (3) Torsional Free Energy           =   +1.79 kcal/mol
DOCKED: USER    (4) Unbound System's Energy  [=(2)] =   -0.89 kcal/mol
DOCKED: USER    
DOCKED: USER    
DOCKED: USER    NEWDPF move ligand.pdbqt
DOCKED: USER    NEWDPF about -0.011000 0.081000 -0.051000
DOCKED: USER    NEWDPF tran0 27.205298 -15.807397 -0.606124
DOCKED: USER    NEWDPF quaternion0 0.606369 -0.154073 0.780111 -0.002278
DOCKED: USER    NEWDPF axisangle0 0.606371 -0.154073 0.780113 -179.738951
DOCKED: USER    NEWDPF quat0 0.606371 -0.154073 0.780113 -179.738951
DOCKED: USER    NEWDPF dihe0 153.50 164.73 -66.86 -103.18 59.25 -158.20 
DOCKED: USER  keepresnum = 1 
DOCKED: USER  
DOCKED: REMARK  Name = 
DOCKED: REMARK  6 active torsions:
DOCKED: REMARK  status: ('A' for Active; 'I' for Inactive)
DOCKED: REMARK    1  A    between atoms: C_2  and  C_5
DOCKED: REMARK    2  A    between atoms: C_5  and  C_6
DOCKED: REMARK    3  A    between atoms: C_6  and  C_7
DOCKED: REMARK    4  A    between atoms: C_7  and  C_8
DOCKED: REMARK    5  A    between atoms: C_8  and  C_9
DOCKED: REMARK    6  A    between atoms: C_9  and  N_10
DOCKED: REMARK                            x       y       z     vdW  Elec       q    Type
DOCKED: REMARK                         _______ _______ _______ _____ _____    ______ ____
DOCKED: USER                              x       y       z     vdW  Elec       q    Type
DOCKED: USER                           _______ _______ _______ _____ _____    ______ ____
DOCKED: ROOT
DOCKED: ATOM      1  N   UNL     1      27.159 -16.337  -1.357 -0.35 -0.00    +0.000 N 
DOCKED: ATOM      2  C   UNL     1      26.519 -15.231  -2.020 -0.39 -0.00    +0.000 C 
DOCKED: ATOM      3  C   UNL     1      27.047 -14.738  -3.313 -0.31 -0.00    +0.000 A 
DOCKED: ATOM      4  C   UNL     1      26.414 -13.678  -3.986 -0.35 -0.00    +0.000 A 
DOCKED: ATOM      5  C   UNL     1      26.910 -13.213  -5.204 -0.20 -0.00    +0.000 A 
DOCKED: ATOM      6  C   UNL     1      28.045 -13.796  -5.770 -0.27 -0.00    +0.000 A 
DOCKED: ATOM      7  C   UNL     1      28.696 -14.852  -5.118 -0.29 -0.00    +0.000 A 
DOCKED: ATOM      8  C   UNL     1      29.838 -15.434  -5.685 -0.26 -0.00    +0.000 A 
DOCKED: ATOM      9  C   UNL     1      30.487 -16.484  -5.035 -0.21 -0.00    +0.000 A 
DOCKED: ATOM     10  C   UNL     1      30.006 -16.963  -3.817 -0.21 -0.00    +0.000 A 
DOCKED: ATOM     11  C   UNL     1      28.861 -16.397  -3.228 -0.22 -0.00    +0.000 A 
DOCKED: ATOM     12  C   UNL     1      28.198 -15.333  -3.879 -0.27 -0.00    +0.000 A 
DOCKED: ATOM     13  O   UNL     1      25.510 -14.679  -1.500 -0.38 -0.00    +0.000 OA
DOCKED: ATOM     14  C   UNL     1      28.350 -16.905  -1.934 -0.29 -0.00    +0.000 C 
DOCKED: ATOM     15  O   UNL     1      28.962 -17.834  -1.338 -0.32 -0.00    +0.000 OA
DOCKED: ENDROOT
DOCKED: BRANCH   1  16
DOCKED: ATOM     16  C   UNL     1      26.665 -16.810  -0.055 -0.44 -0.00    +0.000 C 
DOCKED: BRANCH  16  17
DOCKED: ATOM     17  C   UNL     1      26.100 -18.227  -0.186 -0.65 -0.00    +0.000 C 
DOCKED: BRANCH  17  18
DOCKED: ATOM     18  C   UNL     1      24.626 -18.274   0.229 -0.53 -0.00    +0.000 C 
DOCKED: BRANCH  18  19
DOCKED: ATOM     19  C   UNL     1      23.724 -17.703  -0.875 -0.77 -0.00    +0.000 C 
DOCKED: BRANCH  19  20
DOCKED: ATOM     20  C   UNL     1      22.768 -18.757  -1.450 -0.74 -0.00    +0.000 C 
DOCKED: BRANCH  20  22
DOCKED: ATOM     21  O   UNL     1      20.634 -17.747  -1.078 -2.19 -0.00    +0.000 OA
DOCKED: ATOM     22  C   UNL     1      21.415 -18.696  -0.802 -0.85 -0.00    +0.000 C 
DOCKED: ATOM     23  N   UNL     1      20.996 -19.724   0.097 -0.70 -0.00    +0.000 N 
DOCKED: ATOM     24  O   UNL     1      19.770 -19.678   0.668 -0.83 -0.00    +0.000 OA
DOCKED: ATOM     25  H   UNL     1      21.603 -20.472   0.303 -0.57 -0.00    +0.000 HD
DOCKED: ENDBRANCH  20  22
DOCKED: ENDBRANCH  19  20
DOCKED: ENDBRANCH  18  19
DOCKED: ENDBRANCH  17  18
DOCKED: ENDBRANCH  16  17
DOCKED: ENDBRANCH   1  16
DOCKED: TORSDOF 6
DOCKED: TER
DOCKED: ENDMDL
________________________________________________________________________________


	BEGINNING GENETIC ALGORITHM DOCKING 70 of 100
Run: 70 Seed: 66028324 616452510 [ Run 70 of 100 GA/GALS ]
Beginning LAMARCKIAN GENETIC ALGORITHM (LGA), with a maximum of 2500000 energy evaluations.

Final-Value: -14.675


	FINAL GENETIC ALGORITHM DOCKED STATE
	_______________________________________________


Detailed state:  trans 26.586 -14.905 -1.389 quatxyzw 0.436365 -0.107725 0.879981 -0.153670 center -0.011 0.081 -0.051 ntor 6 -57.8434 176.1104 -175.8472 -46.6316 -134.7353 173.1282
State:	 26.586 -14.905  -1.389   0.442 -0.109  0.891 -162.321    -57.84  176.11 -175.85  -46.63 -134.74  173.13

DOCKED: MODEL       70
DOCKED: USER    Run = 70
DOCKED: USER    DPF = ligand_dock.biased.dpf
DOCKED: USER  
DOCKED: USER    Estimated Free Energy of Binding    =  -11.93 kcal/mol  [=(1)+(2)+(3)-(4)]
DOCKED: USER    Estimated Inhibition Constant, Ki   =    1.79 nM (nanomolar)  [Temperature = 298.15 K]
DOCKED: USER    
DOCKED: USER    (1) Final Intermolecular Energy     =  -13.72 kcal/mol
DOCKED: USER        vdW + Hbond + desolv Energy     =  -13.72 kcal/mol
DOCKED: USER        Electrostatic Energy            =   +0.00 kcal/mol
DOCKED: USER    (2) Final Total Internal Energy     =   -0.95 kcal/mol
DOCKED: USER    (3) Torsional Free Energy           =   +1.79 kcal/mol
DOCKED: USER    (4) Unbound System's Energy  [=(2)] =   -0.95 kcal/mol
DOCKED: USER    
DOCKED: USER    
DOCKED: USER    NEWDPF move ligand.pdbqt
DOCKED: USER    NEWDPF about -0.011000 0.081000 -0.051000
DOCKED: USER    NEWDPF tran0 26.586286 -14.905370 -1.389118
DOCKED: USER    NEWDPF quaternion0 0.436365 -0.107725 0.879981 -0.153670
DOCKED: USER    NEWDPF axisangle0 0.441610 -0.109020 0.890559 -162.320712
DOCKED: USER    NEWDPF quat0 0.441610 -0.109020 0.890559 -162.320712
DOCKED: USER    NEWDPF dihe0 -57.84 176.11 -175.85 -46.63 -134.74 173.13 
DOCKED: USER  keepresnum = 1 
DOCKED: USER  
DOCKED: REMARK  Name = 
DOCKED: REMARK  6 active torsions:
DOCKED: REMARK  status: ('A' for Active; 'I' for Inactive)
DOCKED: REMARK    1  A    between atoms: C_2  and  C_5
DOCKED: REMARK    2  A    between atoms: C_5  and  C_6
DOCKED: REMARK    3  A    between atoms: C_6  and  C_7
DOCKED: REMARK    4  A    between atoms: C_7  and  C_8
DOCKED: REMARK    5  A    between atoms: C_8  and  C_9
DOCKED: REMARK    6  A    between atoms: C_9  and  N_10
DOCKED: REMARK                            x       y       z     vdW  Elec       q    Type
DOCKED: REMARK                         _______ _______ _______ _____ _____    ______ ____
DOCKED: USER                              x       y       z     vdW  Elec       q    Type
DOCKED: USER                           _______ _______ _______ _____ _____    ______ ____
DOCKED: ROOT
DOCKED: ATOM      1  N   UNL     1      26.620 -15.629  -1.955 -0.34 -0.00    +0.000 N 
DOCKED: ATOM      2  C   UNL     1      26.533 -14.697  -3.050 -0.40 -0.00    +0.000 C 
DOCKED: ATOM      3  C   UNL     1      27.533 -14.741  -4.141 -0.32 -0.00    +0.000 A 
DOCKED: ATOM      4  C   UNL     1      27.442 -13.856  -5.230 -0.30 -0.00    +0.000 A 
DOCKED: ATOM      5  C   UNL     1      28.383 -13.897  -6.259 -0.29 -0.00    +0.000 A 
DOCKED: ATOM      6  C   UNL     1      29.430 -14.819  -6.219 -0.30 -0.00    +0.000 A 
DOCKED: ATOM      7  C   UNL     1      29.544 -15.710  -5.143 -0.26 -0.00    +0.000 A 
DOCKED: ATOM      8  C   UNL     1      30.598 -16.633  -5.102 -0.21 -0.00    +0.000 A 
DOCKED: ATOM      9  C   UNL     1      30.714 -17.519  -4.031 -0.19 -0.00    +0.000 A 
DOCKED: ATOM     10  C   UNL     1      29.782 -17.494  -2.992 -0.07 -0.00    +0.000 A 
DOCKED: ATOM     11  C   UNL     1      28.715 -16.578  -3.011 -0.19 -0.00    +0.000 A 
DOCKED: ATOM     12  C   UNL     1      28.591 -15.677  -4.092 -0.26 -0.00    +0.000 A 
DOCKED: ATOM     13  O   UNL     1      25.607 -13.840  -3.078 -0.40 -0.00    +0.000 OA
DOCKED: ATOM     14  C   UNL     1      27.727 -16.551  -1.909 -0.35 -0.00    +0.000 C 
DOCKED: ATOM     15  O   UNL     1      27.857 -17.335  -0.928 -0.45 -0.00    +0.000 OA
DOCKED: ENDROOT
DOCKED: BRANCH   1  16
DOCKED: ATOM     16  C   UNL     1      25.655 -15.570  -0.848 -0.42 -0.00    +0.000 C 
DOCKED: BRANCH  16  17
DOCKED: ATOM     17  C   UNL     1      24.396 -16.367  -1.201 -0.48 -0.00    +0.000 C 
DOCKED: BRANCH  17  18
DOCKED: ATOM     18  C   UNL     1      24.756 -17.724  -1.816 -0.63 -0.00    +0.000 C 
DOCKED: BRANCH  18  19
DOCKED: ATOM     19  C   UNL     1      23.930 -18.852  -1.182 -0.70 -0.00    +0.000 C 
DOCKED: BRANCH  19  20
DOCKED: ATOM     20  C   UNL     1      22.843 -18.320  -0.238 -0.81 -0.00    +0.000 C 
DOCKED: BRANCH  20  22
DOCKED: ATOM     21  O   UNL     1      20.638 -17.528  -0.711 -2.11 +0.00    +0.000 OA
DOCKED: ATOM     22  C   UNL     1      21.471 -18.466  -0.830 -0.82 -0.00    +0.000 C 
DOCKED: ATOM     23  N   UNL     1      21.117 -19.645  -1.556 -0.70 -0.00    +0.000 N 
DOCKED: ATOM     24  O   UNL     1      19.886 -19.769  -2.104 -2.33 -0.00    +0.000 OA
DOCKED: ATOM     25  H   UNL     1      21.772 -20.373  -1.658 -0.38 -0.00    +0.000 HD
DOCKED: ENDBRANCH  20  22
DOCKED: ENDBRANCH  19  20
DOCKED: ENDBRANCH  18  19
DOCKED: ENDBRANCH  17  18
DOCKED: ENDBRANCH  16  17
DOCKED: ENDBRANCH   1  16
DOCKED: TORSDOF 6
DOCKED: TER
DOCKED: ENDMDL
________________________________________________________________________________


	BEGINNING GENETIC ALGORITHM DOCKING 71 of 100
Run: 71 Seed: 1344932964 2058536674 [ Run 71 of 100 GA/GALS ]
Beginning LAMARCKIAN GENETIC ALGORITHM (LGA), with a maximum of 2500000 energy evaluations.

Final-Value: -13.060


	FINAL GENETIC ALGORITHM DOCKED STATE
	_______________________________________________


Detailed state:  trans 27.943 -15.771 -2.152 quatxyzw 0.785216 -0.599427 0.136957 0.073250 center -0.011 0.081 -0.051 ntor 6 34.2244 -105.0127 -136.0827 -22.3468 138.6174 179.7027
State:	 27.943 -15.771  -2.152   0.787 -0.601  0.137 171.599     34.22 -105.01 -136.08  -22.35  138.62  179.70

DOCKED: MODEL       71
DOCKED: USER    Run = 71
DOCKED: USER    DPF = ligand_dock.biased.dpf
DOCKED: USER  
DOCKED: USER    Estimated Free Energy of Binding    =  -10.46 kcal/mol  [=(1)+(2)+(3)-(4)]
DOCKED: USER    Estimated Inhibition Constant, Ki   =   21.58 nM (nanomolar)  [Temperature = 298.15 K]
DOCKED: USER    
DOCKED: USER    (1) Final Intermolecular Energy     =  -12.25 kcal/mol
DOCKED: USER        vdW + Hbond + desolv Energy     =  -12.25 kcal/mol
DOCKED: USER        Electrostatic Energy            =   +0.00 kcal/mol
DOCKED: USER    (2) Final Total Internal Energy     =   -0.81 kcal/mol
DOCKED: USER    (3) Torsional Free Energy           =   +1.79 kcal/mol
DOCKED: USER    (4) Unbound System's Energy  [=(2)] =   -0.81 kcal/mol
DOCKED: USER    
DOCKED: USER    
DOCKED: USER    NEWDPF move ligand.pdbqt
DOCKED: USER    NEWDPF about -0.011000 0.081000 -0.051000
DOCKED: USER    NEWDPF tran0 27.943456 -15.770505 -2.152211
DOCKED: USER    NEWDPF quaternion0 0.785216 -0.599427 0.136957 0.073250
DOCKED: USER    NEWDPF axisangle0 0.787332 -0.601041 0.137326 171.598683
DOCKED: USER    NEWDPF quat0 0.787332 -0.601041 0.137326 171.598683
DOCKED: USER    NEWDPF dihe0 34.22 -105.01 -136.08 -22.35 138.62 179.70 
DOCKED: USER  keepresnum = 1 
DOCKED: USER  
DOCKED: REMARK  Name = 
DOCKED: REMARK  6 active torsions:
DOCKED: REMARK  status: ('A' for Active; 'I' for Inactive)
DOCKED: REMARK    1  A    between atoms: C_2  and  C_5
DOCKED: REMARK    2  A    between atoms: C_5  and  C_6
DOCKED: REMARK    3  A    between atoms: C_6  and  C_7
DOCKED: REMARK    4  A    between atoms: C_7  and  C_8
DOCKED: REMARK    5  A    between atoms: C_8  and  C_9
DOCKED: REMARK    6  A    between atoms: C_9  and  N_10
DOCKED: REMARK                            x       y       z     vdW  Elec       q    Type
DOCKED: REMARK                         _______ _______ _______ _____ _____    ______ ____
DOCKED: USER                              x       y       z     vdW  Elec       q    Type
DOCKED: USER                           _______ _______ _______ _____ _____    ______ ____
DOCKED: ROOT
DOCKED: ATOM      1  N   UNL     1      27.136 -15.376  -2.348 -0.28 -0.00    +0.000 N 
DOCKED: ATOM      2  C   UNL     1      27.379 -14.480  -1.247 -0.25 -0.00    +0.000 C 
DOCKED: ATOM      3  C   UNL     1      27.297 -13.016  -1.453 -0.14 -0.00    +0.000 A 
DOCKED: ATOM      4  C   UNL     1      27.503 -12.131  -0.379 -0.13 -0.00    +0.000 A 
DOCKED: ATOM      5  C   UNL     1      27.425 -10.751  -0.572 -0.11 -0.00    +0.000 A 
DOCKED: ATOM      6  C   UNL     1      27.142 -10.232  -1.835 -0.10 -0.00    +0.000 A 
DOCKED: ATOM      7  C   UNL     1      26.935 -11.093  -2.922 -0.09 -0.00    +0.000 A 
DOCKED: ATOM      8  C   UNL     1      26.654 -10.570  -4.192 -0.16 -0.00    +0.000 A 
DOCKED: ATOM      9  C   UNL     1      26.450 -11.426  -5.274 -0.22 -0.00    +0.000 A 
DOCKED: ATOM     10  C   UNL     1      26.524 -12.809  -5.101 -0.14 -0.00    +0.000 A 
DOCKED: ATOM     11  C   UNL     1      26.802 -13.358  -3.837 -0.27 -0.00    +0.000 A 
DOCKED: ATOM     12  C   UNL     1      27.010 -12.498  -2.736 -0.13 -0.00    +0.000 A 
DOCKED: ATOM     13  O   UNL     1      27.666 -14.941  -0.107 -0.28 -0.00    +0.000 OA
DOCKED: ATOM     14  C   UNL     1      26.880 -14.825  -3.654 -0.41 -0.00    +0.000 C 
DOCKED: ATOM     15  O   UNL     1      26.725 -15.592  -4.645 -0.81 -0.00    +0.000 OA
DOCKED: ENDROOT
DOCKED: BRANCH   1  16
DOCKED: ATOM     16  C   UNL     1      27.252 -16.830  -2.163 -0.26 -0.00    +0.000 C 
DOCKED: BRANCH  16  17
DOCKED: ATOM     17  C   UNL     1      25.892 -17.426  -1.789 -0.44 -0.00    +0.000 C 
DOCKED: BRANCH  17  18
DOCKED: ATOM     18  C   UNL     1      25.156 -16.533  -0.784 -0.54 -0.00    +0.000 C 
DOCKED: BRANCH  18  19
DOCKED: ATOM     19  C   UNL     1      23.644 -16.797  -0.818 -0.56 -0.00    +0.000 C 
DOCKED: BRANCH  19  20
DOCKED: ATOM     20  C   UNL     1      23.312 -18.295  -0.787 -0.82 -0.00    +0.000 C 
DOCKED: BRANCH  20  22
DOCKED: ATOM     21  O   UNL     1      21.006 -17.860  -0.331 -1.93 +0.00    +0.000 OA
DOCKED: ATOM     22  C   UNL     1      21.844 -18.545  -0.977 -0.81 -0.00    +0.000 C 
DOCKED: ATOM     23  N   UNL     1      21.391 -19.528  -1.910 -0.42 -0.00    +0.000 N 
DOCKED: ATOM     24  O   UNL     1      20.068 -19.741  -2.094 -2.34 -0.00    +0.000 OA
DOCKED: ATOM     25  H   UNL     1      22.047 -20.055  -2.423 -0.60 -0.00    +0.000 HD
DOCKED: ENDBRANCH  20  22
DOCKED: ENDBRANCH  19  20
DOCKED: ENDBRANCH  18  19
DOCKED: ENDBRANCH  17  18
DOCKED: ENDBRANCH  16  17
DOCKED: ENDBRANCH   1  16
DOCKED: TORSDOF 6
DOCKED: TER
DOCKED: ENDMDL
________________________________________________________________________________


	BEGINNING GENETIC ALGORITHM DOCKING 72 of 100
Run: 72 Seed: 1236685833 379069681 [ Run 72 of 100 GA/GALS ]
Beginning LAMARCKIAN GENETIC ALGORITHM (LGA), with a maximum of 2500000 energy evaluations.

Final-Value: -14.176


	FINAL GENETIC ALGORITHM DOCKED STATE
	_______________________________________________


Detailed state:  trans 26.241 -15.317 -1.293 quatxyzw -0.417252 0.034208 -0.902754 0.098825 center -0.011 0.081 -0.051 ntor 6 38.6592 -148.8956 -78.9043 25.8547 98.2660 -152.9027
State:	 26.241 -15.317  -1.293  -0.419  0.034 -0.907 168.657     38.66 -148.90  -78.90   25.85   98.27 -152.90

DOCKED: MODEL       72
DOCKED: USER    Run = 72
DOCKED: USER    DPF = ligand_dock.biased.dpf
DOCKED: USER  
DOCKED: USER    Estimated Free Energy of Binding    =  -11.68 kcal/mol  [=(1)+(2)+(3)-(4)]
DOCKED: USER    Estimated Inhibition Constant, Ki   =    2.73 nM (nanomolar)  [Temperature = 298.15 K]
DOCKED: USER    
DOCKED: USER    (1) Final Intermolecular Energy     =  -13.47 kcal/mol
DOCKED: USER        vdW + Hbond + desolv Energy     =  -13.47 kcal/mol
DOCKED: USER        Electrostatic Energy            =   +0.00 kcal/mol
DOCKED: USER    (2) Final Total Internal Energy     =   -0.70 kcal/mol
DOCKED: USER    (3) Torsional Free Energy           =   +1.79 kcal/mol
DOCKED: USER    (4) Unbound System's Energy  [=(2)] =   -0.70 kcal/mol
DOCKED: USER    
DOCKED: USER    
DOCKED: USER    NEWDPF move ligand.pdbqt
DOCKED: USER    NEWDPF about -0.011000 0.081000 -0.051000
DOCKED: USER    NEWDPF tran0 26.240800 -15.317218 -1.292745
DOCKED: USER    NEWDPF quaternion0 -0.417252 0.034208 -0.902754 0.098825
DOCKED: USER    NEWDPF axisangle0 -0.419304 0.034376 -0.907195 168.657009
DOCKED: USER    NEWDPF quat0 -0.419304 0.034376 -0.907195 168.657009
DOCKED: USER    NEWDPF dihe0 38.66 -148.90 -78.90 25.85 98.27 -152.90 
DOCKED: USER  keepresnum = 1 
DOCKED: USER  
DOCKED: REMARK  Name = 
DOCKED: REMARK  6 active torsions:
DOCKED: REMARK  status: ('A' for Active; 'I' for Inactive)
DOCKED: REMARK    1  A    between atoms: C_2  and  C_5
DOCKED: REMARK    2  A    between atoms: C_5  and  C_6
DOCKED: REMARK    3  A    between atoms: C_6  and  C_7
DOCKED: REMARK    4  A    between atoms: C_7  and  C_8
DOCKED: REMARK    5  A    between atoms: C_8  and  C_9
DOCKED: REMARK    6  A    between atoms: C_9  and  N_10
DOCKED: REMARK                            x       y       z     vdW  Elec       q    Type
DOCKED: REMARK                         _______ _______ _______ _____ _____    ______ ____
DOCKED: USER                              x       y       z     vdW  Elec       q    Type
DOCKED: USER                           _______ _______ _______ _____ _____    ______ ____
DOCKED: ROOT
DOCKED: ATOM      1  N   UNL     1      26.419 -16.073  -1.786 -0.40 -0.00    +0.000 N 
DOCKED: ATOM      2  C   UNL     1      26.238 -15.268  -2.966 -0.48 -0.00    +0.000 C 
DOCKED: ATOM      3  C   UNL     1      27.286 -15.243  -4.013 -0.37 -0.00    +0.000 A 
DOCKED: ATOM      4  C   UNL     1      27.108 -14.485  -5.184 -0.36 -0.00    +0.000 A 
DOCKED: ATOM      5  C   UNL     1      28.094 -14.461  -6.171 -0.29 -0.00    +0.000 A 
DOCKED: ATOM      6  C   UNL     1      29.271 -15.190  -6.006 -0.33 -0.00    +0.000 A 
DOCKED: ATOM      7  C   UNL     1      29.474 -15.952  -4.847 -0.26 -0.00    +0.000 A 
DOCKED: ATOM      8  C   UNL     1      30.659 -16.682  -4.681 -0.19 -0.00    +0.000 A 
DOCKED: ATOM      9  C   UNL     1      30.862 -17.438  -3.527 -0.16 -0.00    +0.000 A 
DOCKED: ATOM     10  C   UNL     1      29.888 -17.475  -2.529 -0.13 -0.00    +0.000 A 
DOCKED: ATOM     11  C   UNL     1      28.689 -16.753  -2.672 -0.20 -0.00    +0.000 A 
DOCKED: ATOM     12  C   UNL     1      28.476 -15.984  -3.838 -0.24 -0.00    +0.000 A 
DOCKED: ATOM     13  O   UNL     1      25.189 -14.581  -3.109 -0.63 -0.00    +0.000 OA
DOCKED: ATOM     14  C   UNL     1      27.656 -16.792  -1.613 -0.39 -0.00    +0.000 C 
DOCKED: ATOM     15  O   UNL     1      27.861 -17.454  -0.558 -0.46 -0.00    +0.000 OA
DOCKED: ENDROOT
DOCKED: BRANCH   1  16
DOCKED: ATOM     16  C   UNL     1      25.402 -16.075  -0.724 -0.45 -0.00    +0.000 C 
DOCKED: BRANCH  16  17
DOCKED: ATOM     17  C   UNL     1      24.845 -17.488  -0.529 -0.67 -0.00    +0.000 C 
DOCKED: BRANCH  17  18
DOCKED: ATOM     18  C   UNL     1      23.762 -17.802  -1.567 -0.68 -0.00    +0.000 C 
DOCKED: BRANCH  18  19
DOCKED: ATOM     19  C   UNL     1      22.782 -18.859  -1.038 -0.82 -0.00    +0.000 C 
DOCKED: BRANCH  19  20
DOCKED: ATOM     20  C   UNL     1      21.439 -18.248  -0.614 -0.79 -0.00    +0.000 C 
DOCKED: BRANCH  20  22
DOCKED: ATOM     21  O   UNL     1      20.268 -19.741  -2.066 -2.33 -0.00    +0.000 OA
DOCKED: ATOM     22  C   UNL     1      20.285 -19.145  -0.957 -0.88 -0.00    +0.000 C 
DOCKED: ATOM     23  N   UNL     1      19.227 -19.353  -0.019 -0.77 -0.00    +0.000 N 
DOCKED: ATOM     24  O   UNL     1      18.195 -20.175  -0.321 -0.93 -0.00    +0.000 OA
DOCKED: ATOM     25  H   UNL     1      19.247 -18.895   0.853 -0.27 -0.00    +0.000 HD
DOCKED: ENDBRANCH  20  22
DOCKED: ENDBRANCH  19  20
DOCKED: ENDBRANCH  18  19
DOCKED: ENDBRANCH  17  18
DOCKED: ENDBRANCH  16  17
DOCKED: ENDBRANCH   1  16
DOCKED: TORSDOF 6
DOCKED: TER
DOCKED: ENDMDL
________________________________________________________________________________


	BEGINNING GENETIC ALGORITHM DOCKING 73 of 100
Run: 73 Seed: 1174407866 2099994336 [ Run 73 of 100 GA/GALS ]
Beginning LAMARCKIAN GENETIC ALGORITHM (LGA), with a maximum of 2500000 energy evaluations.

Final-Value: -13.789


	FINAL GENETIC ALGORITHM DOCKED STATE
	_______________________________________________


Detailed state:  trans 27.804 -15.072 -3.228 quatxyzw 0.256631 0.088460 0.926576 -0.260332 center -0.011 0.081 -0.051 ntor 6 -36.1033 -162.0724 4.8912 27.3073 -43.4766 175.5671
State:	 27.804 -15.072  -3.228   0.266  0.092  0.960 -149.820    -36.10 -162.07    4.89   27.31  -43.48  175.57

DOCKED: MODEL       73
DOCKED: USER    Run = 73
DOCKED: USER    DPF = ligand_dock.biased.dpf
DOCKED: USER  
DOCKED: USER    Estimated Free Energy of Binding    =  -11.35 kcal/mol  [=(1)+(2)+(3)-(4)]
DOCKED: USER    Estimated Inhibition Constant, Ki   =    4.81 nM (nanomolar)  [Temperature = 298.15 K]
DOCKED: USER    
DOCKED: USER    (1) Final Intermolecular Energy     =  -13.14 kcal/mol
DOCKED: USER        vdW + Hbond + desolv Energy     =  -13.14 kcal/mol
DOCKED: USER        Electrostatic Energy            =   +0.00 kcal/mol
DOCKED: USER    (2) Final Total Internal Energy     =   -0.65 kcal/mol
DOCKED: USER    (3) Torsional Free Energy           =   +1.79 kcal/mol
DOCKED: USER    (4) Unbound System's Energy  [=(2)] =   -0.65 kcal/mol
DOCKED: USER    
DOCKED: USER    
DOCKED: USER    NEWDPF move ligand.pdbqt
DOCKED: USER    NEWDPF about -0.011000 0.081000 -0.051000
DOCKED: USER    NEWDPF tran0 27.804220 -15.071660 -3.228470
DOCKED: USER    NEWDPF quaternion0 0.256631 0.088460 0.926576 -0.260332
DOCKED: USER    NEWDPF axisangle0 0.265796 0.091620 0.959666 -149.820482
DOCKED: USER    NEWDPF quat0 0.265796 0.091620 0.959666 -149.820482
DOCKED: USER    NEWDPF dihe0 -36.10 -162.07 4.89 27.31 -43.48 175.57 
DOCKED: USER  keepresnum = 1 
DOCKED: USER  
DOCKED: REMARK  Name = 
DOCKED: REMARK  6 active torsions:
DOCKED: REMARK  status: ('A' for Active; 'I' for Inactive)
DOCKED: REMARK    1  A    between atoms: C_2  and  C_5
DOCKED: REMARK    2  A    between atoms: C_5  and  C_6
DOCKED: REMARK    3  A    between atoms: C_6  and  C_7
DOCKED: REMARK    4  A    between atoms: C_7  and  C_8
DOCKED: REMARK    5  A    between atoms: C_8  and  C_9
DOCKED: REMARK    6  A    between atoms: C_9  and  N_10
DOCKED: REMARK                            x       y       z     vdW  Elec       q    Type
DOCKED: REMARK                         _______ _______ _______ _____ _____    ______ ____
DOCKED: USER                              x       y       z     vdW  Elec       q    Type
DOCKED: USER                           _______ _______ _______ _____ _____    ______ ____
DOCKED: ROOT
DOCKED: ATOM      1  N   UNL     1      27.901 -15.979  -3.347 -0.29 -0.00    +0.000 N 
DOCKED: ATOM      2  C   UNL     1      28.194 -15.702  -4.730 -0.33 -0.00    +0.000 C 
DOCKED: ATOM      3  C   UNL     1      29.426 -16.243  -5.348 -0.29 -0.00    +0.000 A 
DOCKED: ATOM      4  C   UNL     1      29.708 -16.005  -6.705 -0.22 -0.00    +0.000 A 
DOCKED: ATOM      5  C   UNL     1      30.868 -16.515  -7.289 -0.28 -0.00    +0.000 A 
DOCKED: ATOM      6  C   UNL     1      31.764 -17.268  -6.531 -0.16 -0.00    +0.000 A 
DOCKED: ATOM      7  C   UNL     1      31.507 -17.517  -5.176 -0.15 -0.00    +0.000 A 
DOCKED: ATOM      8  C   UNL     1      32.411 -18.272  -4.414 -0.08 -0.00    +0.000 A 
DOCKED: ATOM      9  C   UNL     1      32.156 -18.518  -3.065 -0.09 -0.00    +0.000 A 
DOCKED: ATOM     10  C   UNL     1      31.002 -18.017  -2.463 -0.15 -0.00    +0.000 A 
DOCKED: ATOM     11  C   UNL     1      30.079 -17.259  -3.207 -0.18 -0.00    +0.000 A 
DOCKED: ATOM     12  C   UNL     1      30.329 -17.005  -4.573 -0.23 -0.00    +0.000 A 
DOCKED: ATOM     13  O   UNL     1      27.403 -14.995  -5.415 -0.81 -0.00    +0.000 OA
DOCKED: ATOM     14  C   UNL     1      28.854 -16.727  -2.567 -0.27 -0.00    +0.000 C 
DOCKED: ATOM     15  O   UNL     1      28.647 -16.928  -1.338 -0.34 -0.00    +0.000 OA
DOCKED: ENDROOT
DOCKED: BRANCH   1  16
DOCKED: ATOM     16  C   UNL     1      26.700 -15.415  -2.713 -0.41 -0.00    +0.000 C 
DOCKED: BRANCH  16  17
DOCKED: ATOM     17  C   UNL     1      25.506 -16.350  -2.919 -0.52 -0.00    +0.000 C 
DOCKED: BRANCH  17  18
DOCKED: ATOM     18  C   UNL     1      24.692 -16.499  -1.629 -0.59 -0.00    +0.000 C 
DOCKED: BRANCH  18  19
DOCKED: ATOM     19  C   UNL     1      23.973 -17.855  -1.585 -0.71 -0.00    +0.000 C 
DOCKED: BRANCH  19  20
DOCKED: ATOM     20  C   UNL     1      22.996 -17.959  -0.406 -0.80 -0.00    +0.000 C 
DOCKED: BRANCH  20  22
DOCKED: ATOM     21  O   UNL     1      20.645 -17.653  -0.713 -2.20 +0.00    +0.000 OA
DOCKED: ATOM     22  C   UNL     1      21.636 -18.418  -0.848 -0.82 -0.00    +0.000 C 
DOCKED: ATOM     23  N   UNL     1      21.467 -19.703  -1.451 -0.58 -0.00    +0.000 N 
DOCKED: ATOM     24  O   UNL     1      20.245 -20.110  -1.865 -2.29 -0.00    +0.000 OA
DOCKED: ATOM     25  H   UNL     1      22.244 -20.296  -1.567 -0.34 -0.00    +0.000 HD
DOCKED: ENDBRANCH  20  22
DOCKED: ENDBRANCH  19  20
DOCKED: ENDBRANCH  18  19
DOCKED: ENDBRANCH  17  18
DOCKED: ENDBRANCH  16  17
DOCKED: ENDBRANCH   1  16
DOCKED: TORSDOF 6
DOCKED: TER
DOCKED: ENDMDL
________________________________________________________________________________


	BEGINNING GENETIC ALGORITHM DOCKING 74 of 100
Run: 74 Seed: 1837096144 773241317 [ Run 74 of 100 GA/GALS ]
Beginning LAMARCKIAN GENETIC ALGORITHM (LGA), with a maximum of 2500000 energy evaluations.

Final-Value: -14.120


	FINAL GENETIC ALGORITHM DOCKED STATE
	_______________________________________________


Detailed state:  trans 26.973 -16.911 -1.171 quatxyzw 0.116713 -0.776090 -0.270921 -0.557373 center -0.011 0.081 -0.051 ntor 6 -10.1187 -105.9591 153.9504 46.1430 -179.6260 -3.2242
State:	 26.973 -16.911  -1.171   0.141 -0.935 -0.326 -112.251    -10.12 -105.96  153.95   46.14 -179.63   -3.22

DOCKED: MODEL       74
DOCKED: USER    Run = 74
DOCKED: USER    DPF = ligand_dock.biased.dpf
DOCKED: USER  
DOCKED: USER    Estimated Free Energy of Binding    =  -11.38 kcal/mol  [=(1)+(2)+(3)-(4)]
DOCKED: USER    Estimated Inhibition Constant, Ki   =    4.54 nM (nanomolar)  [Temperature = 298.15 K]
DOCKED: USER    
DOCKED: USER    (1) Final Intermolecular Energy     =  -13.17 kcal/mol
DOCKED: USER        vdW + Hbond + desolv Energy     =  -13.17 kcal/mol
DOCKED: USER        Electrostatic Energy            =   +0.00 kcal/mol
DOCKED: USER    (2) Final Total Internal Energy     =   -0.95 kcal/mol
DOCKED: USER    (3) Torsional Free Energy           =   +1.79 kcal/mol
DOCKED: USER    (4) Unbound System's Energy  [=(2)] =   -0.95 kcal/mol
DOCKED: USER    
DOCKED: USER    
DOCKED: USER    NEWDPF move ligand.pdbqt
DOCKED: USER    NEWDPF about -0.011000 0.081000 -0.051000
DOCKED: USER    NEWDPF tran0 26.973174 -16.911084 -1.171470
DOCKED: USER    NEWDPF quaternion0 0.116713 -0.776090 -0.270921 -0.557373
DOCKED: USER    NEWDPF axisangle0 0.140574 -0.934752 -0.326308 -112.251360
DOCKED: USER    NEWDPF quat0 0.140574 -0.934752 -0.326308 -112.251360
DOCKED: USER    NEWDPF dihe0 -10.12 -105.96 153.95 46.14 -179.63 -3.22 
DOCKED: USER  keepresnum = 1 
DOCKED: USER  
DOCKED: REMARK  Name = 
DOCKED: REMARK  6 active torsions:
DOCKED: REMARK  status: ('A' for Active; 'I' for Inactive)
DOCKED: REMARK    1  A    between atoms: C_2  and  C_5
DOCKED: REMARK    2  A    between atoms: C_5  and  C_6
DOCKED: REMARK    3  A    between atoms: C_6  and  C_7
DOCKED: REMARK    4  A    between atoms: C_7  and  C_8
DOCKED: REMARK    5  A    between atoms: C_8  and  C_9
DOCKED: REMARK    6  A    between atoms: C_9  and  N_10
DOCKED: REMARK                            x       y       z     vdW  Elec       q    Type
DOCKED: REMARK                         _______ _______ _______ _____ _____    ______ ____
DOCKED: USER                              x       y       z     vdW  Elec       q    Type
DOCKED: USER                           _______ _______ _______ _____ _____    ______ ____
DOCKED: ROOT
DOCKED: ATOM      1  N   UNL     1      27.340 -16.072  -1.254 -0.32 -0.00    +0.000 N 
DOCKED: ATOM      2  C   UNL     1      28.425 -16.687  -1.975 -0.31 -0.00    +0.000 C 
DOCKED: ATOM      3  C   UNL     1      28.812 -16.173  -3.309 -0.22 -0.00    +0.000 A 
DOCKED: ATOM      4  C   UNL     1      29.888 -16.745  -4.010 -0.22 -0.00    +0.000 A 
DOCKED: ATOM      5  C   UNL     1      30.254 -16.262  -5.267 -0.24 -0.00    +0.000 A 
DOCKED: ATOM      6  C   UNL     1      29.555 -15.202  -5.844 -0.29 -0.00    +0.000 A 
DOCKED: ATOM      7  C   UNL     1      28.477 -14.616  -5.166 -0.29 -0.00    +0.000 A 
DOCKED: ATOM      8  C   UNL     1      27.772 -13.553  -5.749 -0.24 -0.00    +0.000 A 
DOCKED: ATOM      9  C   UNL     1      26.698 -12.970  -5.075 -0.19 -0.00    +0.000 A 
DOCKED: ATOM     10  C   UNL     1      26.317 -13.440  -3.818 -0.33 -0.00    +0.000 A 
DOCKED: ATOM     11  C   UNL     1      27.009 -14.504  -3.212 -0.29 -0.00    +0.000 A 
DOCKED: ATOM     12  C   UNL     1      28.097 -15.099  -3.887 -0.26 -0.00    +0.000 A 
DOCKED: ATOM     13  O   UNL     1      29.043 -17.666  -1.474 -0.32 -0.00    +0.000 OA
DOCKED: ATOM     14  C   UNL     1      26.604 -15.002  -1.878 -0.36 -0.00    +0.000 C 
DOCKED: ATOM     15  O   UNL     1      25.611 -14.490  -1.290 -0.36 -0.00    +0.000 OA
DOCKED: ENDROOT
DOCKED: BRANCH   1  16
DOCKED: ATOM     16  C   UNL     1      26.923 -16.598   0.054 -0.40 -0.00    +0.000 C 
DOCKED: BRANCH  16  17
DOCKED: ATOM     17  C   UNL     1      25.828 -17.653  -0.126 -0.59 -0.00    +0.000 C 
DOCKED: BRANCH  17  18
DOCKED: ATOM     18  C   UNL     1      25.494 -17.856  -1.607 -0.42 -0.00    +0.000 C 
DOCKED: BRANCH  18  19
DOCKED: ATOM     19  C   UNL     1      23.975 -17.867  -1.833 -0.64 -0.00    +0.000 C 
DOCKED: BRANCH  19  20
DOCKED: ATOM     20  C   UNL     1      23.199 -18.235  -0.562 -0.82 -0.00    +0.000 C 
DOCKED: BRANCH  20  22
DOCKED: ATOM     21  O   UNL     1      20.977 -17.368  -0.707 -1.98 +0.00    +0.000 OA
DOCKED: ATOM     22  C   UNL     1      21.728 -18.372  -0.827 -0.82 -0.00    +0.000 C 
DOCKED: ATOM     23  N   UNL     1      21.181 -19.624  -1.248 -0.73 -0.00    +0.000 N 
DOCKED: ATOM     24  O   UNL     1      19.858 -19.743  -1.504 -2.27 -0.00    +0.000 OA
DOCKED: ATOM     25  H   UNL     1      21.771 -20.406  -1.353 -0.27 -0.00    +0.000 HD
DOCKED: ENDBRANCH  20  22
DOCKED: ENDBRANCH  19  20
DOCKED: ENDBRANCH  18  19
DOCKED: ENDBRANCH  17  18
DOCKED: ENDBRANCH  16  17
DOCKED: ENDBRANCH   1  16
DOCKED: TORSDOF 6
DOCKED: TER
DOCKED: ENDMDL
________________________________________________________________________________


	BEGINNING GENETIC ALGORITHM DOCKING 75 of 100
Run: 75 Seed: 886858525 586979564 [ Run 75 of 100 GA/GALS ]
Beginning LAMARCKIAN GENETIC ALGORITHM (LGA), with a maximum of 2500000 energy evaluations.

Final-Value: -13.984


	FINAL GENETIC ALGORITHM DOCKED STATE
	_______________________________________________


Detailed state:  trans 26.023 -15.444 -1.315 quatxyzw 0.376688 0.059185 0.923096 -0.049974 center -0.011 0.081 -0.051 ntor 6 -18.8873 -159.2394 -127.2823 -65.4906 -90.8053 136.3219
State:	 26.023 -15.444  -1.315   0.377  0.059  0.924 -174.271    -18.89 -159.24 -127.28  -65.49  -90.81  136.32

DOCKED: MODEL       75
DOCKED: USER    Run = 75
DOCKED: USER    DPF = ligand_dock.biased.dpf
DOCKED: USER  
DOCKED: USER    Estimated Free Energy of Binding    =  -11.57 kcal/mol  [=(1)+(2)+(3)-(4)]
DOCKED: USER    Estimated Inhibition Constant, Ki   =    3.33 nM (nanomolar)  [Temperature = 298.15 K]
DOCKED: USER    
DOCKED: USER    (1) Final Intermolecular Energy     =  -13.36 kcal/mol
DOCKED: USER        vdW + Hbond + desolv Energy     =  -13.36 kcal/mol
DOCKED: USER        Electrostatic Energy            =   +0.00 kcal/mol
DOCKED: USER    (2) Final Total Internal Energy     =   -0.63 kcal/mol
DOCKED: USER    (3) Torsional Free Energy           =   +1.79 kcal/mol
DOCKED: USER    (4) Unbound System's Energy  [=(2)] =   -0.63 kcal/mol
DOCKED: USER    
DOCKED: USER    
DOCKED: USER    NEWDPF move ligand.pdbqt
DOCKED: USER    NEWDPF about -0.011000 0.081000 -0.051000
DOCKED: USER    NEWDPF tran0 26.023489 -15.443834 -1.314992
DOCKED: USER    NEWDPF quaternion0 0.376688 0.059185 0.923096 -0.049974
DOCKED: USER    NEWDPF axisangle0 0.377160 0.059259 0.924251 -174.270973
DOCKED: USER    NEWDPF quat0 0.377160 0.059259 0.924251 -174.270973
DOCKED: USER    NEWDPF dihe0 -18.89 -159.24 -127.28 -65.49 -90.81 136.32 
DOCKED: USER  keepresnum = 1 
DOCKED: USER  
DOCKED: REMARK  Name = 
DOCKED: REMARK  6 active torsions:
DOCKED: REMARK  status: ('A' for Active; 'I' for Inactive)
DOCKED: REMARK    1  A    between atoms: C_2  and  C_5
DOCKED: REMARK    2  A    between atoms: C_5  and  C_6
DOCKED: REMARK    3  A    between atoms: C_6  and  C_7
DOCKED: REMARK    4  A    between atoms: C_7  and  C_8
DOCKED: REMARK    5  A    between atoms: C_8  and  C_9
DOCKED: REMARK    6  A    between atoms: C_9  and  N_10
DOCKED: REMARK                            x       y       z     vdW  Elec       q    Type
DOCKED: REMARK                         _______ _______ _______ _____ _____    ______ ____
DOCKED: USER                              x       y       z     vdW  Elec       q    Type
DOCKED: USER                           _______ _______ _______ _____ _____    ______ ____
DOCKED: ROOT
DOCKED: ATOM      1  N   UNL     1      26.363 -16.215  -1.683 -0.41 -0.00    +0.000 N 
DOCKED: ATOM      2  C   UNL     1      26.157 -15.614  -2.975 -0.51 -0.00    +0.000 C 
DOCKED: ATOM      3  C   UNL     1      27.273 -15.546  -3.946 -0.34 -0.00    +0.000 A 
DOCKED: ATOM      4  C   UNL     1      27.077 -14.989  -5.222 -0.41 -0.00    +0.000 A 
DOCKED: ATOM      5  C   UNL     1      28.127 -14.925  -6.138 -0.32 -0.00    +0.000 A 
DOCKED: ATOM      6  C   UNL     1      29.388 -15.413  -5.798 -0.31 -0.00    +0.000 A 
DOCKED: ATOM      7  C   UNL     1      29.610 -15.972  -4.531 -0.23 -0.00    +0.000 A 
DOCKED: ATOM      8  C   UNL     1      30.879 -16.460  -4.189 -0.13 -0.00    +0.000 A 
DOCKED: ATOM      9  C   UNL     1      31.101 -17.014  -2.928 -0.11 -0.00    +0.000 A 
DOCKED: ATOM     10  C   UNL     1      30.063 -17.087  -1.998 -0.19 -0.00    +0.000 A 
DOCKED: ATOM     11  C   UNL     1      28.781 -16.606  -2.318 -0.24 -0.00    +0.000 A 
DOCKED: ATOM     12  C   UNL     1      28.548 -16.043  -3.593 -0.23 -0.00    +0.000 A 
DOCKED: ATOM     13  O   UNL     1      25.027 -15.141  -3.280 -0.68 -0.00    +0.000 OA
DOCKED: ATOM     14  C   UNL     1      27.680 -16.683  -1.332 -0.40 -0.00    +0.000 C 
DOCKED: ATOM     15  O   UNL     1      27.897 -17.157  -0.182 -0.42 -0.00    +0.000 OA
DOCKED: ENDROOT
DOCKED: BRANCH   1  16
DOCKED: ATOM     16  C   UNL     1      25.272 -16.254  -0.698 -0.47 -0.00    +0.000 C 
DOCKED: BRANCH  16  17
DOCKED: ATOM     17  C   UNL     1      23.990 -16.778  -1.349 -0.59 -0.00    +0.000 C 
DOCKED: BRANCH  17  18
DOCKED: ATOM     18  C   UNL     1      23.904 -18.305  -1.249 -0.78 -0.00    +0.000 C 
DOCKED: BRANCH  18  19
DOCKED: ATOM     19  C   UNL     1      22.725 -18.734  -0.365 -0.81 -0.00    +0.000 C 
DOCKED: BRANCH  19  20
DOCKED: ATOM     20  C   UNL     1      21.390 -18.155  -0.852 -0.73 -0.00    +0.000 C 
DOCKED: BRANCH  20  22
DOCKED: ATOM     21  O   UNL     1      20.037 -19.739  -2.023 -2.35 -0.00    +0.000 OA
DOCKED: ATOM     22  C   UNL     1      20.318 -19.204  -0.918 -0.89 -0.00    +0.000 C 
DOCKED: ATOM     23  N   UNL     1      19.640 -19.623   0.269 -0.74 -0.00    +0.000 N 
DOCKED: ATOM     24  O   UNL     1      18.686 -20.580   0.212 -0.93 -0.00    +0.000 OA
DOCKED: ATOM     25  H   UNL     1      19.869 -19.211   1.134 -0.15 -0.00    +0.000 HD
DOCKED: ENDBRANCH  20  22
DOCKED: ENDBRANCH  19  20
DOCKED: ENDBRANCH  18  19
DOCKED: ENDBRANCH  17  18
DOCKED: ENDBRANCH  16  17
DOCKED: ENDBRANCH   1  16
DOCKED: TORSDOF 6
DOCKED: TER
DOCKED: ENDMDL
________________________________________________________________________________


	BEGINNING GENETIC ALGORITHM DOCKING 76 of 100
Run: 76 Seed: 188789794 422343234 [ Run 76 of 100 GA/GALS ]
Beginning LAMARCKIAN GENETIC ALGORITHM (LGA), with a maximum of 2500000 energy evaluations.

Final-Value: -13.277


	FINAL GENETIC ALGORITHM DOCKED STATE
	_______________________________________________


Detailed state:  trans 27.475 -15.474 -1.226 quatxyzw -0.614067 0.662467 0.187712 -0.385777 center -0.011 0.081 -0.051 ntor 6 -117.6449 -151.1044 164.4858 -19.5287 89.5395 165.1586
State:	 27.475 -15.474  -1.226  -0.666  0.718  0.203 -134.616   -117.64 -151.10  164.49  -19.53   89.54  165.16

DOCKED: MODEL       76
DOCKED: USER    Run = 76
DOCKED: USER    DPF = ligand_dock.biased.dpf
DOCKED: USER  
DOCKED: USER    Estimated Free Energy of Binding    =  -10.60 kcal/mol  [=(1)+(2)+(3)-(4)]
DOCKED: USER    Estimated Inhibition Constant, Ki   =   16.96 nM (nanomolar)  [Temperature = 298.15 K]
DOCKED: USER    
DOCKED: USER    (1) Final Intermolecular Energy     =  -12.39 kcal/mol
DOCKED: USER        vdW + Hbond + desolv Energy     =  -12.39 kcal/mol
DOCKED: USER        Electrostatic Energy            =   +0.00 kcal/mol
DOCKED: USER    (2) Final Total Internal Energy     =   -0.89 kcal/mol
DOCKED: USER    (3) Torsional Free Energy           =   +1.79 kcal/mol
DOCKED: USER    (4) Unbound System's Energy  [=(2)] =   -0.89 kcal/mol
DOCKED: USER    
DOCKED: USER    
DOCKED: USER    NEWDPF move ligand.pdbqt
DOCKED: USER    NEWDPF about -0.011000 0.081000 -0.051000
DOCKED: USER    NEWDPF tran0 27.475028 -15.474047 -1.225958
DOCKED: USER    NEWDPF quaternion0 -0.614067 0.662467 0.187712 -0.385777
DOCKED: USER    NEWDPF axisangle0 -0.665588 0.718050 0.203461 -134.616045
DOCKED: USER    NEWDPF quat0 -0.665588 0.718050 0.203461 -134.616045
DOCKED: USER    NEWDPF dihe0 -117.64 -151.10 164.49 -19.53 89.54 165.16 
DOCKED: USER  keepresnum = 1 
DOCKED: USER  
DOCKED: REMARK  Name = 
DOCKED: REMARK  6 active torsions:
DOCKED: REMARK  status: ('A' for Active; 'I' for Inactive)
DOCKED: REMARK    1  A    between atoms: C_2  and  C_5
DOCKED: REMARK    2  A    between atoms: C_5  and  C_6
DOCKED: REMARK    3  A    between atoms: C_6  and  C_7
DOCKED: REMARK    4  A    between atoms: C_7  and  C_8
DOCKED: REMARK    5  A    between atoms: C_8  and  C_9
DOCKED: REMARK    6  A    between atoms: C_9  and  N_10
DOCKED: REMARK                            x       y       z     vdW  Elec       q    Type
DOCKED: REMARK                         _______ _______ _______ _____ _____    ______ ____
DOCKED: USER                              x       y       z     vdW  Elec       q    Type
DOCKED: USER                           _______ _______ _______ _____ _____    ______ ____
DOCKED: ROOT
DOCKED: ATOM      1  N   UNL     1      26.759 -15.007  -0.887 -0.30 -0.00    +0.000 N 
DOCKED: ATOM      2  C   UNL     1      27.181 -15.436   0.422 -0.27 -0.00    +0.000 C 
DOCKED: ATOM      3  C   UNL     1      27.385 -14.438   1.497 -0.19 -0.00    +0.000 A 
DOCKED: ATOM      4  C   UNL     1      27.768 -14.846   2.787 +0.12 -0.00    +0.000 A 
DOCKED: ATOM      5  C   UNL     1      27.961 -13.907   3.801 -0.43 -0.00    +0.000 A 
DOCKED: ATOM      6  C   UNL     1      27.776 -12.548   3.546 -0.29 -0.00    +0.000 A 
DOCKED: ATOM      7  C   UNL     1      27.396 -12.116   2.267 -0.25 +0.00    +0.000 A 
DOCKED: ATOM      8  C   UNL     1      27.214 -10.749   2.011 -0.24 +0.00    +0.000 A 
DOCKED: ATOM      9  C   UNL     1      26.839 -10.318   0.739 -0.22 +0.00    +0.000 A 
DOCKED: ATOM     10  C   UNL     1      26.641 -11.242  -0.288 -0.06 +0.00    +0.000 A 
DOCKED: ATOM     11  C   UNL     1      26.816 -12.618  -0.056 -0.18 -0.00    +0.000 A 
DOCKED: ATOM     12  C   UNL     1      27.197 -13.063   1.230 -0.25 -0.00    +0.000 A 
DOCKED: ATOM     13  O   UNL     1      27.380 -16.660   0.653 -0.35 -0.00    +0.000 OA
DOCKED: ATOM     14  C   UNL     1      26.607 -13.598  -1.146 -0.20 -0.00    +0.000 C 
DOCKED: ATOM     15  O   UNL     1      26.298 -13.197  -2.302 -0.15 -0.00    +0.000 OA
DOCKED: ENDROOT
DOCKED: BRANCH   1  16
DOCKED: ATOM     16  C   UNL     1      26.589 -15.985  -1.971 -0.43 -0.00    +0.000 C 
DOCKED: BRANCH  16  17
DOCKED: ATOM     17  C   UNL     1      25.272 -16.745  -1.797 -0.61 -0.00    +0.000 C 
DOCKED: BRANCH  17  18
DOCKED: ATOM     18  C   UNL     1      25.472 -18.013  -0.960 -0.64 -0.00    +0.000 C 
DOCKED: BRANCH  18  19
DOCKED: ATOM     19  C   UNL     1      24.137 -18.510  -0.385 -0.73 -0.00    +0.000 C 
DOCKED: BRANCH  19  20
DOCKED: ATOM     20  C   UNL     1      23.016 -17.472  -0.532 -0.75 -0.00    +0.000 C 
DOCKED: BRANCH  20  22
DOCKED: ATOM     21  O   UNL     1      20.635 -17.475  -0.733 -2.07 +0.00    +0.000 OA
DOCKED: ATOM     22  C   UNL     1      21.709 -18.111  -0.901 -0.74 -0.00    +0.000 C 
DOCKED: ATOM     23  N   UNL     1      21.680 -19.420  -1.474 -0.69 -0.00    +0.000 N 
DOCKED: ATOM     24  O   UNL     1      20.503 -19.989  -1.823 -2.14 -0.00    +0.000 OA
DOCKED: ATOM     25  H   UNL     1      22.521 -19.912  -1.616 -0.33 -0.00    +0.000 HD
DOCKED: ENDBRANCH  20  22
DOCKED: ENDBRANCH  19  20
DOCKED: ENDBRANCH  18  19
DOCKED: ENDBRANCH  17  18
DOCKED: ENDBRANCH  16  17
DOCKED: ENDBRANCH   1  16
DOCKED: TORSDOF 6
DOCKED: TER
DOCKED: ENDMDL
________________________________________________________________________________


	BEGINNING GENETIC ALGORITHM DOCKING 77 of 100
Run: 77 Seed: 1743366238 20489209 [ Run 77 of 100 GA/GALS ]
Beginning LAMARCKIAN GENETIC ALGORITHM (LGA), with a maximum of 2500000 energy evaluations.

Final-Value: -13.917


	FINAL GENETIC ALGORITHM DOCKED STATE
	_______________________________________________


Detailed state:  trans 26.196 -14.902 -1.461 quatxyzw -0.342994 -0.252015 -0.900647 -0.087628 center -0.011 0.081 -0.051 ntor 6 -59.7517 -180.0000 -118.4607 40.1410 103.9605 -177.3062
State:	 26.196 -14.902  -1.461  -0.344 -0.253 -0.904 -169.946    -59.75 -180.00 -118.46   40.14  103.96 -177.31

DOCKED: MODEL       77
DOCKED: USER    Run = 77
DOCKED: USER    DPF = ligand_dock.biased.dpf
DOCKED: USER  
DOCKED: USER    Estimated Free Energy of Binding    =  -11.28 kcal/mol  [=(1)+(2)+(3)-(4)]
DOCKED: USER    Estimated Inhibition Constant, Ki   =    5.40 nM (nanomolar)  [Temperature = 298.15 K]
DOCKED: USER    
DOCKED: USER    (1) Final Intermolecular Energy     =  -13.07 kcal/mol
DOCKED: USER        vdW + Hbond + desolv Energy     =  -13.07 kcal/mol
DOCKED: USER        Electrostatic Energy            =   +0.00 kcal/mol
DOCKED: USER    (2) Final Total Internal Energy     =   -0.85 kcal/mol
DOCKED: USER    (3) Torsional Free Energy           =   +1.79 kcal/mol
DOCKED: USER    (4) Unbound System's Energy  [=(2)] =   -0.85 kcal/mol
DOCKED: USER    
DOCKED: USER    
DOCKED: USER    NEWDPF move ligand.pdbqt
DOCKED: USER    NEWDPF about -0.011000 0.081000 -0.051000
DOCKED: USER    NEWDPF tran0 26.196255 -14.902179 -1.460546
DOCKED: USER    NEWDPF quaternion0 -0.342994 -0.252015 -0.900647 -0.087628
DOCKED: USER    NEWDPF axisangle0 -0.344318 -0.252989 -0.904125 -169.945638
DOCKED: USER    NEWDPF quat0 -0.344318 -0.252989 -0.904125 -169.945638
DOCKED: USER    NEWDPF dihe0 -59.75 -180.00 -118.46 40.14 103.96 -177.31 
DOCKED: USER  keepresnum = 1 
DOCKED: USER  
DOCKED: REMARK  Name = 
DOCKED: REMARK  6 active torsions:
DOCKED: REMARK  status: ('A' for Active; 'I' for Inactive)
DOCKED: REMARK    1  A    between atoms: C_2  and  C_5
DOCKED: REMARK    2  A    between atoms: C_5  and  C_6
DOCKED: REMARK    3  A    between atoms: C_6  and  C_7
DOCKED: REMARK    4  A    between atoms: C_7  and  C_8
DOCKED: REMARK    5  A    between atoms: C_8  and  C_9
DOCKED: REMARK    6  A    between atoms: C_9  and  N_10
DOCKED: REMARK                            x       y       z     vdW  Elec       q    Type
DOCKED: REMARK                         _______ _______ _______ _____ _____    ______ ____
DOCKED: USER                              x       y       z     vdW  Elec       q    Type
DOCKED: USER                           _______ _______ _______ _____ _____    ______ ____
DOCKED: ROOT
DOCKED: ATOM      1  N   UNL     1      26.831 -15.545  -1.636 -0.31 -0.00    +0.000 N 
DOCKED: ATOM      2  C   UNL     1      26.487 -15.414  -3.028 -0.46 -0.00    +0.000 C 
DOCKED: ATOM      3  C   UNL     1      27.546 -15.160  -4.031 -0.34 -0.00    +0.000 A 
DOCKED: ATOM      4  C   UNL     1      27.227 -15.060  -5.397 -0.34 +0.00    +0.000 A 
DOCKED: ATOM      5  C   UNL     1      28.225 -14.821  -6.343 -0.31 -0.00    +0.000 A 
DOCKED: ATOM      6  C   UNL     1      29.553 -14.676  -5.944 -0.26 -0.00    +0.000 A 
DOCKED: ATOM      7  C   UNL     1      29.897 -14.769  -4.588 -0.12 -0.00    +0.000 A 
DOCKED: ATOM      8  C   UNL     1      31.232 -14.620  -4.187 -0.04 -0.00    +0.000 A 
DOCKED: ATOM      9  C   UNL     1      31.573 -14.711  -2.837 -0.02 -0.00    +0.000 A 
DOCKED: ATOM     10  C   UNL     1      30.590 -14.950  -1.877 -0.05 -0.00    +0.000 A 
DOCKED: ATOM     11  C   UNL     1      29.244 -15.104  -2.254 -0.12 -0.00    +0.000 A 
DOCKED: ATOM     12  C   UNL     1      28.890 -15.014  -3.618 -0.17 -0.00    +0.000 A 
DOCKED: ATOM     13  O   UNL     1      25.283 -15.513  -3.394 -0.64 -0.00    +0.000 OA
DOCKED: ATOM     14  C   UNL     1      28.201 -15.357  -1.233 -0.23 -0.00    +0.000 C 
DOCKED: ATOM     15  O   UNL     1      28.515 -15.406  -0.012 -0.25 -0.00    +0.000 OA
DOCKED: ENDROOT
DOCKED: BRANCH   1  16
DOCKED: ATOM     16  C   UNL     1      25.782 -15.760  -0.627 -0.38 -0.00    +0.000 C 
DOCKED: BRANCH  16  17
DOCKED: ATOM     17  C   UNL     1      25.627 -17.255  -0.337 -0.57 -0.00    +0.000 C 
DOCKED: BRANCH  17  18
DOCKED: ATOM     18  C   UNL     1      24.869 -17.961  -1.467 -0.63 -0.00    +0.000 C 
DOCKED: BRANCH  18  19
DOCKED: ATOM     19  C   UNL     1      23.882 -18.995  -0.907 -0.72 -0.00    +0.000 C 
DOCKED: BRANCH  19  20
DOCKED: ATOM     20  C   UNL     1      22.765 -18.346  -0.079 -0.79 -0.00    +0.000 C 
DOCKED: BRANCH  20  22
DOCKED: ATOM     21  O   UNL     1      20.633 -17.483  -0.727 -2.08 +0.00    +0.000 OA
DOCKED: ATOM     22  C   UNL     1      21.431 -18.457  -0.758 -0.84 -0.00    +0.000 C 
DOCKED: ATOM     23  N   UNL     1      21.077 -19.645  -1.470 -0.74 -0.00    +0.000 N 
DOCKED: ATOM     24  O   UNL     1      19.882 -19.739  -2.097 -2.34 -0.00    +0.000 OA
DOCKED: ATOM     25  H   UNL     1      21.707 -20.402  -1.503 -0.32 -0.00    +0.000 HD
DOCKED: ENDBRANCH  20  22
DOCKED: ENDBRANCH  19  20
DOCKED: ENDBRANCH  18  19
DOCKED: ENDBRANCH  17  18
DOCKED: ENDBRANCH  16  17
DOCKED: ENDBRANCH   1  16
DOCKED: TORSDOF 6
DOCKED: TER
DOCKED: ENDMDL
________________________________________________________________________________


	BEGINNING GENETIC ALGORITHM DOCKING 78 of 100
Run: 78 Seed: 1409484027 1949665055 [ Run 78 of 100 GA/GALS ]
Beginning LAMARCKIAN GENETIC ALGORITHM (LGA), with a maximum of 2500000 energy evaluations.

Final-Value: -13.266


	FINAL GENETIC ALGORITHM DOCKED STATE
	_______________________________________________


Detailed state:  trans 24.888 -15.578 -1.719 quatxyzw -0.113997 0.029221 -0.975382 -0.186495 center -0.011 0.081 -0.051 ntor 6 -104.0317 -157.1981 -145.3207 -123.8400 -60.8292 -133.0267
State:	 24.888 -15.578  -1.719  -0.116  0.030 -0.993 -158.503   -104.03 -157.20 -145.32 -123.84  -60.83 -133.03

DOCKED: MODEL       78
DOCKED: USER    Run = 78
DOCKED: USER    DPF = ligand_dock.biased.dpf
DOCKED: USER  
DOCKED: USER    Estimated Free Energy of Binding    =  -10.90 kcal/mol  [=(1)+(2)+(3)-(4)]
DOCKED: USER    Estimated Inhibition Constant, Ki   =   10.21 nM (nanomolar)  [Temperature = 298.15 K]
DOCKED: USER    
DOCKED: USER    (1) Final Intermolecular Energy     =  -12.69 kcal/mol
DOCKED: USER        vdW + Hbond + desolv Energy     =  -12.69 kcal/mol
DOCKED: USER        Electrostatic Energy            =   +0.00 kcal/mol
DOCKED: USER    (2) Final Total Internal Energy     =   -0.57 kcal/mol
DOCKED: USER    (3) Torsional Free Energy           =   +1.79 kcal/mol
DOCKED: USER    (4) Unbound System's Energy  [=(2)] =   -0.57 kcal/mol
DOCKED: USER    
DOCKED: USER    
DOCKED: USER    NEWDPF move ligand.pdbqt
DOCKED: USER    NEWDPF about -0.011000 0.081000 -0.051000
DOCKED: USER    NEWDPF tran0 24.888412 -15.578431 -1.718598
DOCKED: USER    NEWDPF quaternion0 -0.113997 0.029221 -0.975382 -0.186495
DOCKED: USER    NEWDPF axisangle0 -0.116032 0.029742 -0.992800 -158.503419
DOCKED: USER    NEWDPF quat0 -0.116032 0.029742 -0.992800 -158.503419
DOCKED: USER    NEWDPF dihe0 -104.03 -157.20 -145.32 -123.84 -60.83 -133.03 
DOCKED: USER  keepresnum = 1 
DOCKED: USER  
DOCKED: REMARK  Name = 
DOCKED: REMARK  6 active torsions:
DOCKED: REMARK  status: ('A' for Active; 'I' for Inactive)
DOCKED: REMARK    1  A    between atoms: C_2  and  C_5
DOCKED: REMARK    2  A    between atoms: C_5  and  C_6
DOCKED: REMARK    3  A    between atoms: C_6  and  C_7
DOCKED: REMARK    4  A    between atoms: C_7  and  C_8
DOCKED: REMARK    5  A    between atoms: C_8  and  C_9
DOCKED: REMARK    6  A    between atoms: C_9  and  N_10
DOCKED: REMARK                            x       y       z     vdW  Elec       q    Type
DOCKED: REMARK                         _______ _______ _______ _____ _____    ______ ____
DOCKED: USER                              x       y       z     vdW  Elec       q    Type
DOCKED: USER                           _______ _______ _______ _____ _____    ______ ____
DOCKED: ROOT
DOCKED: ATOM      1  N   UNL     1      25.661 -15.997  -1.990 -0.47 -0.00    +0.000 N 
DOCKED: ATOM      2  C   UNL     1      25.746 -15.018  -3.043 -0.51 -0.00    +0.000 C 
DOCKED: ATOM      3  C   UNL     1      26.990 -14.237  -3.228 -0.28 -0.00    +0.000 A 
DOCKED: ATOM      4  C   UNL     1      27.096 -13.299  -4.271 -0.25 -0.00    +0.000 A 
DOCKED: ATOM      5  C   UNL     1      28.268 -12.563  -4.447 -0.12 -0.00    +0.000 A 
DOCKED: ATOM      6  C   UNL     1      29.351 -12.748  -3.587 -0.05 -0.00    +0.000 A 
DOCKED: ATOM      7  C   UNL     1      29.269 -13.675  -2.539 -0.06 -0.00    +0.000 A 
DOCKED: ATOM      8  C   UNL     1      30.357 -13.857  -1.673 -0.03 -0.00    +0.000 A 
DOCKED: ATOM      9  C   UNL     1      30.275 -14.778  -0.628 -0.08 -0.00    +0.000 A 
DOCKED: ATOM     10  C   UNL     1      29.112 -15.524  -0.437 -0.17 -0.00    +0.000 A 
DOCKED: ATOM     11  C   UNL     1      28.008 -15.360  -1.292 -0.21 -0.00    +0.000 A 
DOCKED: ATOM     12  C   UNL     1      28.082 -14.430  -2.353 -0.15 -0.00    +0.000 A 
DOCKED: ATOM     13  O   UNL     1      24.760 -14.823  -3.806 -0.83 -0.00    +0.000 OA
DOCKED: ATOM     14  C   UNL     1      26.773 -16.152  -1.088 -0.44 -0.00    +0.000 C 
DOCKED: ATOM     15  O   UNL     1      26.697 -16.960  -0.121 -0.53 -0.00    +0.000 OA
DOCKED: ENDROOT
DOCKED: BRANCH   1  16
DOCKED: ATOM     16  C   UNL     1      24.417 -16.752  -1.774 -0.59 -0.00    +0.000 C 
DOCKED: BRANCH  16  17
DOCKED: ATOM     17  C   UNL     1      24.735 -18.215  -1.456 -0.60 -0.00    +0.000 C 
DOCKED: BRANCH  17  18
DOCKED: ATOM     18  C   UNL     1      24.215 -18.604  -0.068 -0.56 -0.00    +0.000 C 
DOCKED: BRANCH  18  19
DOCKED: ATOM     19  C   UNL     1      22.707 -18.340   0.049 -0.77 -0.00    +0.000 C 
DOCKED: BRANCH  19  20
DOCKED: ATOM     20  C   UNL     1      21.955 -18.667  -1.248 -0.69 -0.00    +0.000 C 
DOCKED: BRANCH  20  22
DOCKED: ATOM     21  O   UNL     1      19.932 -19.735  -1.940 -2.38 -0.00    +0.000 OA
DOCKED: ATOM     22  C   UNL     1      20.706 -19.456  -0.985 -0.88 -0.00    +0.000 C 
DOCKED: ATOM     23  N   UNL     1      20.408 -19.922   0.333 -0.71 -0.00    +0.000 N 
DOCKED: ATOM     24  O   UNL     1      19.290 -20.648   0.567 -0.89 -0.00    +0.000 OA
DOCKED: ATOM     25  H   UNL     1      21.019 -19.713   1.076 -0.45 -0.00    +0.000 HD
DOCKED: ENDBRANCH  20  22
DOCKED: ENDBRANCH  19  20
DOCKED: ENDBRANCH  18  19
DOCKED: ENDBRANCH  17  18
DOCKED: ENDBRANCH  16  17
DOCKED: ENDBRANCH   1  16
DOCKED: TORSDOF 6
DOCKED: TER
DOCKED: ENDMDL
________________________________________________________________________________


	BEGINNING GENETIC ALGORITHM DOCKING 79 of 100
Run: 79 Seed: 48229487 1317729667 [ Run 79 of 100 GA/GALS ]
Beginning LAMARCKIAN GENETIC ALGORITHM (LGA), with a maximum of 2500000 energy evaluations.

Final-Value: -14.189


	FINAL GENETIC ALGORITHM DOCKED STATE
	_______________________________________________


Detailed state:  trans 27.122 -15.029 -1.153 quatxyzw 0.474520 0.016384 0.867393 -0.148968 center -0.011 0.081 -0.051 ntor 6 -23.4229 -132.0021 139.5470 27.8702 178.8036 177.6603
State:	 27.122 -15.029  -1.153   0.480  0.017  0.877 -162.866    -23.42 -132.00  139.55   27.87  178.80  177.66

DOCKED: MODEL       79
DOCKED: USER    Run = 79
DOCKED: USER    DPF = ligand_dock.biased.dpf
DOCKED: USER  
DOCKED: USER    Estimated Free Energy of Binding    =  -11.49 kcal/mol  [=(1)+(2)+(3)-(4)]
DOCKED: USER    Estimated Inhibition Constant, Ki   =    3.78 nM (nanomolar)  [Temperature = 298.15 K]
DOCKED: USER    
DOCKED: USER    (1) Final Intermolecular Energy     =  -13.28 kcal/mol
DOCKED: USER        vdW + Hbond + desolv Energy     =  -13.28 kcal/mol
DOCKED: USER        Electrostatic Energy            =   +0.00 kcal/mol
DOCKED: USER    (2) Final Total Internal Energy     =   -0.91 kcal/mol
DOCKED: USER    (3) Torsional Free Energy           =   +1.79 kcal/mol
DOCKED: USER    (4) Unbound System's Energy  [=(2)] =   -0.91 kcal/mol
DOCKED: USER    
DOCKED: USER    
DOCKED: USER    NEWDPF move ligand.pdbqt
DOCKED: USER    NEWDPF about -0.011000 0.081000 -0.051000
DOCKED: USER    NEWDPF tran0 27.121566 -15.029199 -1.153209
DOCKED: USER    NEWDPF quaternion0 0.474520 0.016384 0.867393 -0.148968
DOCKED: USER    NEWDPF axisangle0 0.479875 0.016569 0.877181 -162.865802
DOCKED: USER    NEWDPF quat0 0.479875 0.016569 0.877181 -162.865802
DOCKED: USER    NEWDPF dihe0 -23.42 -132.00 139.55 27.87 178.80 177.66 
DOCKED: USER  keepresnum = 1 
DOCKED: USER  
DOCKED: REMARK  Name = 
DOCKED: REMARK  6 active torsions:
DOCKED: REMARK  status: ('A' for Active; 'I' for Inactive)
DOCKED: REMARK    1  A    between atoms: C_2  and  C_5
DOCKED: REMARK    2  A    between atoms: C_5  and  C_6
DOCKED: REMARK    3  A    between atoms: C_6  and  C_7
DOCKED: REMARK    4  A    between atoms: C_7  and  C_8
DOCKED: REMARK    5  A    between atoms: C_8  and  C_9
DOCKED: REMARK    6  A    between atoms: C_9  and  N_10
DOCKED: REMARK                            x       y       z     vdW  Elec       q    Type
DOCKED: REMARK                         _______ _______ _______ _____ _____    ______ ____
DOCKED: USER                              x       y       z     vdW  Elec       q    Type
DOCKED: USER                           _______ _______ _______ _____ _____    ______ ____
DOCKED: ROOT
DOCKED: ATOM      1  N   UNL     1      27.193 -15.846  -1.570 -0.30 -0.00    +0.000 N 
DOCKED: ATOM      2  C   UNL     1      26.872 -15.173  -2.802 -0.37 -0.00    +0.000 C 
DOCKED: ATOM      3  C   UNL     1      27.753 -15.331  -3.983 -0.31 -0.00    +0.000 A 
DOCKED: ATOM      4  C   UNL     1      27.435 -14.704  -5.201 -0.39 -0.00    +0.000 A 
DOCKED: ATOM      5  C   UNL     1      28.263 -14.853  -6.313 -0.33 -0.00    +0.000 A 
DOCKED: ATOM      6  C   UNL     1      29.420 -15.627  -6.230 -0.33 -0.00    +0.000 A 
DOCKED: ATOM      7  C   UNL     1      29.760 -16.261  -5.027 -0.27 -0.00    +0.000 A 
DOCKED: ATOM      8  C   UNL     1      30.925 -17.037  -4.944 -0.19 -0.00    +0.000 A 
DOCKED: ATOM      9  C   UNL     1      31.265 -17.666  -3.746 -0.14 -0.00    +0.000 A 
DOCKED: ATOM     10  C   UNL     1      30.449 -17.529  -2.623 -0.16 -0.00    +0.000 A 
DOCKED: ATOM     11  C   UNL     1      29.275 -16.758  -2.681 -0.22 -0.00    +0.000 A 
DOCKED: ATOM     12  C   UNL     1      28.923 -16.117  -3.890 -0.23 -0.00    +0.000 A 
DOCKED: ATOM     13  O   UNL     1      25.843 -14.445  -2.877 -0.44 -0.00    +0.000 OA
DOCKED: ATOM     14  C   UNL     1      28.409 -16.613  -1.489 -0.33 -0.00    +0.000 C 
DOCKED: ATOM     15  O   UNL     1      28.741 -17.160  -0.400 -0.34 -0.00    +0.000 OA
DOCKED: ENDROOT
DOCKED: BRANCH   1  16
DOCKED: ATOM     16  C   UNL     1      26.346 -15.665  -0.382 -0.37 -0.00    +0.000 C 
DOCKED: BRANCH  16  17
DOCKED: ATOM     17  C   UNL     1      25.239 -16.723  -0.356 -0.34 -0.00    +0.000 C 
DOCKED: BRANCH  17  18
DOCKED: ATOM     18  C   UNL     1      25.317 -17.635  -1.585 -0.57 -0.00    +0.000 C 
DOCKED: BRANCH  18  19
DOCKED: ATOM     19  C   UNL     1      23.932 -18.188  -1.949 -0.50 -0.00    +0.000 C 
DOCKED: BRANCH  19  20
DOCKED: ATOM     20  C   UNL     1      23.089 -18.512  -0.709 -0.83 -0.00    +0.000 C 
DOCKED: BRANCH  20  22
DOCKED: ATOM     21  O   UNL     1      20.875 -17.612  -0.706 -2.13 +0.00    +0.000 OA
DOCKED: ATOM     22  C   UNL     1      21.623 -18.571  -1.031 -0.80 -0.00    +0.000 C 
DOCKED: ATOM     23  N   UNL     1      21.081 -19.691  -1.734 -0.66 -0.00    +0.000 N 
DOCKED: ATOM     24  O   UNL     1      19.764 -19.736  -2.040 -2.24 -0.00    +0.000 OA
DOCKED: ATOM     25  H   UNL     1      21.670 -20.435  -1.998 -0.48 -0.00    +0.000 HD
DOCKED: ENDBRANCH  20  22
DOCKED: ENDBRANCH  19  20
DOCKED: ENDBRANCH  18  19
DOCKED: ENDBRANCH  17  18
DOCKED: ENDBRANCH  16  17
DOCKED: ENDBRANCH   1  16
DOCKED: TORSDOF 6
DOCKED: TER
DOCKED: ENDMDL
________________________________________________________________________________


	BEGINNING GENETIC ALGORITHM DOCKING 80 of 100
Run: 80 Seed: 13405626 2130072962 [ Run 80 of 100 GA/GALS ]
Beginning LAMARCKIAN GENETIC ALGORITHM (LGA), with a maximum of 2500000 energy evaluations.

Final-Value: -13.341


	FINAL GENETIC ALGORITHM DOCKED STATE
	_______________________________________________


Detailed state:  trans 25.998 -17.170 -2.644 quatxyzw -0.382365 0.900319 0.203856 -0.040810 center -0.011 0.081 -0.051 ntor 6 18.0606 -122.3586 141.2644 71.2858 77.1117 168.0191
State:	 25.998 -17.170  -2.644  -0.383  0.901  0.204 -175.322     18.06 -122.36  141.26   71.29   77.11  168.02

DOCKED: MODEL       80
DOCKED: USER    Run = 80
DOCKED: USER    DPF = ligand_dock.biased.dpf
DOCKED: USER  
DOCKED: USER    Estimated Free Energy of Binding    =  -10.82 kcal/mol  [=(1)+(2)+(3)-(4)]
DOCKED: USER    Estimated Inhibition Constant, Ki   =   11.81 nM (nanomolar)  [Temperature = 298.15 K]
DOCKED: USER    
DOCKED: USER    (1) Final Intermolecular Energy     =  -12.61 kcal/mol
DOCKED: USER        vdW + Hbond + desolv Energy     =  -12.61 kcal/mol
DOCKED: USER        Electrostatic Energy            =   +0.00 kcal/mol
DOCKED: USER    (2) Final Total Internal Energy     =   -0.74 kcal/mol
DOCKED: USER    (3) Torsional Free Energy           =   +1.79 kcal/mol
DOCKED: USER    (4) Unbound System's Energy  [=(2)] =   -0.74 kcal/mol
DOCKED: USER    
DOCKED: USER    
DOCKED: USER    NEWDPF move ligand.pdbqt
DOCKED: USER    NEWDPF about -0.011000 0.081000 -0.051000
DOCKED: USER    NEWDPF tran0 25.998115 -17.170346 -2.644454
DOCKED: USER    NEWDPF quaternion0 -0.382365 0.900319 0.203856 -0.040810
DOCKED: USER    NEWDPF axisangle0 -0.382684 0.901070 0.204026 -175.322274
DOCKED: USER    NEWDPF quat0 -0.382684 0.901070 0.204026 -175.322274
DOCKED: USER    NEWDPF dihe0 18.06 -122.36 141.26 71.29 77.11 168.02 
DOCKED: USER  keepresnum = 1 
DOCKED: USER  
DOCKED: REMARK  Name = 
DOCKED: REMARK  6 active torsions:
DOCKED: REMARK  status: ('A' for Active; 'I' for Inactive)
DOCKED: REMARK    1  A    between atoms: C_2  and  C_5
DOCKED: REMARK    2  A    between atoms: C_5  and  C_6
DOCKED: REMARK    3  A    between atoms: C_6  and  C_7
DOCKED: REMARK    4  A    between atoms: C_7  and  C_8
DOCKED: REMARK    5  A    between atoms: C_8  and  C_9
DOCKED: REMARK    6  A    between atoms: C_9  and  N_10
DOCKED: REMARK                            x       y       z     vdW  Elec       q    Type
DOCKED: REMARK                         _______ _______ _______ _____ _____    ______ ____
DOCKED: USER                              x       y       z     vdW  Elec       q    Type
DOCKED: USER                           _______ _______ _______ _____ _____    ______ ____
DOCKED: ROOT
DOCKED: ATOM      1  N   UNL     1      25.940 -16.365  -2.203 -0.48 -0.00    +0.000 N 
DOCKED: ATOM      2  C   UNL     1      27.036 -16.810  -1.381 -0.46 -0.00    +0.000 C 
DOCKED: ATOM      3  C   UNL     1      28.237 -15.957  -1.226 -0.26 -0.00    +0.000 A 
DOCKED: ATOM      4  C   UNL     1      29.301 -16.366  -0.403 -0.19 -0.00    +0.000 A 
DOCKED: ATOM      5  C   UNL     1      30.434 -15.564  -0.256 -0.12 -0.00    +0.000 A 
DOCKED: ATOM      6  C   UNL     1      30.523 -14.344  -0.926 -0.04 -0.00    +0.000 A 
DOCKED: ATOM      7  C   UNL     1      29.477 -13.916  -1.755 -0.05 -0.00    +0.000 A 
DOCKED: ATOM      8  C   UNL     1      29.570 -12.691  -2.431 -0.03 -0.00    +0.000 A 
DOCKED: ATOM      9  C   UNL     1      28.530 -12.265  -3.257 -0.07 -0.00    +0.000 A 
DOCKED: ATOM     10  C   UNL     1      27.390 -13.053  -3.417 -0.18 -0.00    +0.000 A 
DOCKED: ATOM     11  C   UNL     1      27.272 -14.285  -2.748 -0.22 -0.00    +0.000 A 
DOCKED: ATOM     12  C   UNL     1      28.321 -14.724  -1.910 -0.15 -0.00    +0.000 A 
DOCKED: ATOM     13  O   UNL     1      26.976 -17.926  -0.795 -0.58 -0.00    +0.000 OA
DOCKED: ATOM     14  C   UNL     1      26.062 -15.121  -2.918 -0.48 -0.00    +0.000 C 
DOCKED: ATOM     15  O   UNL     1      25.139 -14.742  -3.692 -0.86 -0.00    +0.000 OA
DOCKED: ENDROOT
DOCKED: BRANCH   1  16
DOCKED: ATOM     16  C   UNL     1      24.759 -17.220  -2.394 -0.41 -0.00    +0.000 C 
DOCKED: BRANCH  16  17
DOCKED: ATOM     17  C   UNL     1      23.821 -17.103  -1.189 -0.68 -0.00    +0.000 C 
DOCKED: BRANCH  17  18
DOCKED: ATOM     18  C   UNL     1      23.945 -18.324  -0.271 -0.75 -0.00    +0.000 C 
DOCKED: BRANCH  18  19
DOCKED: ATOM     19  C   UNL     1      22.697 -19.213  -0.366 -0.67 -0.00    +0.000 C 
DOCKED: BRANCH  19  20
DOCKED: ATOM     20  C   UNL     1      21.412 -18.396  -0.556 -0.80 -0.00    +0.000 C 
DOCKED: BRANCH  20  22
DOCKED: ATOM     21  O   UNL     1      20.264 -19.939  -1.974 -2.31 -0.00    +0.000 OA
DOCKED: ATOM     22  C   UNL     1      20.243 -19.270  -0.908 -0.89 -0.00    +0.000 C 
DOCKED: ATOM     23  N   UNL     1      19.124 -19.373  -0.024 -0.77 -0.00    +0.000 N 
DOCKED: ATOM     24  O   UNL     1      18.078 -20.173  -0.333 -0.88 -0.00    +0.000 OA
DOCKED: ATOM     25  H   UNL     1      19.113 -18.857   0.815 -0.29 -0.00    +0.000 HD
DOCKED: ENDBRANCH  20  22
DOCKED: ENDBRANCH  19  20
DOCKED: ENDBRANCH  18  19
DOCKED: ENDBRANCH  17  18
DOCKED: ENDBRANCH  16  17
DOCKED: ENDBRANCH   1  16
DOCKED: TORSDOF 6
DOCKED: TER
DOCKED: ENDMDL
________________________________________________________________________________


	BEGINNING GENETIC ALGORITHM DOCKING 81 of 100
Run: 81 Seed: 1963223796 1703688614 [ Run 81 of 100 GA/GALS ]
Beginning LAMARCKIAN GENETIC ALGORITHM (LGA), with a maximum of 2500000 energy evaluations.

Final-Value: -14.636


	FINAL GENETIC ALGORITHM DOCKED STATE
	_______________________________________________


Detailed state:  trans 26.777 -15.081 -1.300 quatxyzw -0.426040 -0.043277 -0.890123 0.155875 center -0.011 0.081 -0.051 ntor 6 -55.4178 -179.9360 -164.2066 -49.1523 -153.5876 152.5498
State:	 26.777 -15.081  -1.300  -0.431 -0.044 -0.901 162.065    -55.42 -179.94 -164.21  -49.15 -153.59  152.55

DOCKED: MODEL       81
DOCKED: USER    Run = 81
DOCKED: USER    DPF = ligand_dock.biased.dpf
DOCKED: USER  
DOCKED: USER    Estimated Free Energy of Binding    =  -11.93 kcal/mol  [=(1)+(2)+(3)-(4)]
DOCKED: USER    Estimated Inhibition Constant, Ki   =    1.81 nM (nanomolar)  [Temperature = 298.15 K]
DOCKED: USER    
DOCKED: USER    (1) Final Intermolecular Energy     =  -13.72 kcal/mol
DOCKED: USER        vdW + Hbond + desolv Energy     =  -13.72 kcal/mol
DOCKED: USER        Electrostatic Energy            =   +0.00 kcal/mol
DOCKED: USER    (2) Final Total Internal Energy     =   -0.92 kcal/mol
DOCKED: USER    (3) Torsional Free Energy           =   +1.79 kcal/mol
DOCKED: USER    (4) Unbound System's Energy  [=(2)] =   -0.92 kcal/mol
DOCKED: USER    
DOCKED: USER    
DOCKED: USER    NEWDPF move ligand.pdbqt
DOCKED: USER    NEWDPF about -0.011000 0.081000 -0.051000
DOCKED: USER    NEWDPF tran0 26.776696 -15.081470 -1.299697
DOCKED: USER    NEWDPF quaternion0 -0.426040 -0.043277 -0.890123 0.155875
DOCKED: USER    NEWDPF axisangle0 -0.431312 -0.043813 -0.901138 162.064919
DOCKED: USER    NEWDPF quat0 -0.431312 -0.043813 -0.901138 162.064919
DOCKED: USER    NEWDPF dihe0 -55.42 -179.94 -164.21 -49.15 -153.59 152.55 
DOCKED: USER  keepresnum = 1 
DOCKED: USER  
DOCKED: REMARK  Name = 
DOCKED: REMARK  6 active torsions:
DOCKED: REMARK  status: ('A' for Active; 'I' for Inactive)
DOCKED: REMARK    1  A    between atoms: C_2  and  C_5
DOCKED: REMARK    2  A    between atoms: C_5  and  C_6
DOCKED: REMARK    3  A    between atoms: C_6  and  C_7
DOCKED: REMARK    4  A    between atoms: C_7  and  C_8
DOCKED: REMARK    5  A    between atoms: C_8  and  C_9
DOCKED: REMARK    6  A    between atoms: C_9  and  N_10
DOCKED: REMARK                            x       y       z     vdW  Elec       q    Type
DOCKED: REMARK                         _______ _______ _______ _____ _____    ______ ____
DOCKED: USER                              x       y       z     vdW  Elec       q    Type
DOCKED: USER                           _______ _______ _______ _____ _____    ______ ____
DOCKED: ROOT
DOCKED: ATOM      1  N   UNL     1      26.904 -15.922  -1.652 -0.33 -0.00    +0.000 N 
DOCKED: ATOM      2  C   UNL     1      26.694 -15.340  -2.952 -0.42 -0.00    +0.000 C 
DOCKED: ATOM      3  C   UNL     1      27.689 -15.553  -4.028 -0.31 -0.00    +0.000 A 
DOCKED: ATOM      4  C   UNL     1      27.481 -15.015  -5.310 -0.39 -0.00    +0.000 A 
DOCKED: ATOM      5  C   UNL     1      28.417 -15.216  -6.325 -0.27 +0.00    +0.000 A 
DOCKED: ATOM      6  C   UNL     1      29.575 -15.954  -6.078 -0.32 -0.00    +0.000 A 
DOCKED: ATOM      7  C   UNL     1      29.806 -16.499  -4.807 -0.26 -0.00    +0.000 A 
DOCKED: ATOM      8  C   UNL     1      30.972 -17.238  -4.559 -0.18 -0.00    +0.000 A 
DOCKED: ATOM      9  C   UNL     1      31.204 -17.778  -3.294 -0.14 -0.00    +0.000 A 
DOCKED: ATOM     10  C   UNL     1      30.279 -17.588  -2.267 -0.16 -0.00    +0.000 A 
DOCKED: ATOM     11  C   UNL     1      29.101 -16.853  -2.491 -0.21 -0.00    +0.000 A 
DOCKED: ATOM     12  C   UNL     1      28.859 -16.301  -3.769 -0.21 -0.00    +0.000 A 
DOCKED: ATOM     13  O   UNL     1      25.664 -14.644  -3.175 -0.53 -0.00    +0.000 OA
DOCKED: ATOM     14  C   UNL     1      28.120 -16.651  -1.400 -0.35 -0.00    +0.000 C 
DOCKED: ATOM     15  O   UNL     1      28.353 -17.117  -0.250 -0.36 -0.00    +0.000 OA
DOCKED: ENDROOT
DOCKED: BRANCH   1  16
DOCKED: ATOM     16  C   UNL     1      25.941 -15.685  -0.566 -0.37 -0.00    +0.000 C 
DOCKED: BRANCH  16  17
DOCKED: ATOM     17  C   UNL     1      24.588 -16.313  -0.912 -0.44 -0.00    +0.000 C 
DOCKED: BRANCH  17  18
DOCKED: ATOM     18  C   UNL     1      24.758 -17.494  -1.874 -0.65 -0.00    +0.000 C 
DOCKED: BRANCH  18  19
DOCKED: ATOM     19  C   UNL     1      23.982 -18.723  -1.379 -0.67 -0.00    +0.000 C 
DOCKED: BRANCH  19  20
DOCKED: ATOM     20  C   UNL     1      22.897 -18.356  -0.358 -0.83 -0.00    +0.000 C 
DOCKED: BRANCH  20  22
DOCKED: ATOM     21  O   UNL     1      20.632 -17.686  -0.727 -2.22 +0.00    +0.000 OA
DOCKED: ATOM     22  C   UNL     1      21.517 -18.564  -0.912 -0.82 -0.00    +0.000 C 
DOCKED: ATOM     23  N   UNL     1      21.212 -19.733  -1.676 -0.60 -0.00    +0.000 N 
DOCKED: ATOM     24  O   UNL     1      19.973 -19.912  -2.189 -2.26 -0.00    +0.000 OA
DOCKED: ATOM     25  H   UNL     1      21.908 -20.413  -1.829 -0.42 -0.00    +0.000 HD
DOCKED: ENDBRANCH  20  22
DOCKED: ENDBRANCH  19  20
DOCKED: ENDBRANCH  18  19
DOCKED: ENDBRANCH  17  18
DOCKED: ENDBRANCH  16  17
DOCKED: ENDBRANCH   1  16
DOCKED: TORSDOF 6
DOCKED: TER
DOCKED: ENDMDL
________________________________________________________________________________


	BEGINNING GENETIC ALGORITHM DOCKING 82 of 100
Run: 82 Seed: 695122609 2108559548 [ Run 82 of 100 GA/GALS ]
Beginning LAMARCKIAN GENETIC ALGORITHM (LGA), with a maximum of 2500000 energy evaluations.

Final-Value: -13.082


	FINAL GENETIC ALGORITHM DOCKED STATE
	_______________________________________________


Detailed state:  trans 27.064 -15.008 -2.110 quatxyzw 0.235400 -0.489801 -0.804677 0.239116 center -0.011 0.081 -0.051 ntor 6 -47.0243 173.4015 14.7934 11.6768 -86.3330 160.5299
State:	 27.064 -15.008  -2.110   0.242 -0.504 -0.829 152.331    -47.02  173.40   14.79   11.68  -86.33  160.53

DOCKED: MODEL       82
DOCKED: USER    Run = 82
DOCKED: USER    DPF = ligand_dock.biased.dpf
DOCKED: USER  
DOCKED: USER    Estimated Free Energy of Binding    =  -10.52 kcal/mol  [=(1)+(2)+(3)-(4)]
DOCKED: USER    Estimated Inhibition Constant, Ki   =   19.33 nM (nanomolar)  [Temperature = 298.15 K]
DOCKED: USER    
DOCKED: USER    (1) Final Intermolecular Energy     =  -12.31 kcal/mol
DOCKED: USER        vdW + Hbond + desolv Energy     =  -12.31 kcal/mol
DOCKED: USER        Electrostatic Energy            =   +0.00 kcal/mol
DOCKED: USER    (2) Final Total Internal Energy     =   -0.77 kcal/mol
DOCKED: USER    (3) Torsional Free Energy           =   +1.79 kcal/mol
DOCKED: USER    (4) Unbound System's Energy  [=(2)] =   -0.77 kcal/mol
DOCKED: USER    
DOCKED: USER    
DOCKED: USER    NEWDPF move ligand.pdbqt
DOCKED: USER    NEWDPF about -0.011000 0.081000 -0.051000
DOCKED: USER    NEWDPF tran0 27.063810 -15.007860 -2.110010
DOCKED: USER    NEWDPF quaternion0 0.235400 -0.489801 -0.804677 0.239116
DOCKED: USER    NEWDPF axisangle0 0.242433 -0.504434 -0.828717 152.331252
DOCKED: USER    NEWDPF quat0 0.242433 -0.504434 -0.828717 152.331252
DOCKED: USER    NEWDPF dihe0 -47.02 173.40 14.79 11.68 -86.33 160.53 
DOCKED: USER  keepresnum = 1 
DOCKED: USER  
DOCKED: REMARK  Name = 
DOCKED: REMARK  6 active torsions:
DOCKED: REMARK  status: ('A' for Active; 'I' for Inactive)
DOCKED: REMARK    1  A    between atoms: C_2  and  C_5
DOCKED: REMARK    2  A    between atoms: C_5  and  C_6
DOCKED: REMARK    3  A    between atoms: C_6  and  C_7
DOCKED: REMARK    4  A    between atoms: C_7  and  C_8
DOCKED: REMARK    5  A    between atoms: C_8  and  C_9
DOCKED: REMARK    6  A    between atoms: C_9  and  N_10
DOCKED: REMARK                            x       y       z     vdW  Elec       q    Type
DOCKED: REMARK                         _______ _______ _______ _____ _____    ______ ____
DOCKED: USER                              x       y       z     vdW  Elec       q    Type
DOCKED: USER                           _______ _______ _______ _____ _____    ______ ____
DOCKED: ROOT
DOCKED: ATOM      1  N   UNL     1      27.115 -15.452  -1.306 -0.28 -0.00    +0.000 N 
DOCKED: ATOM      2  C   UNL     1      28.251 -16.157  -1.840 -0.29 -0.00    +0.000 C 
DOCKED: ATOM      3  C   UNL     1      29.525 -16.185  -1.086 -0.18 -0.00    +0.000 A 
DOCKED: ATOM      4  C   UNL     1      30.634 -16.895  -1.582 -0.14 -0.00    +0.000 A 
DOCKED: ATOM      5  C   UNL     1      31.834 -16.923  -0.872 -0.08 -0.00    +0.000 A 
DOCKED: ATOM      6  C   UNL     1      31.950 -16.244   0.342 -0.09 -0.00    +0.000 A 
DOCKED: ATOM      7  C   UNL     1      30.861 -15.527   0.856 -0.10 -0.00    +0.000 A 
DOCKED: ATOM      8  C   UNL     1      30.980 -14.843   2.074 -0.14 -0.00    +0.000 A 
DOCKED: ATOM      9  C   UNL     1      29.897 -14.128   2.585 -0.18 -0.00    +0.000 A 
DOCKED: ATOM     10  C   UNL     1      28.688 -14.088   1.890 -0.21 -0.00    +0.000 A 
DOCKED: ATOM     11  C   UNL     1      28.543 -14.768   0.667 -0.19 -0.00    +0.000 A 
DOCKED: ATOM     12  C   UNL     1      29.635 -15.494   0.142 -0.13 -0.00    +0.000 A 
DOCKED: ATOM     13  O   UNL     1      28.164 -16.748  -2.952 -0.31 -0.00    +0.000 OA
DOCKED: ATOM     14  C   UNL     1      27.260 -14.726  -0.070 -0.30 -0.00    +0.000 C 
DOCKED: ATOM     15  O   UNL     1      26.295 -14.050   0.385 -0.38 -0.00    +0.000 OA
DOCKED: ENDROOT
DOCKED: BRANCH   1  16
DOCKED: ATOM     16  C   UNL     1      25.857 -15.386  -2.064 -0.47 -0.00    +0.000 C 
DOCKED: BRANCH  16  17
DOCKED: ATOM     17  C   UNL     1      25.150 -16.743  -2.034 -0.61 -0.00    +0.000 C 
DOCKED: BRANCH  17  18
DOCKED: ATOM     18  C   UNL     1      24.134 -16.811  -0.889 -0.61 -0.00    +0.000 C 
DOCKED: BRANCH  18  19
DOCKED: ATOM     19  C   UNL     1      23.644 -18.250  -0.672 -0.81 -0.00    +0.000 C 
DOCKED: BRANCH  19  20
DOCKED: ATOM     20  C   UNL     1      22.339 -18.308   0.133 -0.74 -0.00    +0.000 C 
DOCKED: BRANCH  20  22
DOCKED: ATOM     21  O   UNL     1      20.147 -17.864  -0.709 -2.11 +0.00    +0.000 OA
DOCKED: ATOM     22  C   UNL     1      21.157 -18.616  -0.740 -0.85 -0.00    +0.000 C 
DOCKED: ATOM     23  N   UNL     1      21.186 -19.734  -1.629 -0.63 -0.00    +0.000 N 
DOCKED: ATOM     24  O   UNL     1      20.128 -20.002  -2.429 -2.08 -0.00    +0.000 OA
DOCKED: ATOM     25  H   UNL     1      21.981 -20.314  -1.661 -0.38 -0.00    +0.000 HD
DOCKED: ENDBRANCH  20  22
DOCKED: ENDBRANCH  19  20
DOCKED: ENDBRANCH  18  19
DOCKED: ENDBRANCH  17  18
DOCKED: ENDBRANCH  16  17
DOCKED: ENDBRANCH   1  16
DOCKED: TORSDOF 6
DOCKED: TER
DOCKED: ENDMDL
________________________________________________________________________________


	BEGINNING GENETIC ALGORITHM DOCKING 83 of 100
Run: 83 Seed: 647897559 1840193184 [ Run 83 of 100 GA/GALS ]
Beginning LAMARCKIAN GENETIC ALGORITHM (LGA), with a maximum of 2500000 energy evaluations.

Final-Value: -13.923


	FINAL GENETIC ALGORITHM DOCKED STATE
	_______________________________________________


Detailed state:  trans 26.256 -16.179 -2.470 quatxyzw 0.428228 -0.852004 0.300509 -0.020117 center -0.011 0.081 -0.051 ntor 6 129.6380 -79.4430 164.4840 -86.9856 -69.9329 23.1242
State:	 26.256 -16.179  -2.470   0.428 -0.852  0.301 -177.695    129.64  -79.44  164.48  -86.99  -69.93   23.12

DOCKED: MODEL       83
DOCKED: USER    Run = 83
DOCKED: USER    DPF = ligand_dock.biased.dpf
DOCKED: USER  
DOCKED: USER    Estimated Free Energy of Binding    =  -11.38 kcal/mol  [=(1)+(2)+(3)-(4)]
DOCKED: USER    Estimated Inhibition Constant, Ki   =    4.56 nM (nanomolar)  [Temperature = 298.15 K]
DOCKED: USER    
DOCKED: USER    (1) Final Intermolecular Energy     =  -13.17 kcal/mol
DOCKED: USER        vdW + Hbond + desolv Energy     =  -13.17 kcal/mol
DOCKED: USER        Electrostatic Energy            =   +0.00 kcal/mol
DOCKED: USER    (2) Final Total Internal Energy     =   -0.75 kcal/mol
DOCKED: USER    (3) Torsional Free Energy           =   +1.79 kcal/mol
DOCKED: USER    (4) Unbound System's Energy  [=(2)] =   -0.75 kcal/mol
DOCKED: USER    
DOCKED: USER    
DOCKED: USER    NEWDPF move ligand.pdbqt
DOCKED: USER    NEWDPF about -0.011000 0.081000 -0.051000
DOCKED: USER    NEWDPF tran0 26.255758 -16.179336 -2.469931
DOCKED: USER    NEWDPF quaternion0 0.428228 -0.852004 0.300509 -0.020117
DOCKED: USER    NEWDPF axisangle0 0.428315 -0.852176 0.300570 -177.694577
DOCKED: USER    NEWDPF quat0 0.428315 -0.852176 0.300570 -177.694577
DOCKED: USER    NEWDPF dihe0 129.64 -79.44 164.48 -86.99 -69.93 23.12 
DOCKED: USER  keepresnum = 1 
DOCKED: USER  
DOCKED: REMARK  Name = 
DOCKED: REMARK  6 active torsions:
DOCKED: REMARK  status: ('A' for Active; 'I' for Inactive)
DOCKED: REMARK    1  A    between atoms: C_2  and  C_5
DOCKED: REMARK    2  A    between atoms: C_5  and  C_6
DOCKED: REMARK    3  A    between atoms: C_6  and  C_7
DOCKED: REMARK    4  A    between atoms: C_7  and  C_8
DOCKED: REMARK    5  A    between atoms: C_8  and  C_9
DOCKED: REMARK    6  A    between atoms: C_9  and  N_10
DOCKED: REMARK                            x       y       z     vdW  Elec       q    Type
DOCKED: REMARK                         _______ _______ _______ _____ _____    ______ ____
DOCKED: USER                              x       y       z     vdW  Elec       q    Type
DOCKED: USER                           _______ _______ _______ _____ _____    ______ ____
DOCKED: ROOT
DOCKED: ATOM      1  N   UNL     1      26.105 -15.394  -2.924 -0.43 -0.00    +0.000 N 
DOCKED: ATOM      2  C   UNL     1      26.871 -14.730  -1.901 -0.31 -0.00    +0.000 C 
DOCKED: ATOM      3  C   UNL     1      28.008 -13.858  -2.276 -0.13 -0.00    +0.000 A 
DOCKED: ATOM      4  C   UNL     1      28.745 -13.181  -1.287 -0.07 -0.00    +0.000 A 
DOCKED: ATOM      5  C   UNL     1      29.815 -12.358  -1.640 -0.02 -0.00    +0.000 A 
DOCKED: ATOM      6  C   UNL     1      30.169 -12.199  -2.979 -0.01 -0.00    +0.000 A 
DOCKED: ATOM      7  C   UNL     1      29.452 -12.865  -3.983 -0.06 -0.00    +0.000 A 
DOCKED: ATOM      8  C   UNL     1      29.810 -12.706  -5.329 -0.07 -0.00    +0.000 A 
DOCKED: ATOM      9  C   UNL     1      29.098 -13.371  -6.327 -0.21 -0.00    +0.000 A 
DOCKED: ATOM     10  C   UNL     1      28.024 -14.197  -5.995 -0.28 -0.00    +0.000 A 
DOCKED: ATOM     11  C   UNL     1      27.644 -14.371  -4.652 -0.31 -0.00    +0.000 A 
DOCKED: ATOM     12  C   UNL     1      28.360 -13.702  -3.635 -0.13 -0.00    +0.000 A 
DOCKED: ATOM     13  O   UNL     1      26.577 -14.893  -0.684 -0.35 -0.00    +0.000 OA
DOCKED: ATOM     14  C   UNL     1      26.504 -15.248  -4.300 -0.54 -0.00    +0.000 C 
DOCKED: ATOM     15  O   UNL     1      25.885 -15.870  -5.208 -1.12 +0.00    +0.000 OA
DOCKED: ENDROOT
DOCKED: BRANCH   1  16
DOCKED: ATOM     16  C   UNL     1      24.998 -16.291  -2.561 -0.42 -0.00    +0.000 C 
DOCKED: BRANCH  16  17
DOCKED: ATOM     17  C   UNL     1      25.532 -17.506  -1.796 -0.52 -0.00    +0.000 C 
DOCKED: BRANCH  17  18
DOCKED: ATOM     18  C   UNL     1      25.113 -17.458  -0.323 -0.62 -0.00    +0.000 C 
DOCKED: BRANCH  18  19
DOCKED: ATOM     19  C   UNL     1      23.808 -18.235  -0.095 -0.74 -0.00    +0.000 C 
DOCKED: BRANCH  19  20
DOCKED: ATOM     20  C   UNL     1      23.106 -18.593  -1.412 -0.77 -0.00    +0.000 C 
DOCKED: BRANCH  20  22
DOCKED: ATOM     21  O   UNL     1      21.026 -17.650  -0.707 -2.10 -0.00    +0.000 OA
DOCKED: ATOM     22  C   UNL     1      21.613 -18.619  -1.258 -0.60 -0.00    +0.000 C 
DOCKED: ATOM     23  N   UNL     1      20.852 -19.718  -1.764 -0.74 -0.00    +0.000 N 
DOCKED: ATOM     24  O   UNL     1      19.505 -19.734  -1.640 -2.11 -0.00    +0.000 OA
DOCKED: ATOM     25  H   UNL     1      21.311 -20.470  -2.205 -0.50 -0.00    +0.000 HD
DOCKED: ENDBRANCH  20  22
DOCKED: ENDBRANCH  19  20
DOCKED: ENDBRANCH  18  19
DOCKED: ENDBRANCH  17  18
DOCKED: ENDBRANCH  16  17
DOCKED: ENDBRANCH   1  16
DOCKED: TORSDOF 6
DOCKED: TER
DOCKED: ENDMDL
________________________________________________________________________________


	BEGINNING GENETIC ALGORITHM DOCKING 84 of 100
Run: 84 Seed: 1003377530 978140665 [ Run 84 of 100 GA/GALS ]
Beginning LAMARCKIAN GENETIC ALGORITHM (LGA), with a maximum of 2500000 energy evaluations.

Final-Value: -14.509


	FINAL GENETIC ALGORITHM DOCKED STATE
	_______________________________________________


Detailed state:  trans 26.428 -16.458 -1.845 quatxyzw -0.034650 -0.967866 0.038590 -0.246060 center -0.011 0.081 -0.051 ntor 6 -59.0196 178.5169 -139.3920 10.9385 118.5772 36.4044
State:	 26.428 -16.458  -1.845  -0.036 -0.999  0.040 -151.511    -59.02  178.52 -139.39   10.94  118.58   36.40

DOCKED: MODEL       84
DOCKED: USER    Run = 84
DOCKED: USER    DPF = ligand_dock.biased.dpf
DOCKED: USER  
DOCKED: USER    Estimated Free Energy of Binding    =  -11.88 kcal/mol  [=(1)+(2)+(3)-(4)]
DOCKED: USER    Estimated Inhibition Constant, Ki   =    1.95 nM (nanomolar)  [Temperature = 298.15 K]
DOCKED: USER    
DOCKED: USER    (1) Final Intermolecular Energy     =  -13.67 kcal/mol
DOCKED: USER        vdW + Hbond + desolv Energy     =  -13.67 kcal/mol
DOCKED: USER        Electrostatic Energy            =   +0.00 kcal/mol
DOCKED: USER    (2) Final Total Internal Energy     =   -0.84 kcal/mol
DOCKED: USER    (3) Torsional Free Energy           =   +1.79 kcal/mol
DOCKED: USER    (4) Unbound System's Energy  [=(2)] =   -0.84 kcal/mol
DOCKED: USER    
DOCKED: USER    
DOCKED: USER    NEWDPF move ligand.pdbqt
DOCKED: USER    NEWDPF about -0.011000 0.081000 -0.051000
DOCKED: USER    NEWDPF tran0 26.428104 -16.458111 -1.844707
DOCKED: USER    NEWDPF quaternion0 -0.034650 -0.967866 0.038590 -0.246060
DOCKED: USER    NEWDPF axisangle0 -0.035749 -0.998567 0.039814 -151.511072
DOCKED: USER    NEWDPF quat0 -0.035749 -0.998567 0.039814 -151.511072
DOCKED: USER    NEWDPF dihe0 -59.02 178.52 -139.39 10.94 118.58 36.40 
DOCKED: USER  keepresnum = 1 
DOCKED: USER  
DOCKED: REMARK  Name = 
DOCKED: REMARK  6 active torsions:
DOCKED: REMARK  status: ('A' for Active; 'I' for Inactive)
DOCKED: REMARK    1  A    between atoms: C_2  and  C_5
DOCKED: REMARK    2  A    between atoms: C_5  and  C_6
DOCKED: REMARK    3  A    between atoms: C_6  and  C_7
DOCKED: REMARK    4  A    between atoms: C_7  and  C_8
DOCKED: REMARK    5  A    between atoms: C_8  and  C_9
DOCKED: REMARK    6  A    between atoms: C_9  and  N_10
DOCKED: REMARK                            x       y       z     vdW  Elec       q    Type
DOCKED: REMARK                         _______ _______ _______ _____ _____    ______ ____
DOCKED: USER                              x       y       z     vdW  Elec       q    Type
DOCKED: USER                           _______ _______ _______ _____ _____    ______ ____
DOCKED: ROOT
DOCKED: ATOM      1  N   UNL     1      27.026 -15.817  -2.125 -0.32 -0.00    +0.000 N 
DOCKED: ATOM      2  C   UNL     1      28.056 -16.585  -1.475 -0.35 -0.00    +0.000 C 
DOCKED: ATOM      3  C   UNL     1      29.271 -16.978  -2.227 -0.21 -0.00    +0.000 A 
DOCKED: ATOM      4  C   UNL     1      30.298 -17.702  -1.596 -0.19 -0.00    +0.000 A 
DOCKED: ATOM      5  C   UNL     1      31.443 -18.072  -2.302 -0.12 -0.00    +0.000 A 
DOCKED: ATOM      6  C   UNL     1      31.582 -17.727  -3.647 -0.12 -0.00    +0.000 A 
DOCKED: ATOM      7  C   UNL     1      30.571 -17.007  -4.299 -0.20 -0.00    +0.000 A 
DOCKED: ATOM      8  C   UNL     1      30.710 -16.664  -5.651 -0.23 -0.00    +0.000 A 
DOCKED: ATOM      9  C   UNL     1      29.704 -15.950  -6.301 -0.32 -0.00    +0.000 A 
DOCKED: ATOM     10  C   UNL     1      28.552 -15.571  -5.611 -0.33 -0.00    +0.000 A 
DOCKED: ATOM     11  C   UNL     1      28.389 -15.901  -4.254 -0.24 -0.00    +0.000 A 
DOCKED: ATOM     12  C   UNL     1      29.403 -16.625  -3.588 -0.22 -0.00    +0.000 A 
DOCKED: ATOM     13  O   UNL     1      27.924 -16.928  -0.268 -0.41 -0.00    +0.000 OA
DOCKED: ATOM     14  C   UNL     1      27.166 -15.499  -3.523 -0.39 -0.00    +0.000 C 
DOCKED: ATOM     15  O   UNL     1      26.247 -14.880  -4.127 -0.54 -0.00    +0.000 OA
DOCKED: ENDROOT
DOCKED: BRANCH   1  16
DOCKED: ATOM     16  C   UNL     1      25.799 -15.455  -1.399 -0.45 -0.00    +0.000 C 
DOCKED: BRANCH  16  17
DOCKED: ATOM     17  C   UNL     1      25.179 -16.697  -0.754 -0.57 -0.00    +0.000 C 
DOCKED: BRANCH  17  18
DOCKED: ATOM     18  C   UNL     1      24.786 -17.731  -1.815 -0.62 -0.00    +0.000 C 
DOCKED: BRANCH  18  19
DOCKED: ATOM     19  C   UNL     1      23.921 -18.844  -1.205 -0.70 -0.00    +0.000 C 
DOCKED: BRANCH  19  20
DOCKED: ATOM     20  C   UNL     1      22.844 -18.294  -0.260 -0.81 -0.00    +0.000 C 
DOCKED: BRANCH  20  22
DOCKED: ATOM     21  O   UNL     1      20.631 -17.508  -0.708 -2.10 +0.00    +0.000 OA
DOCKED: ATOM     22  C   UNL     1      21.466 -18.442  -0.839 -0.81 -0.00    +0.000 C 
DOCKED: ATOM     23  N   UNL     1      21.110 -19.619  -1.567 -0.70 -0.00    +0.000 N 
DOCKED: ATOM     24  O   UNL     1      19.874 -19.746  -2.104 -2.33 -0.00    +0.000 OA
DOCKED: ATOM     25  H   UNL     1      21.767 -20.344  -1.679 -0.39 -0.00    +0.000 HD
DOCKED: ENDBRANCH  20  22
DOCKED: ENDBRANCH  19  20
DOCKED: ENDBRANCH  18  19
DOCKED: ENDBRANCH  17  18
DOCKED: ENDBRANCH  16  17
DOCKED: ENDBRANCH   1  16
DOCKED: TORSDOF 6
DOCKED: TER
DOCKED: ENDMDL
________________________________________________________________________________


	BEGINNING GENETIC ALGORITHM DOCKING 85 of 100
Run: 85 Seed: 71395540 26447564 [ Run 85 of 100 GA/GALS ]
Beginning LAMARCKIAN GENETIC ALGORITHM (LGA), with a maximum of 2500000 energy evaluations.

Final-Value: -13.647


	FINAL GENETIC ALGORITHM DOCKED STATE
	_______________________________________________


Detailed state:  trans 25.504 -14.558 -3.176 quatxyzw 0.094349 0.498392 0.833861 0.217669 center -0.011 0.081 -0.051 ntor 6 -65.0969 161.2090 -105.7536 44.4599 59.2302 169.1670
State:	 25.504 -14.558  -3.176   0.097  0.511  0.854 154.856    -65.10  161.21 -105.75   44.46   59.23  169.17

DOCKED: MODEL       85
DOCKED: USER    Run = 85
DOCKED: USER    DPF = ligand_dock.biased.dpf
DOCKED: USER  
DOCKED: USER    Estimated Free Energy of Binding    =  -11.10 kcal/mol  [=(1)+(2)+(3)-(4)]
DOCKED: USER    Estimated Inhibition Constant, Ki   =    7.36 nM (nanomolar)  [Temperature = 298.15 K]
DOCKED: USER    
DOCKED: USER    (1) Final Intermolecular Energy     =  -12.89 kcal/mol
DOCKED: USER        vdW + Hbond + desolv Energy     =  -12.89 kcal/mol
DOCKED: USER        Electrostatic Energy            =   +0.00 kcal/mol
DOCKED: USER    (2) Final Total Internal Energy     =   -0.76 kcal/mol
DOCKED: USER    (3) Torsional Free Energy           =   +1.79 kcal/mol
DOCKED: USER    (4) Unbound System's Energy  [=(2)] =   -0.76 kcal/mol
DOCKED: USER    
DOCKED: USER    
DOCKED: USER    NEWDPF move ligand.pdbqt
DOCKED: USER    NEWDPF about -0.011000 0.081000 -0.051000
DOCKED: USER    NEWDPF tran0 25.503902 -14.558169 -3.176169
DOCKED: USER    NEWDPF quaternion0 0.094349 0.498392 0.833861 0.217669
DOCKED: USER    NEWDPF axisangle0 0.096667 0.510636 0.854346 154.855641
DOCKED: USER    NEWDPF quat0 0.096667 0.510636 0.854346 154.855641
DOCKED: USER    NEWDPF dihe0 -65.10 161.21 -105.75 44.46 59.23 169.17 
DOCKED: USER  keepresnum = 1 
DOCKED: USER  
DOCKED: REMARK  Name = 
DOCKED: REMARK  6 active torsions:
DOCKED: REMARK  status: ('A' for Active; 'I' for Inactive)
DOCKED: REMARK    1  A    between atoms: C_2  and  C_5
DOCKED: REMARK    2  A    between atoms: C_5  and  C_6
DOCKED: REMARK    3  A    between atoms: C_6  and  C_7
DOCKED: REMARK    4  A    between atoms: C_7  and  C_8
DOCKED: REMARK    5  A    between atoms: C_8  and  C_9
DOCKED: REMARK    6  A    between atoms: C_9  and  N_10
DOCKED: REMARK                            x       y       z     vdW  Elec       q    Type
DOCKED: REMARK                         _______ _______ _______ _____ _____    ______ ____
DOCKED: USER                              x       y       z     vdW  Elec       q    Type
DOCKED: USER                           _______ _______ _______ _____ _____    ______ ____
DOCKED: ROOT
DOCKED: ATOM      1  N   UNL     1      26.358 -14.747  -2.892 -0.36 -0.00    +0.000 N 
DOCKED: ATOM      2  C   UNL     1      26.653 -15.141  -4.246 -0.52 -0.00    +0.000 C 
DOCKED: ATOM      3  C   UNL     1      27.817 -14.556  -4.950 -0.33 -0.00    +0.000 A 
DOCKED: ATOM      4  C   UNL     1      28.133 -14.955  -6.261 -0.29 +0.00    +0.000 A 
DOCKED: ATOM      5  C   UNL     1      29.230 -14.405  -6.925 -0.31 -0.00    +0.000 A 
DOCKED: ATOM      6  C   UNL     1      30.028 -13.450  -6.295 -0.14 -0.00    +0.000 A 
DOCKED: ATOM      7  C   UNL     1      29.732 -13.034  -4.989 -0.07 -0.00    +0.000 A 
DOCKED: ATOM      8  C   UNL     1      30.533 -12.072  -4.357 -0.02 -0.00    +0.000 A 
DOCKED: ATOM      9  C   UNL     1      30.239 -11.657  -3.059 -0.01 -0.00    +0.000 A 
DOCKED: ATOM     10  C   UNL     1      29.146 -12.195  -2.378 -0.04 -0.00    +0.000 A 
DOCKED: ATOM     11  C   UNL     1      28.329 -13.163  -2.989 -0.10 -0.00    +0.000 A 
DOCKED: ATOM     12  C   UNL     1      28.620 -13.589  -4.304 -0.13 -0.00    +0.000 A 
DOCKED: ATOM     13  O   UNL     1      25.917 -15.981  -4.835 -0.95 -0.00    +0.000 OA
DOCKED: ATOM     14  C   UNL     1      27.169 -13.734  -2.267 -0.22 -0.00    +0.000 C 
DOCKED: ATOM     15  O   UNL     1      26.891 -13.330  -1.104 -0.23 -0.00    +0.000 OA
DOCKED: ENDROOT
DOCKED: BRANCH   1  16
DOCKED: ATOM     16  C   UNL     1      25.183 -15.293  -2.197 -0.36 -0.00    +0.000 C 
DOCKED: BRANCH  16  17
DOCKED: ATOM     17  C   UNL     1      25.500 -16.680  -1.632 -0.59 -0.00    +0.000 C 
DOCKED: BRANCH  17  18
DOCKED: ATOM     18  C   UNL     1      24.554 -17.740  -2.207 -0.44 -0.00    +0.000 C 
DOCKED: BRANCH  18  19
DOCKED: ATOM     19  C   UNL     1      24.040 -18.676  -1.103 -0.76 -0.00    +0.000 C 
DOCKED: BRANCH  19  20
DOCKED: ATOM     20  C   UNL     1      22.933 -18.030  -0.260 -0.79 -0.00    +0.000 C 
DOCKED: BRANCH  20  22
DOCKED: ATOM     21  O   UNL     1      20.648 -17.494  -0.712 -2.09 +0.00    +0.000 OA
DOCKED: ATOM     22  C   UNL     1      21.566 -18.353  -0.791 -0.82 -0.00    +0.000 C 
DOCKED: ATOM     23  N   UNL     1      21.312 -19.612  -1.417 -0.68 -0.00    +0.000 N 
DOCKED: ATOM     24  O   UNL     1      20.085 -19.897  -1.911 -2.29 -0.00    +0.000 OA
DOCKED: ATOM     25  H   UNL     1      22.034 -20.278  -1.488 -0.33 -0.00    +0.000 HD
DOCKED: ENDBRANCH  20  22
DOCKED: ENDBRANCH  19  20
DOCKED: ENDBRANCH  18  19
DOCKED: ENDBRANCH  17  18
DOCKED: ENDBRANCH  16  17
DOCKED: ENDBRANCH   1  16
DOCKED: TORSDOF 6
DOCKED: TER
DOCKED: ENDMDL
________________________________________________________________________________


	BEGINNING GENETIC ALGORITHM DOCKING 86 of 100
Run: 86 Seed: 1733855613 2090094345 [ Run 86 of 100 GA/GALS ]
Beginning LAMARCKIAN GENETIC ALGORITHM (LGA), with a maximum of 2500000 energy evaluations.

Final-Value: -14.527


	FINAL GENETIC ALGORITHM DOCKED STATE
	_______________________________________________


Detailed state:  trans 26.098 -16.299 -1.493 quatxyzw -0.063110 -0.961231 -0.001481 -0.268420 center -0.011 0.081 -0.051 ntor 6 -62.6095 -175.3167 172.3959 -29.9634 -155.3767 -1.5753
State:	 26.098 -16.299  -1.493  -0.066 -0.998 -0.002 -148.859    -62.61 -175.32  172.40  -29.96 -155.38   -1.58

DOCKED: MODEL       86
DOCKED: USER    Run = 86
DOCKED: USER    DPF = ligand_dock.biased.dpf
DOCKED: USER  
DOCKED: USER    Estimated Free Energy of Binding    =  -11.82 kcal/mol  [=(1)+(2)+(3)-(4)]
DOCKED: USER    Estimated Inhibition Constant, Ki   =    2.15 nM (nanomolar)  [Temperature = 298.15 K]
DOCKED: USER    
DOCKED: USER    (1) Final Intermolecular Energy     =  -13.61 kcal/mol
DOCKED: USER        vdW + Hbond + desolv Energy     =  -13.61 kcal/mol
DOCKED: USER        Electrostatic Energy            =   +0.00 kcal/mol
DOCKED: USER    (2) Final Total Internal Energy     =   -0.91 kcal/mol
DOCKED: USER    (3) Torsional Free Energy           =   +1.79 kcal/mol
DOCKED: USER    (4) Unbound System's Energy  [=(2)] =   -0.91 kcal/mol
DOCKED: USER    
DOCKED: USER    
DOCKED: USER    NEWDPF move ligand.pdbqt
DOCKED: USER    NEWDPF about -0.011000 0.081000 -0.051000
DOCKED: USER    NEWDPF tran0 26.098077 -16.298896 -1.493219
DOCKED: USER    NEWDPF quaternion0 -0.063110 -0.961231 -0.001481 -0.268420
DOCKED: USER    NEWDPF axisangle0 -0.065515 -0.997850 -0.001537 -148.859422
DOCKED: USER    NEWDPF quat0 -0.065515 -0.997850 -0.001537 -148.859422
DOCKED: USER    NEWDPF dihe0 -62.61 -175.32 172.40 -29.96 -155.38 -1.58 
DOCKED: USER  keepresnum = 1 
DOCKED: USER  
DOCKED: REMARK  Name = 
DOCKED: REMARK  6 active torsions:
DOCKED: REMARK  status: ('A' for Active; 'I' for Inactive)
DOCKED: REMARK    1  A    between atoms: C_2  and  C_5
DOCKED: REMARK    2  A    between atoms: C_5  and  C_6
DOCKED: REMARK    3  A    between atoms: C_6  and  C_7
DOCKED: REMARK    4  A    between atoms: C_7  and  C_8
DOCKED: REMARK    5  A    between atoms: C_8  and  C_9
DOCKED: REMARK    6  A    between atoms: C_9  and  N_10
DOCKED: REMARK                            x       y       z     vdW  Elec       q    Type
DOCKED: REMARK                         _______ _______ _______ _____ _____    ______ ____
DOCKED: USER                              x       y       z     vdW  Elec       q    Type
DOCKED: USER                           _______ _______ _______ _____ _____    ______ ____
DOCKED: ROOT
DOCKED: ATOM      1  N   UNL     1      26.732 -15.688  -1.758 -0.33 -0.00    +0.000 N 
DOCKED: ATOM      2  C   UNL     1      27.724 -16.573  -1.205 -0.39 -0.00    +0.000 C 
DOCKED: ATOM      3  C   UNL     1      28.874 -17.005  -2.032 -0.22 -0.00    +0.000 A 
DOCKED: ATOM      4  C   UNL     1      29.865 -17.845  -1.493 -0.17 -0.00    +0.000 A 
DOCKED: ATOM      5  C   UNL     1      30.949 -18.253  -2.272 -0.15 -0.00    +0.000 A 
DOCKED: ATOM      6  C   UNL     1      31.063 -17.832  -3.596 -0.16 -0.00    +0.000 A 
DOCKED: ATOM      7  C   UNL     1      30.086 -16.996  -4.157 -0.23 -0.00    +0.000 A 
DOCKED: ATOM      8  C   UNL     1      30.199 -16.576  -5.490 -0.27 -0.00    +0.000 A 
DOCKED: ATOM      9  C   UNL     1      29.227 -15.746  -6.048 -0.31 -0.00    +0.000 A 
DOCKED: ATOM     10  C   UNL     1      28.136 -15.328  -5.286 -0.36 -0.00    +0.000 A 
DOCKED: ATOM     11  C   UNL     1      28.001 -15.734  -3.947 -0.25 -0.00    +0.000 A 
DOCKED: ATOM     12  C   UNL     1      28.981 -16.574  -3.373 -0.19 -0.00    +0.000 A 
DOCKED: ATOM     13  O   UNL     1      27.613 -16.984  -0.016 -0.45 -0.00    +0.000 OA
DOCKED: ATOM     14  C   UNL     1      26.843 -15.290  -3.138 -0.41 -0.00    +0.000 C 
DOCKED: ATOM     15  O   UNL     1      25.952 -14.564  -3.661 -0.52 -0.00    +0.000 OA
DOCKED: ENDROOT
DOCKED: BRANCH   1  16
DOCKED: ATOM     16  C   UNL     1      25.567 -15.282  -0.958 -0.37 -0.00    +0.000 C 
DOCKED: BRANCH  16  17
DOCKED: ATOM     17  C   UNL     1      24.422 -16.280  -1.148 -0.37 -0.00    +0.000 C 
DOCKED: BRANCH  17  18
DOCKED: ATOM     18  C   UNL     1      24.952 -17.654  -1.573 -0.64 -0.00    +0.000 C 
DOCKED: BRANCH  18  19
DOCKED: ATOM     19  C   UNL     1      24.030 -18.778  -1.076 -0.74 -0.00    +0.000 C 
DOCKED: BRANCH  19  20
DOCKED: ATOM     20  C   UNL     1      22.888 -18.249  -0.198 -0.80 -0.00    +0.000 C 
DOCKED: BRANCH  20  22
DOCKED: ATOM     21  O   UNL     1      20.637 -17.626  -0.707 -2.18 +0.00    +0.000 OA
DOCKED: ATOM     22  C   UNL     1      21.545 -18.491  -0.825 -0.83 -0.00    +0.000 C 
DOCKED: ATOM     23  N   UNL     1      21.304 -19.678  -1.583 -0.61 -0.00    +0.000 N 
DOCKED: ATOM     24  O   UNL     1      20.099 -19.889  -2.163 -2.28 -0.00    +0.000 OA
DOCKED: ATOM     25  H   UNL     1      22.018 -20.348  -1.685 -0.38 -0.00    +0.000 HD
DOCKED: ENDBRANCH  20  22
DOCKED: ENDBRANCH  19  20
DOCKED: ENDBRANCH  18  19
DOCKED: ENDBRANCH  17  18
DOCKED: ENDBRANCH  16  17
DOCKED: ENDBRANCH   1  16
DOCKED: TORSDOF 6
DOCKED: TER
DOCKED: ENDMDL
________________________________________________________________________________


	BEGINNING GENETIC ALGORITHM DOCKING 87 of 100
Run: 87 Seed: 2139263537 1994414761 [ Run 87 of 100 GA/GALS ]
Beginning LAMARCKIAN GENETIC ALGORITHM (LGA), with a maximum of 2500000 energy evaluations.

Final-Value: -14.214


	FINAL GENETIC ALGORITHM DOCKED STATE
	_______________________________________________


Detailed state:  trans 25.735 -15.317 -1.962 quatxyzw -0.281861 -0.032588 -0.954231 0.094530 center -0.011 0.081 -0.051 ntor 6 -166.9185 -123.1567 -131.7721 -55.8957 -52.5800 -163.6410
State:	 25.735 -15.317  -1.962  -0.283 -0.033 -0.959 169.151   -166.92 -123.16 -131.77  -55.90  -52.58 -163.64

DOCKED: MODEL       87
DOCKED: USER    Run = 87
DOCKED: USER    DPF = ligand_dock.biased.dpf
DOCKED: USER  
DOCKED: USER    Estimated Free Energy of Binding    =  -11.75 kcal/mol  [=(1)+(2)+(3)-(4)]
DOCKED: USER    Estimated Inhibition Constant, Ki   =    2.44 nM (nanomolar)  [Temperature = 298.15 K]
DOCKED: USER    
DOCKED: USER    (1) Final Intermolecular Energy     =  -13.54 kcal/mol
DOCKED: USER        vdW + Hbond + desolv Energy     =  -13.54 kcal/mol
DOCKED: USER        Electrostatic Energy            =   +0.00 kcal/mol
DOCKED: USER    (2) Final Total Internal Energy     =   -0.68 kcal/mol
DOCKED: USER    (3) Torsional Free Energy           =   +1.79 kcal/mol
DOCKED: USER    (4) Unbound System's Energy  [=(2)] =   -0.68 kcal/mol
DOCKED: USER    
DOCKED: USER    
DOCKED: USER    NEWDPF move ligand.pdbqt
DOCKED: USER    NEWDPF about -0.011000 0.081000 -0.051000
DOCKED: USER    NEWDPF tran0 25.735218 -15.317115 -1.961655
DOCKED: USER    NEWDPF quaternion0 -0.281861 -0.032588 -0.954231 0.094530
DOCKED: USER    NEWDPF axisangle0 -0.283129 -0.032735 -0.958523 169.151430
DOCKED: USER    NEWDPF quat0 -0.283129 -0.032735 -0.958523 169.151430
DOCKED: USER    NEWDPF dihe0 -166.92 -123.16 -131.77 -55.90 -52.58 -163.64 
DOCKED: USER  keepresnum = 1 
DOCKED: USER  
DOCKED: REMARK  Name = 
DOCKED: REMARK  6 active torsions:
DOCKED: REMARK  status: ('A' for Active; 'I' for Inactive)
DOCKED: REMARK    1  A    between atoms: C_2  and  C_5
DOCKED: REMARK    2  A    between atoms: C_5  and  C_6
DOCKED: REMARK    3  A    between atoms: C_6  and  C_7
DOCKED: REMARK    4  A    between atoms: C_7  and  C_8
DOCKED: REMARK    5  A    between atoms: C_8  and  C_9
DOCKED: REMARK    6  A    between atoms: C_9  and  N_10
DOCKED: REMARK                            x       y       z     vdW  Elec       q    Type
DOCKED: REMARK                         _______ _______ _______ _____ _____    ______ ____
DOCKED: USER                              x       y       z     vdW  Elec       q    Type
DOCKED: USER                           _______ _______ _______ _____ _____    ______ ____
DOCKED: ROOT
DOCKED: ATOM      1  N   UNL     1      26.075 -16.115  -2.267 -0.45 -0.00    +0.000 N 
DOCKED: ATOM      2  C   UNL     1      26.192 -15.498  -3.562 -0.53 -0.00    +0.000 C 
DOCKED: ATOM      3  C   UNL     1      27.485 -15.528  -4.283 -0.33 -0.00    +0.000 A 
DOCKED: ATOM      4  C   UNL     1      27.604 -14.954  -5.562 -0.37 -0.00    +0.000 A 
DOCKED: ATOM      5  C   UNL     1      28.823 -14.983  -6.241 -0.35 -0.00    +0.000 A 
DOCKED: ATOM      6  C   UNL     1      29.940 -15.582  -5.659 -0.26 -0.00    +0.000 A 
DOCKED: ATOM      7  C   UNL     1      29.847 -16.158  -4.385 -0.22 -0.00    +0.000 A 
DOCKED: ATOM      8  C   UNL     1      30.972 -16.757  -3.799 -0.13 -0.00    +0.000 A 
DOCKED: ATOM      9  C   UNL     1      30.881 -17.329  -2.530 -0.14 -0.00    +0.000 A 
DOCKED: ATOM     10  C   UNL     1      29.672 -17.310  -1.834 -0.20 -0.00    +0.000 A 
DOCKED: ATOM     11  C   UNL     1      28.529 -16.718  -2.401 -0.24 -0.00    +0.000 A 
DOCKED: ATOM     12  C   UNL     1      28.612 -16.136  -3.685 -0.20 -0.00    +0.000 A 
DOCKED: ATOM     13  O   UNL     1      25.194 -14.927  -4.083 -0.90 -0.00    +0.000 OA
DOCKED: ATOM     14  C   UNL     1      27.246 -16.698  -1.662 -0.41 -0.00    +0.000 C 
DOCKED: ATOM     15  O   UNL     1      27.181 -17.190  -0.501 -0.51 -0.00    +0.000 OA
DOCKED: ENDROOT
DOCKED: BRANCH   1  16
DOCKED: ATOM     16  C   UNL     1      24.806 -16.058  -1.526 -0.45 -0.00    +0.000 C 
DOCKED: BRANCH  16  17
DOCKED: ATOM     17  C   UNL     1      24.145 -17.439  -1.503 -0.70 -0.00    +0.000 C 
DOCKED: BRANCH  17  18
DOCKED: ATOM     18  C   UNL     1      23.797 -17.860  -0.071 -0.67 -0.00    +0.000 C 
DOCKED: BRANCH  18  19
DOCKED: ATOM     19  C   UNL     1      22.305 -18.201   0.055 -0.78 -0.00    +0.000 C 
DOCKED: BRANCH  19  20
DOCKED: ATOM     20  C   UNL     1      21.842 -19.201  -1.013 -0.80 -0.00    +0.000 C 
DOCKED: BRANCH  20  22
DOCKED: ATOM     21  O   UNL     1      19.510 -19.446  -1.473 -1.96 -0.00    +0.000 OA
DOCKED: ATOM     22  C   UNL     1      20.473 -19.740  -0.716 -0.85 -0.00    +0.000 C 
DOCKED: ATOM     23  N   UNL     1      20.263 -20.611   0.398 -0.68 -0.00    +0.000 N 
DOCKED: ATOM     24  O   UNL     1      19.033 -21.110   0.655 -0.81 -0.00    +0.000 OA
DOCKED: ATOM     25  H   UNL     1      21.019 -20.849   0.982 -0.59 -0.00    +0.000 HD
DOCKED: ENDBRANCH  20  22
DOCKED: ENDBRANCH  19  20
DOCKED: ENDBRANCH  18  19
DOCKED: ENDBRANCH  17  18
DOCKED: ENDBRANCH  16  17
DOCKED: ENDBRANCH   1  16
DOCKED: TORSDOF 6
DOCKED: TER
DOCKED: ENDMDL
________________________________________________________________________________


	BEGINNING GENETIC ALGORITHM DOCKING 88 of 100
Run: 88 Seed: 1613202117 598896657 [ Run 88 of 100 GA/GALS ]
Beginning LAMARCKIAN GENETIC ALGORITHM (LGA), with a maximum of 2500000 energy evaluations.

Final-Value: -14.737


	FINAL GENETIC ALGORITHM DOCKED STATE
	_______________________________________________


Detailed state:  trans 26.501 -14.708 -1.409 quatxyzw -0.414718 -0.012812 -0.891406 0.182320 center -0.011 0.081 -0.051 ntor 6 -41.3113 -175.3742 -178.4291 -9.7879 -178.8018 -173.2951
State:	 26.501 -14.708  -1.409  -0.422 -0.013 -0.907 158.990    -41.31 -175.37 -178.43   -9.79 -178.80 -173.30

DOCKED: MODEL       88
DOCKED: USER    Run = 88
DOCKED: USER    DPF = ligand_dock.biased.dpf
DOCKED: USER  
DOCKED: USER    Estimated Free Energy of Binding    =  -12.00 kcal/mol  [=(1)+(2)+(3)-(4)]
DOCKED: USER    Estimated Inhibition Constant, Ki   =    1.59 nM (nanomolar)  [Temperature = 298.15 K]
DOCKED: USER    
DOCKED: USER    (1) Final Intermolecular Energy     =  -13.79 kcal/mol
DOCKED: USER        vdW + Hbond + desolv Energy     =  -13.79 kcal/mol
DOCKED: USER        Electrostatic Energy            =   +0.00 kcal/mol
DOCKED: USER    (2) Final Total Internal Energy     =   -0.94 kcal/mol
DOCKED: USER    (3) Torsional Free Energy           =   +1.79 kcal/mol
DOCKED: USER    (4) Unbound System's Energy  [=(2)] =   -0.94 kcal/mol
DOCKED: USER    
DOCKED: USER    
DOCKED: USER    NEWDPF move ligand.pdbqt
DOCKED: USER    NEWDPF about -0.011000 0.081000 -0.051000
DOCKED: USER    NEWDPF tran0 26.500663 -14.707939 -1.409312
DOCKED: USER    NEWDPF quaternion0 -0.414718 -0.012812 -0.891406 0.182320
DOCKED: USER    NEWDPF axisangle0 -0.421788 -0.013031 -0.906601 158.990123
DOCKED: USER    NEWDPF quat0 -0.421788 -0.013031 -0.906601 158.990123
DOCKED: USER    NEWDPF dihe0 -41.31 -175.37 -178.43 -9.79 -178.80 -173.30 
DOCKED: USER  keepresnum = 1 
DOCKED: USER  
DOCKED: REMARK  Name = 
DOCKED: REMARK  6 active torsions:
DOCKED: REMARK  status: ('A' for Active; 'I' for Inactive)
DOCKED: REMARK    1  A    between atoms: C_2  and  C_5
DOCKED: REMARK    2  A    between atoms: C_5  and  C_6
DOCKED: REMARK    3  A    between atoms: C_6  and  C_7
DOCKED: REMARK    4  A    between atoms: C_7  and  C_8
DOCKED: REMARK    5  A    between atoms: C_8  and  C_9
DOCKED: REMARK    6  A    between atoms: C_9  and  N_10
DOCKED: REMARK                            x       y       z     vdW  Elec       q    Type
DOCKED: REMARK                         _______ _______ _______ _____ _____    ______ ____
DOCKED: USER                              x       y       z     vdW  Elec       q    Type
DOCKED: USER                           _______ _______ _______ _____ _____    ______ ____
DOCKED: ROOT
DOCKED: ATOM      1  N   UNL     1      26.579 -15.545  -1.782 -0.34 -0.00    +0.000 N 
DOCKED: ATOM      2  C   UNL     1      26.456 -14.915  -3.070 -0.43 -0.00    +0.000 C 
DOCKED: ATOM      3  C   UNL     1      27.469 -15.170  -4.119 -0.35 -0.00    +0.000 A 
DOCKED: ATOM      4  C   UNL     1      27.343 -14.584  -5.392 -0.34 -0.00    +0.000 A 
DOCKED: ATOM      5  C   UNL     1      28.298 -14.824  -6.381 -0.30 -0.00    +0.000 A 
DOCKED: ATOM      6  C   UNL     1      29.390 -15.650  -6.119 -0.32 -0.00    +0.000 A 
DOCKED: ATOM      7  C   UNL     1      29.540 -16.244  -4.858 -0.27 -0.00    +0.000 A 
DOCKED: ATOM      8  C   UNL     1      30.640 -17.072  -4.594 -0.21 -0.00    +0.000 A 
DOCKED: ATOM      9  C   UNL     1      30.790 -17.662  -3.339 -0.17 -0.00    +0.000 A 
DOCKED: ATOM     10  C   UNL     1      29.846 -17.434  -2.337 -0.15 -0.00    +0.000 A 
DOCKED: ATOM     11  C   UNL     1      28.733 -16.609  -2.577 -0.23 -0.00    +0.000 A 
DOCKED: ATOM     12  C   UNL     1      28.574 -16.008  -3.845 -0.23 -0.00    +0.000 A 
DOCKED: ATOM     13  O   UNL     1      25.486 -14.141  -3.306 -0.54 -0.00    +0.000 OA
DOCKED: ATOM     14  C   UNL     1      27.732 -16.367  -1.513 -0.36 -0.00    +0.000 C 
DOCKED: ATOM     15  O   UNL     1      27.892 -16.880  -0.371 -0.41 -0.00    +0.000 OA
DOCKED: ENDROOT
DOCKED: BRANCH   1  16
DOCKED: ATOM     16  C   UNL     1      25.599 -15.269  -0.721 -0.34 -0.00    +0.000 C 
DOCKED: BRANCH  16  17
DOCKED: ATOM     17  C   UNL     1      24.563 -16.394  -0.652 -0.37 -0.00    +0.000 C 
DOCKED: BRANCH  17  18
DOCKED: ATOM     18  C   UNL     1      24.864 -17.486  -1.684 -0.67 -0.00    +0.000 C 
DOCKED: BRANCH  18  19
DOCKED: ATOM     19  C   UNL     1      23.973 -18.716  -1.461 -0.65 -0.00    +0.000 C 
DOCKED: BRANCH  19  20
DOCKED: ATOM     20  C   UNL     1      22.941 -18.494  -0.347 -0.82 -0.00    +0.000 C 
DOCKED: BRANCH  20  22
DOCKED: ATOM     21  O   UNL     1      20.778 -17.549  -0.722 -2.11 +0.00    +0.000 OA
DOCKED: ATOM     22  C   UNL     1      21.535 -18.544  -0.873 -0.83 -0.00    +0.000 C 
DOCKED: ATOM     23  N   UNL     1      21.064 -19.697  -1.572 -0.71 -0.00    +0.000 N 
DOCKED: ATOM     24  O   UNL     1      19.803 -19.736  -2.061 -2.28 -0.00    +0.000 OA
DOCKED: ATOM     25  H   UNL     1      21.661 -20.470  -1.700 -0.37 -0.00    +0.000 HD
DOCKED: ENDBRANCH  20  22
DOCKED: ENDBRANCH  19  20
DOCKED: ENDBRANCH  18  19
DOCKED: ENDBRANCH  17  18
DOCKED: ENDBRANCH  16  17
DOCKED: ENDBRANCH   1  16
DOCKED: TORSDOF 6
DOCKED: TER
DOCKED: ENDMDL
________________________________________________________________________________


	BEGINNING GENETIC ALGORITHM DOCKING 89 of 100
Run: 89 Seed: 1095846456 2111898679 [ Run 89 of 100 GA/GALS ]
Beginning LAMARCKIAN GENETIC ALGORITHM (LGA), with a maximum of 2500000 energy evaluations.

Final-Value: -13.269


	FINAL GENETIC ALGORITHM DOCKED STATE
	_______________________________________________


Detailed state:  trans 26.715 -16.052 -2.090 quatxyzw 0.644032 -0.707091 0.285294 0.062065 center -0.011 0.081 -0.051 ntor 6 153.5594 -50.7668 179.0447 79.5266 40.0177 134.0329
State:	 26.715 -16.052  -2.090   0.645 -0.708  0.286 172.883    153.56  -50.77  179.04   79.53   40.02  134.03

DOCKED: MODEL       89
DOCKED: USER    Run = 89
DOCKED: USER    DPF = ligand_dock.biased.dpf
DOCKED: USER  
DOCKED: USER    Estimated Free Energy of Binding    =  -10.83 kcal/mol  [=(1)+(2)+(3)-(4)]
DOCKED: USER    Estimated Inhibition Constant, Ki   =   11.53 nM (nanomolar)  [Temperature = 298.15 K]
DOCKED: USER    
DOCKED: USER    (1) Final Intermolecular Energy     =  -12.62 kcal/mol
DOCKED: USER        vdW + Hbond + desolv Energy     =  -12.62 kcal/mol
DOCKED: USER        Electrostatic Energy            =   +0.00 kcal/mol
DOCKED: USER    (2) Final Total Internal Energy     =   -0.65 kcal/mol
DOCKED: USER    (3) Torsional Free Energy           =   +1.79 kcal/mol
DOCKED: USER    (4) Unbound System's Energy  [=(2)] =   -0.65 kcal/mol
DOCKED: USER    
DOCKED: USER    
DOCKED: USER    NEWDPF move ligand.pdbqt
DOCKED: USER    NEWDPF about -0.011000 0.081000 -0.051000
DOCKED: USER    NEWDPF tran0 26.715260 -16.051773 -2.090349
DOCKED: USER    NEWDPF quaternion0 0.644032 -0.707091 0.285294 0.062065
DOCKED: USER    NEWDPF axisangle0 0.645276 -0.708457 0.285846 172.883249
DOCKED: USER    NEWDPF quat0 0.645276 -0.708457 0.285846 172.883249
DOCKED: USER    NEWDPF dihe0 153.56 -50.77 179.04 79.53 40.02 134.03 
DOCKED: USER  keepresnum = 1 
DOCKED: USER  
DOCKED: REMARK  Name = 
DOCKED: REMARK  6 active torsions:
DOCKED: REMARK  status: ('A' for Active; 'I' for Inactive)
DOCKED: REMARK    1  A    between atoms: C_2  and  C_5
DOCKED: REMARK    2  A    between atoms: C_5  and  C_6
DOCKED: REMARK    3  A    between atoms: C_6  and  C_7
DOCKED: REMARK    4  A    between atoms: C_7  and  C_8
DOCKED: REMARK    5  A    between atoms: C_8  and  C_9
DOCKED: REMARK    6  A    between atoms: C_9  and  N_10
DOCKED: REMARK                            x       y       z     vdW  Elec       q    Type
DOCKED: REMARK                         _______ _______ _______ _____ _____    ______ ____
DOCKED: USER                              x       y       z     vdW  Elec       q    Type
DOCKED: USER                           _______ _______ _______ _____ _____    ______ ____
DOCKED: ROOT
DOCKED: ATOM      1  N   UNL     1      26.172 -15.453  -2.528 -0.41 -0.00    +0.000 N 
DOCKED: ATOM      2  C   UNL     1      26.494 -14.503  -1.495 -0.32 -0.00    +0.000 C 
DOCKED: ATOM      3  C   UNL     1      27.006 -13.161  -1.857 -0.15 -0.00    +0.000 A 
DOCKED: ATOM      4  C   UNL     1      27.295 -12.214  -0.858 -0.12 -0.00    +0.000 A 
DOCKED: ATOM      5  C   UNL     1      27.777 -10.949  -1.197 -0.09 -0.00    +0.000 A 
DOCKED: ATOM      6  C   UNL     1      27.978 -10.609  -2.535 -0.07 -0.00    +0.000 A 
DOCKED: ATOM      7  C   UNL     1      27.700 -11.536  -3.549 -0.10 -0.00    +0.000 A 
DOCKED: ATOM      8  C   UNL     1      27.906 -11.194  -4.893 -0.10 -0.00    +0.000 A 
DOCKED: ATOM      9  C   UNL     1      27.630 -12.117  -5.902 -0.17 -0.00    +0.000 A 
DOCKED: ATOM     10  C   UNL     1      27.148 -13.386  -5.582 -0.08 -0.00    +0.000 A 
DOCKED: ATOM     11  C   UNL     1      26.931 -13.753  -4.242 -0.30 -0.00    +0.000 A 
DOCKED: ATOM     12  C   UNL     1      27.207 -12.824  -3.214 -0.17 -0.00    +0.000 A 
DOCKED: ATOM     13  O   UNL     1      26.344 -14.813  -0.281 -0.38 -0.00    +0.000 OA
DOCKED: ATOM     14  C   UNL     1      26.419 -15.100  -3.903 -0.52 -0.00    +0.000 C 
DOCKED: ATOM     15  O   UNL     1      26.202 -15.940  -4.821 -0.95 +0.00    +0.000 OA
DOCKED: ENDROOT
DOCKED: BRANCH   1  16
DOCKED: ATOM     16  C   UNL     1      25.699 -16.800  -2.179 -0.54 -0.00    +0.000 C 
DOCKED: BRANCH  16  17
DOCKED: ATOM     17  C   UNL     1      24.615 -16.717  -1.101 -0.63 -0.00    +0.000 C 
DOCKED: BRANCH  17  18
DOCKED: ATOM     18  C   UNL     1      24.777 -17.837  -0.067 -0.62 -0.00    +0.000 C 
DOCKED: BRANCH  18  19
DOCKED: ATOM     19  C   UNL     1      23.799 -18.988  -0.343 -0.54 -0.00    +0.000 C 
DOCKED: BRANCH  19  20
DOCKED: ATOM     20  C   UNL     1      22.957 -18.748  -1.604 -0.65 -0.00    +0.000 C 
DOCKED: BRANCH  20  22
DOCKED: ATOM     21  O   UNL     1      21.009 -17.695  -0.707 -2.12 -0.00    +0.000 OA
DOCKED: ATOM     22  C   UNL     1      21.489 -18.701  -1.293 -0.57 -0.00    +0.000 C 
DOCKED: ATOM     23  N   UNL     1      20.630 -19.772  -1.688 -0.78 -0.00    +0.000 N 
DOCKED: ATOM     24  O   UNL     1      19.304 -19.722  -1.423 -1.80 -0.00    +0.000 OA
DOCKED: ATOM     25  H   UNL     1      21.005 -20.553  -2.156 -0.43 -0.00    +0.000 HD
DOCKED: ENDBRANCH  20  22
DOCKED: ENDBRANCH  19  20
DOCKED: ENDBRANCH  18  19
DOCKED: ENDBRANCH  17  18
DOCKED: ENDBRANCH  16  17
DOCKED: ENDBRANCH   1  16
DOCKED: TORSDOF 6
DOCKED: TER
DOCKED: ENDMDL
________________________________________________________________________________


	BEGINNING GENETIC ALGORITHM DOCKING 90 of 100
Run: 90 Seed: 567049642 895579223 [ Run 90 of 100 GA/GALS ]
Beginning LAMARCKIAN GENETIC ALGORITHM (LGA), with a maximum of 2500000 energy evaluations.

Final-Value: -13.225


	FINAL GENETIC ALGORITHM DOCKED STATE
	_______________________________________________


Detailed state:  trans 27.063 -15.351 -1.798 quatxyzw 0.356969 -0.587046 -0.693717 0.216118 center -0.011 0.081 -0.051 ntor 6 126.8560 -95.5109 -177.9266 -57.2551 -130.5220 143.7768
State:	 27.063 -15.351  -1.798   0.366 -0.601 -0.711 155.038    126.86  -95.51 -177.93  -57.26 -130.52  143.78

DOCKED: MODEL       90
DOCKED: USER    Run = 90
DOCKED: USER    DPF = ligand_dock.biased.dpf
DOCKED: USER  
DOCKED: USER    Estimated Free Energy of Binding    =  -10.61 kcal/mol  [=(1)+(2)+(3)-(4)]
DOCKED: USER    Estimated Inhibition Constant, Ki   =   16.75 nM (nanomolar)  [Temperature = 298.15 K]
DOCKED: USER    
DOCKED: USER    (1) Final Intermolecular Energy     =  -12.40 kcal/mol
DOCKED: USER        vdW + Hbond + desolv Energy     =  -12.40 kcal/mol
DOCKED: USER        Electrostatic Energy            =   +0.00 kcal/mol
DOCKED: USER    (2) Final Total Internal Energy     =   -0.83 kcal/mol
DOCKED: USER    (3) Torsional Free Energy           =   +1.79 kcal/mol
DOCKED: USER    (4) Unbound System's Energy  [=(2)] =   -0.83 kcal/mol
DOCKED: USER    
DOCKED: USER    
DOCKED: USER    NEWDPF move ligand.pdbqt
DOCKED: USER    NEWDPF about -0.011000 0.081000 -0.051000
DOCKED: USER    NEWDPF tran0 27.062850 -15.351052 -1.798240
DOCKED: USER    NEWDPF quaternion0 0.356969 -0.587046 -0.693717 0.216118
DOCKED: USER    NEWDPF axisangle0 0.365609 -0.601256 -0.710508 155.037793
DOCKED: USER    NEWDPF quat0 0.365609 -0.601256 -0.710508 155.037793
DOCKED: USER    NEWDPF dihe0 126.86 -95.51 -177.93 -57.26 -130.52 143.78 
DOCKED: USER  keepresnum = 1 
DOCKED: USER  
DOCKED: REMARK  Name = 
DOCKED: REMARK  6 active torsions:
DOCKED: REMARK  status: ('A' for Active; 'I' for Inactive)
DOCKED: REMARK    1  A    between atoms: C_2  and  C_5
DOCKED: REMARK    2  A    between atoms: C_5  and  C_6
DOCKED: REMARK    3  A    between atoms: C_6  and  C_7
DOCKED: REMARK    4  A    between atoms: C_7  and  C_8
DOCKED: REMARK    5  A    between atoms: C_8  and  C_9
DOCKED: REMARK    6  A    between atoms: C_9  and  N_10
DOCKED: REMARK                            x       y       z     vdW  Elec       q    Type
DOCKED: REMARK                         _______ _______ _______ _____ _____    ______ ____
DOCKED: USER                              x       y       z     vdW  Elec       q    Type
DOCKED: USER                           _______ _______ _______ _____ _____    ______ ____
DOCKED: ROOT
DOCKED: ATOM      1  N   UNL     1      26.976 -15.505  -0.896 -0.31 -0.00    +0.000 N 
DOCKED: ATOM      2  C   UNL     1      28.210 -16.244  -0.968 -0.32 -0.00    +0.000 C 
DOCKED: ATOM      3  C   UNL     1      29.322 -15.918  -0.047 -0.14 -0.00    +0.000 A 
DOCKED: ATOM      4  C   UNL     1      30.522 -16.652  -0.087 -0.13 -0.00    +0.000 A 
DOCKED: ATOM      5  C   UNL     1      31.571 -16.346   0.781 -0.12 -0.00    +0.000 A 
DOCKED: ATOM      6  C   UNL     1      31.442 -15.304   1.700 -0.13 -0.00    +0.000 A 
DOCKED: ATOM      7  C   UNL     1      30.258 -14.556   1.758 -0.11 -0.00    +0.000 A 
DOCKED: ATOM      8  C   UNL     1      30.131 -13.508   2.680 -0.13 -0.00    +0.000 A 
DOCKED: ATOM      9  C   UNL     1      28.954 -12.762   2.737 -0.15 -0.00    +0.000 A 
DOCKED: ATOM     10  C   UNL     1      27.894 -13.053   1.878 -0.22 -0.00    +0.000 A 
DOCKED: ATOM     11  C   UNL     1      27.996 -14.101   0.945 -0.22 -0.00    +0.000 A 
DOCKED: ATOM     12  C   UNL     1      29.184 -14.861   0.881 -0.13 -0.00    +0.000 A 
DOCKED: ATOM     13  O   UNL     1      28.346 -17.168  -1.817 -0.36 -0.00    +0.000 OA
DOCKED: ATOM     14  C   UNL     1      26.871 -14.410   0.034 -0.32 -0.00    +0.000 C 
DOCKED: ATOM     15  O   UNL     1      25.821 -13.709   0.071 -0.40 -0.00    +0.000 OA
DOCKED: ENDROOT
DOCKED: BRANCH   1  16
DOCKED: ATOM     16  C   UNL     1      25.879 -15.796  -1.830 -0.50 -0.00    +0.000 C 
DOCKED: BRANCH  16  17
DOCKED: ATOM     17  C   UNL     1      25.490 -17.275  -1.746 -0.59 -0.00    +0.000 C 
DOCKED: BRANCH  17  18
DOCKED: ATOM     18  C   UNL     1      25.279 -17.708  -0.291 -0.65 -0.00    +0.000 C 
DOCKED: BRANCH  18  19
DOCKED: ATOM     19  C   UNL     1      23.871 -18.286  -0.087 -0.73 -0.00    +0.000 C 
DOCKED: BRANCH  19  20
DOCKED: ATOM     20  C   UNL     1      23.091 -18.400  -1.403 -0.75 -0.00    +0.000 C 
DOCKED: BRANCH  20  22
DOCKED: ATOM     21  O   UNL     1      21.024 -17.861  -0.330 -1.92 +0.00    +0.000 OA
DOCKED: ATOM     22  C   UNL     1      21.621 -18.592  -1.165 -0.69 -0.00    +0.000 C 
DOCKED: ATOM     23  N   UNL     1      20.890 -19.573  -1.904 -0.63 -0.00    +0.000 N 
DOCKED: ATOM     24  O   UNL     1      19.562 -19.734  -1.702 -2.16 -0.00    +0.000 OA
DOCKED: ATOM     25  H   UNL     1      21.356 -20.135  -2.565 -0.59 -0.00    +0.000 HD
DOCKED: ENDBRANCH  20  22
DOCKED: ENDBRANCH  19  20
DOCKED: ENDBRANCH  18  19
DOCKED: ENDBRANCH  17  18
DOCKED: ENDBRANCH  16  17
DOCKED: ENDBRANCH   1  16
DOCKED: TORSDOF 6
DOCKED: TER
DOCKED: ENDMDL
________________________________________________________________________________


	BEGINNING GENETIC ALGORITHM DOCKING 91 of 100
Run: 91 Seed: 141290816 656328422 [ Run 91 of 100 GA/GALS ]
Beginning LAMARCKIAN GENETIC ALGORITHM (LGA), with a maximum of 2500000 energy evaluations.

Final-Value: -13.662


	FINAL GENETIC ALGORITHM DOCKED STATE
	_______________________________________________


Detailed state:  trans 27.145 -16.541 -2.423 quatxyzw 0.097066 -0.752785 -0.340201 -0.555118 center -0.011 0.081 -0.051 ntor 6 159.0611 -115.4526 -141.1596 -16.0659 -27.4111 -23.9281
State:	 27.145 -16.541  -2.423   0.117 -0.905 -0.409 -112.562    159.06 -115.45 -141.16  -16.07  -27.41  -23.93

DOCKED: MODEL       91
DOCKED: USER    Run = 91
DOCKED: USER    DPF = ligand_dock.biased.dpf
DOCKED: USER  
DOCKED: USER    Estimated Free Energy of Binding    =  -11.19 kcal/mol  [=(1)+(2)+(3)-(4)]
DOCKED: USER    Estimated Inhibition Constant, Ki   =    6.30 nM (nanomolar)  [Temperature = 298.15 K]
DOCKED: USER    
DOCKED: USER    (1) Final Intermolecular Energy     =  -12.98 kcal/mol
DOCKED: USER        vdW + Hbond + desolv Energy     =  -12.98 kcal/mol
DOCKED: USER        Electrostatic Energy            =   +0.00 kcal/mol
DOCKED: USER    (2) Final Total Internal Energy     =   -0.69 kcal/mol
DOCKED: USER    (3) Torsional Free Energy           =   +1.79 kcal/mol
DOCKED: USER    (4) Unbound System's Energy  [=(2)] =   -0.69 kcal/mol
DOCKED: USER    
DOCKED: USER    
DOCKED: USER    NEWDPF move ligand.pdbqt
DOCKED: USER    NEWDPF about -0.011000 0.081000 -0.051000
DOCKED: USER    NEWDPF tran0 27.145393 -16.540905 -2.423482
DOCKED: USER    NEWDPF quaternion0 0.097066 -0.752785 -0.340201 -0.555118
DOCKED: USER    NEWDPF axisangle0 0.116698 -0.905038 -0.409007 -112.562306
DOCKED: USER    NEWDPF quat0 0.116698 -0.905038 -0.409007 -112.562306
DOCKED: USER    NEWDPF dihe0 159.06 -115.45 -141.16 -16.07 -27.41 -23.93 
DOCKED: USER  keepresnum = 1 
DOCKED: USER  
DOCKED: REMARK  Name = 
DOCKED: REMARK  6 active torsions:
DOCKED: REMARK  status: ('A' for Active; 'I' for Inactive)
DOCKED: REMARK    1  A    between atoms: C_2  and  C_5
DOCKED: REMARK    2  A    between atoms: C_5  and  C_6
DOCKED: REMARK    3  A    between atoms: C_6  and  C_7
DOCKED: REMARK    4  A    between atoms: C_7  and  C_8
DOCKED: REMARK    5  A    between atoms: C_8  and  C_9
DOCKED: REMARK    6  A    between atoms: C_9  and  N_10
DOCKED: REMARK                            x       y       z     vdW  Elec       q    Type
DOCKED: REMARK                         _______ _______ _______ _____ _____    ______ ____
DOCKED: USER                              x       y       z     vdW  Elec       q    Type
DOCKED: USER                           _______ _______ _______ _____ _____    ______ ____
DOCKED: ROOT
DOCKED: ATOM      1  N   UNL     1      27.595 -15.739  -2.445 -0.27 -0.00    +0.000 N 
DOCKED: ATOM      2  C   UNL     1      28.576 -16.384  -3.280 -0.24 -0.00    +0.000 C 
DOCKED: ATOM      3  C   UNL     1      28.956 -15.779  -4.577 -0.27 -0.00    +0.000 A 
DOCKED: ATOM      4  C   UNL     1      29.934 -16.384  -5.387 -0.28 -0.00    +0.000 A 
DOCKED: ATOM      5  C   UNL     1      30.293 -15.815  -6.610 -0.29 -0.00    +0.000 A 
DOCKED: ATOM      6  C   UNL     1      29.685 -14.637  -7.044 -0.29 -0.00    +0.000 A 
DOCKED: ATOM      7  C   UNL     1      28.706 -14.017  -6.255 -0.30 -0.00    +0.000 A 
DOCKED: ATOM      8  C   UNL     1      28.092 -12.835  -6.694 -0.19 -0.00    +0.000 A 
DOCKED: ATOM      9  C   UNL     1      27.117 -12.218  -5.911 -0.15 -0.00    +0.000 A 
DOCKED: ATOM     10  C   UNL     1      26.744 -12.772  -4.686 -0.26 -0.00    +0.000 A 
DOCKED: ATOM     11  C   UNL     1      27.345 -13.956  -4.223 -0.27 -0.00    +0.000 A 
DOCKED: ATOM     12  C   UNL     1      28.334 -14.587  -5.010 -0.29 -0.00    +0.000 A 
DOCKED: ATOM     13  O   UNL     1      29.109 -17.466  -2.909 -0.19 -0.00    +0.000 OA
DOCKED: ATOM     14  C   UNL     1      26.949 -14.543  -2.922 -0.32 -0.00    +0.000 C 
DOCKED: ATOM     15  O   UNL     1      26.043 -13.995  -2.235 -0.32 -0.00    +0.000 OA
DOCKED: ENDROOT
DOCKED: BRANCH   1  16
DOCKED: ATOM     16  C   UNL     1      27.183 -16.350  -1.173 -0.42 -0.00    +0.000 C 
DOCKED: BRANCH  16  17
DOCKED: ATOM     17  C   UNL     1      25.732 -16.829  -1.263 -0.58 -0.00    +0.000 C 
DOCKED: BRANCH  17  18
DOCKED: ATOM     18  C   UNL     1      25.479 -18.006  -0.313 -0.69 -0.00    +0.000 C 
DOCKED: BRANCH  18  19
DOCKED: ATOM     19  C   UNL     1      23.974 -18.233  -0.106 -0.74 -0.00    +0.000 C 
DOCKED: BRANCH  19  20
DOCKED: ATOM     20  C   UNL     1      23.180 -18.106  -1.413 -0.72 -0.00    +0.000 C 
DOCKED: BRANCH  20  22
DOCKED: ATOM     21  O   UNL     1      20.963 -17.560  -0.707 -2.10 -0.00    +0.000 OA
DOCKED: ATOM     22  C   UNL     1      21.726 -18.424  -1.214 -0.55 -0.00    +0.000 C 
DOCKED: ATOM     23  N   UNL     1      21.198 -19.685  -1.630 -0.63 -0.00    +0.000 N 
DOCKED: ATOM     24  O   UNL     1      19.884 -19.965  -1.467 -2.13 -0.00    +0.000 OA
DOCKED: ATOM     25  H   UNL     1      21.793 -20.355  -2.037 -0.49 -0.00    +0.000 HD
DOCKED: ENDBRANCH  20  22
DOCKED: ENDBRANCH  19  20
DOCKED: ENDBRANCH  18  19
DOCKED: ENDBRANCH  17  18
DOCKED: ENDBRANCH  16  17
DOCKED: ENDBRANCH   1  16
DOCKED: TORSDOF 6
DOCKED: TER
DOCKED: ENDMDL
________________________________________________________________________________


	BEGINNING GENETIC ALGORITHM DOCKING 92 of 100
Run: 92 Seed: 128725195 243872510 [ Run 92 of 100 GA/GALS ]
Beginning LAMARCKIAN GENETIC ALGORITHM (LGA), with a maximum of 2500000 energy evaluations.

Final-Value: -13.293


	FINAL GENETIC ALGORITHM DOCKED STATE
	_______________________________________________


Detailed state:  trans 26.188 -15.405 -1.899 quatxyzw -0.289092 -0.186481 -0.926746 -0.150970 center -0.011 0.081 -0.051 ntor 6 -155.7818 -78.9938 107.4988 -99.7344 -5.8242 -146.6267
State:	 26.188 -15.405  -1.899  -0.292 -0.189 -0.937 -162.634   -155.78  -78.99  107.50  -99.73   -5.82 -146.63

DOCKED: MODEL       92
DOCKED: USER    Run = 92
DOCKED: USER    DPF = ligand_dock.biased.dpf
DOCKED: USER  
DOCKED: USER    Estimated Free Energy of Binding    =  -10.83 kcal/mol  [=(1)+(2)+(3)-(4)]
DOCKED: USER    Estimated Inhibition Constant, Ki   =   11.45 nM (nanomolar)  [Temperature = 298.15 K]
DOCKED: USER    
DOCKED: USER    (1) Final Intermolecular Energy     =  -12.62 kcal/mol
DOCKED: USER        vdW + Hbond + desolv Energy     =  -12.62 kcal/mol
DOCKED: USER        Electrostatic Energy            =   +0.00 kcal/mol
DOCKED: USER    (2) Final Total Internal Energy     =   -0.67 kcal/mol
DOCKED: USER    (3) Torsional Free Energy           =   +1.79 kcal/mol
DOCKED: USER    (4) Unbound System's Energy  [=(2)] =   -0.67 kcal/mol
DOCKED: USER    
DOCKED: USER    
DOCKED: USER    NEWDPF move ligand.pdbqt
DOCKED: USER    NEWDPF about -0.011000 0.081000 -0.051000
DOCKED: USER    NEWDPF tran0 26.188477 -15.405309 -1.898693
DOCKED: USER    NEWDPF quaternion0 -0.289092 -0.186481 -0.926746 -0.150970
DOCKED: USER    NEWDPF axisangle0 -0.292444 -0.188643 -0.937491 -162.633746
DOCKED: USER    NEWDPF quat0 -0.292444 -0.188643 -0.937491 -162.633746
DOCKED: USER    NEWDPF dihe0 -155.78 -78.99 107.50 -99.73 -5.82 -146.63 
DOCKED: USER  keepresnum = 1 
DOCKED: USER  
DOCKED: REMARK  Name = 
DOCKED: REMARK  6 active torsions:
DOCKED: REMARK  status: ('A' for Active; 'I' for Inactive)
DOCKED: REMARK    1  A    between atoms: C_2  and  C_5
DOCKED: REMARK    2  A    between atoms: C_5  and  C_6
DOCKED: REMARK    3  A    between atoms: C_6  and  C_7
DOCKED: REMARK    4  A    between atoms: C_7  and  C_8
DOCKED: REMARK    5  A    between atoms: C_8  and  C_9
DOCKED: REMARK    6  A    between atoms: C_9  and  N_10
DOCKED: REMARK                            x       y       z     vdW  Elec       q    Type
DOCKED: REMARK                         _______ _______ _______ _____ _____    ______ ____
DOCKED: USER                              x       y       z     vdW  Elec       q    Type
DOCKED: USER                           _______ _______ _______ _____ _____    ______ ____
DOCKED: ROOT
DOCKED: ATOM      1  N   UNL     1      26.892 -15.948  -2.135 -0.34 -0.00    +0.000 N 
DOCKED: ATOM      2  C   UNL     1      26.625 -15.590  -3.504 -0.46 -0.00    +0.000 C 
DOCKED: ATOM      3  C   UNL     1      27.716 -15.064  -4.358 -0.34 -0.00    +0.000 A 
DOCKED: ATOM      4  C   UNL     1      27.475 -14.739  -5.705 -0.26 -0.00    +0.000 A 
DOCKED: ATOM      5  C   UNL     1      28.501 -14.244  -6.510 -0.32 -0.00    +0.000 A 
DOCKED: ATOM      6  C   UNL     1      29.782 -14.065  -5.987 -0.18 -0.00    +0.000 A 
DOCKED: ATOM      7  C   UNL     1      30.047 -14.379  -4.646 -0.10 -0.00    +0.000 A 
DOCKED: ATOM      8  C   UNL     1      31.333 -14.196  -4.120 -0.03 -0.00    +0.000 A 
DOCKED: ATOM      9  C   UNL     1      31.597 -14.507  -2.786 -0.01 -0.00    +0.000 A 
DOCKED: ATOM     10  C   UNL     1      30.584 -15.002  -1.965 -0.05 -0.00    +0.000 A 
DOCKED: ATOM     11  C   UNL     1      29.285 -15.197  -2.470 -0.12 -0.00    +0.000 A 
DOCKED: ATOM     12  C   UNL     1      29.010 -14.885  -3.819 -0.16 -0.00    +0.000 A 
DOCKED: ATOM     13  O   UNL     1      25.462 -15.720  -3.977 -0.71 -0.00    +0.000 OA
DOCKED: ATOM     14  C   UNL     1      28.210 -15.724  -1.598 -0.26 -0.00    +0.000 C 
DOCKED: ATOM     15  O   UNL     1      28.450 -15.973  -0.384 -0.28 -0.00    +0.000 OA
DOCKED: ENDROOT
DOCKED: BRANCH   1  16
DOCKED: ATOM     16  C   UNL     1      25.809 -16.435  -1.269 -0.54 -0.00    +0.000 C 
DOCKED: BRANCH  16  17
DOCKED: ATOM     17  C   UNL     1      26.191 -17.783  -0.651 -0.62 -0.00    +0.000 C 
DOCKED: BRANCH  17  18
DOCKED: ATOM     18  C   UNL     1      25.142 -18.241   0.367 -0.47 -0.00    +0.000 C 
DOCKED: BRANCH  18  19
DOCKED: ATOM     19  C   UNL     1      23.935 -18.881  -0.334 -0.55 -0.00    +0.000 C 
DOCKED: BRANCH  19  20
DOCKED: ATOM     20  C   UNL     1      23.104 -17.855  -1.117 -0.76 -0.00    +0.000 C 
DOCKED: BRANCH  20  22
DOCKED: ATOM     21  O   UNL     1      20.799 -17.379  -0.706 -1.94 +0.00    +0.000 OA
DOCKED: ATOM     22  C   UNL     1      21.646 -18.210  -1.128 -0.58 -0.00    +0.000 C 
DOCKED: ATOM     23  N   UNL     1      21.212 -19.469  -1.647 -0.69 -0.00    +0.000 N 
DOCKED: ATOM     24  O   UNL     1      19.896 -19.783  -1.673 -2.31 -0.00    +0.000 OA
DOCKED: ATOM     25  H   UNL     1      21.874 -20.114  -1.987 -0.52 -0.00    +0.000 HD
DOCKED: ENDBRANCH  20  22
DOCKED: ENDBRANCH  19  20
DOCKED: ENDBRANCH  18  19
DOCKED: ENDBRANCH  17  18
DOCKED: ENDBRANCH  16  17
DOCKED: ENDBRANCH   1  16
DOCKED: TORSDOF 6
DOCKED: TER
DOCKED: ENDMDL
________________________________________________________________________________


	BEGINNING GENETIC ALGORITHM DOCKING 93 of 100
Run: 93 Seed: 444577277 514117520 [ Run 93 of 100 GA/GALS ]
Beginning LAMARCKIAN GENETIC ALGORITHM (LGA), with a maximum of 2500000 energy evaluations.

Final-Value: -13.676


	FINAL GENETIC ALGORITHM DOCKED STATE
	_______________________________________________


Detailed state:  trans 26.064 -14.986 -1.648 quatxyzw -0.353485 -0.027831 -0.922971 0.149661 center -0.011 0.081 -0.051 ntor 6 -168.3572 -50.1617 -68.1948 22.7944 125.8104 -136.2517
State:	 26.064 -14.986  -1.648  -0.358 -0.028 -0.933 162.785   -168.36  -50.16  -68.19   22.79  125.81 -136.25

DOCKED: MODEL       93
DOCKED: USER    Run = 93
DOCKED: USER    DPF = ligand_dock.biased.dpf
DOCKED: USER  
DOCKED: USER    Estimated Free Energy of Binding    =  -11.13 kcal/mol  [=(1)+(2)+(3)-(4)]
DOCKED: USER    Estimated Inhibition Constant, Ki   =    6.92 nM (nanomolar)  [Temperature = 298.15 K]
DOCKED: USER    
DOCKED: USER    (1) Final Intermolecular Energy     =  -12.92 kcal/mol
DOCKED: USER        vdW + Hbond + desolv Energy     =  -12.92 kcal/mol
DOCKED: USER        Electrostatic Energy            =   +0.00 kcal/mol
DOCKED: USER    (2) Final Total Internal Energy     =   -0.75 kcal/mol
DOCKED: USER    (3) Torsional Free Energy           =   +1.79 kcal/mol
DOCKED: USER    (4) Unbound System's Energy  [=(2)] =   -0.75 kcal/mol
DOCKED: USER    
DOCKED: USER    
DOCKED: USER    NEWDPF move ligand.pdbqt
DOCKED: USER    NEWDPF about -0.011000 0.081000 -0.051000
DOCKED: USER    NEWDPF tran0 26.064263 -14.985784 -1.648363
DOCKED: USER    NEWDPF quaternion0 -0.353485 -0.027831 -0.922971 0.149661
DOCKED: USER    NEWDPF axisangle0 -0.357511 -0.028148 -0.933485 162.785491
DOCKED: USER    NEWDPF quat0 -0.357511 -0.028148 -0.933485 162.785491
DOCKED: USER    NEWDPF dihe0 -168.36 -50.16 -68.19 22.79 125.81 -136.25 
DOCKED: USER  keepresnum = 1 
DOCKED: USER  
DOCKED: REMARK  Name = 
DOCKED: REMARK  6 active torsions:
DOCKED: REMARK  status: ('A' for Active; 'I' for Inactive)
DOCKED: REMARK    1  A    between atoms: C_2  and  C_5
DOCKED: REMARK    2  A    between atoms: C_5  and  C_6
DOCKED: REMARK    3  A    between atoms: C_6  and  C_7
DOCKED: REMARK    4  A    between atoms: C_7  and  C_8
DOCKED: REMARK    5  A    between atoms: C_8  and  C_9
DOCKED: REMARK    6  A    between atoms: C_9  and  N_10
DOCKED: REMARK                            x       y       z     vdW  Elec       q    Type
DOCKED: REMARK                         _______ _______ _______ _____ _____    ______ ____
DOCKED: USER                              x       y       z     vdW  Elec       q    Type
DOCKED: USER                           _______ _______ _______ _____ _____    ______ ____
DOCKED: ROOT
DOCKED: ATOM      1  N   UNL     1      26.259 -15.819  -1.985 -0.40 -0.00    +0.000 N 
DOCKED: ATOM      2  C   UNL     1      26.252 -15.222  -3.295 -0.50 -0.00    +0.000 C 
DOCKED: ATOM      3  C   UNL     1      27.410 -15.407  -4.199 -0.35 -0.00    +0.000 A 
DOCKED: ATOM      4  C   UNL     1      27.403 -14.853  -5.492 -0.37 -0.00    +0.000 A 
DOCKED: ATOM      5  C   UNL     1      28.493 -15.027  -6.345 -0.32 -0.00    +0.000 A 
DOCKED: ATOM      6  C   UNL     1      29.607 -15.753  -5.923 -0.31 -0.00    +0.000 A 
DOCKED: ATOM      7  C   UNL     1      29.640 -16.313  -4.639 -0.26 -0.00    +0.000 A 
DOCKED: ATOM      8  C   UNL     1      30.762 -17.040  -4.215 -0.18 -0.00    +0.000 A 
DOCKED: ATOM      9  C   UNL     1      30.795 -17.595  -2.935 -0.16 -0.00    +0.000 A 
DOCKED: ATOM     10  C   UNL     1      29.715 -17.432  -2.068 -0.16 -0.00    +0.000 A 
DOCKED: ATOM     11  C   UNL     1      28.577 -16.709  -2.471 -0.24 -0.00    +0.000 A 
DOCKED: ATOM     12  C   UNL     1      28.535 -16.143  -3.764 -0.19 -0.00    +0.000 A 
DOCKED: ATOM     13  O   UNL     1      25.261 -14.537  -3.673 -0.80 -0.00    +0.000 OA
DOCKED: ATOM     14  C   UNL     1      27.431 -16.536  -1.550 -0.39 -0.00    +0.000 C 
DOCKED: ATOM     15  O   UNL     1      27.483 -17.015  -0.383 -0.47 -0.00    +0.000 OA
DOCKED: ENDROOT
DOCKED: BRANCH   1  16
DOCKED: ATOM     16  C   UNL     1      25.130 -15.611  -1.066 -0.33 -0.00    +0.000 C 
DOCKED: BRANCH  16  17
DOCKED: ATOM     17  C   UNL     1      24.750 -16.930  -0.388 -0.41 -0.00    +0.000 C 
DOCKED: BRANCH  17  18
DOCKED: ATOM     18  C   UNL     1      24.475 -18.024  -1.425 -0.70 -0.00    +0.000 C 
DOCKED: BRANCH  18  19
DOCKED: ATOM     19  C   UNL     1      23.575 -19.123  -0.842 -0.73 -0.00    +0.000 C 
DOCKED: BRANCH  19  20
DOCKED: ATOM     20  C   UNL     1      22.212 -19.193  -1.542 -0.55 -0.00    +0.000 C 
DOCKED: BRANCH  20  22
DOCKED: ATOM     21  O   UNL     1      20.409 -17.865  -0.707 -2.27 +0.00    +0.000 OA
DOCKED: ATOM     22  C   UNL     1      21.082 -18.923  -0.591 -0.87 -0.00    +0.000 C 
DOCKED: ATOM     23  N   UNL     1      20.743 -19.875   0.420 -0.65 -0.00    +0.000 N 
DOCKED: ATOM     24  O   UNL     1      19.714 -19.640   1.266 -0.75 -0.00    +0.000 OA
DOCKED: ATOM     25  H   UNL     1      21.263 -20.708   0.502 -0.57 -0.00    +0.000 HD
DOCKED: ENDBRANCH  20  22
DOCKED: ENDBRANCH  19  20
DOCKED: ENDBRANCH  18  19
DOCKED: ENDBRANCH  17  18
DOCKED: ENDBRANCH  16  17
DOCKED: ENDBRANCH   1  16
DOCKED: TORSDOF 6
DOCKED: TER
DOCKED: ENDMDL
________________________________________________________________________________


	BEGINNING GENETIC ALGORITHM DOCKING 94 of 100
Run: 94 Seed: 2081722960 1314628749 [ Run 94 of 100 GA/GALS ]
Beginning LAMARCKIAN GENETIC ALGORITHM (LGA), with a maximum of 2500000 energy evaluations.

Final-Value: -13.533


	FINAL GENETIC ALGORITHM DOCKED STATE
	_______________________________________________


Detailed state:  trans 25.542 -14.607 -3.419 quatxyzw -0.044941 -0.521697 -0.798905 -0.295909 center -0.011 0.081 -0.051 ntor 6 46.4588 -105.7554 -4.3418 123.6009 43.1291 -164.9379
State:	 25.542 -14.607  -3.419  -0.047 -0.546 -0.836 -145.576     46.46 -105.76   -4.34  123.60   43.13 -164.94

DOCKED: MODEL       94
DOCKED: USER    Run = 94
DOCKED: USER    DPF = ligand_dock.biased.dpf
DOCKED: USER  
DOCKED: USER    Estimated Free Energy of Binding    =  -11.07 kcal/mol  [=(1)+(2)+(3)-(4)]
DOCKED: USER    Estimated Inhibition Constant, Ki   =    7.71 nM (nanomolar)  [Temperature = 298.15 K]
DOCKED: USER    
DOCKED: USER    (1) Final Intermolecular Energy     =  -12.86 kcal/mol
DOCKED: USER        vdW + Hbond + desolv Energy     =  -12.86 kcal/mol
DOCKED: USER        Electrostatic Energy            =   +0.00 kcal/mol
DOCKED: USER    (2) Final Total Internal Energy     =   -0.68 kcal/mol
DOCKED: USER    (3) Torsional Free Energy           =   +1.79 kcal/mol
DOCKED: USER    (4) Unbound System's Energy  [=(2)] =   -0.68 kcal/mol
DOCKED: USER    
DOCKED: USER    
DOCKED: USER    NEWDPF move ligand.pdbqt
DOCKED: USER    NEWDPF about -0.011000 0.081000 -0.051000
DOCKED: USER    NEWDPF tran0 25.541915 -14.607399 -3.419474
DOCKED: USER    NEWDPF quaternion0 -0.044941 -0.521697 -0.798905 -0.295909
DOCKED: USER    NEWDPF axisangle0 -0.047048 -0.546156 -0.836361 -145.575856
DOCKED: USER    NEWDPF quat0 -0.047048 -0.546156 -0.836361 -145.575856
DOCKED: USER    NEWDPF dihe0 46.46 -105.76 -4.34 123.60 43.13 -164.94 
DOCKED: USER  keepresnum = 1 
DOCKED: USER  
DOCKED: REMARK  Name = 
DOCKED: REMARK  6 active torsions:
DOCKED: REMARK  status: ('A' for Active; 'I' for Inactive)
DOCKED: REMARK    1  A    between atoms: C_2  and  C_5
DOCKED: REMARK    2  A    between atoms: C_5  and  C_6
DOCKED: REMARK    3  A    between atoms: C_6  and  C_7
DOCKED: REMARK    4  A    between atoms: C_7  and  C_8
DOCKED: REMARK    5  A    between atoms: C_8  and  C_9
DOCKED: REMARK    6  A    between atoms: C_9  and  N_10
DOCKED: REMARK                            x       y       z     vdW  Elec       q    Type
DOCKED: REMARK                         _______ _______ _______ _____ _____    ______ ____
DOCKED: USER                              x       y       z     vdW  Elec       q    Type
DOCKED: USER                           _______ _______ _______ _____ _____    ______ ____
DOCKED: ROOT
DOCKED: ATOM      1  N   UNL     1      26.413 -14.613  -3.125 -0.36 -0.00    +0.000 N 
DOCKED: ATOM      2  C   UNL     1      26.796 -14.989  -4.461 -0.50 -0.00    +0.000 C 
DOCKED: ATOM      3  C   UNL     1      27.829 -14.211  -5.182 -0.32 -0.00    +0.000 A 
DOCKED: ATOM      4  C   UNL     1      28.233 -14.586  -6.476 -0.24 -0.00    +0.000 A 
DOCKED: ATOM      5  C   UNL     1      29.207 -13.854  -7.156 -0.29 -0.00    +0.000 A 
DOCKED: ATOM      6  C   UNL     1      29.792 -12.738  -6.559 -0.13 -0.00    +0.000 A 
DOCKED: ATOM      7  C   UNL     1      29.406 -12.342  -5.271 -0.07 -0.00    +0.000 A 
DOCKED: ATOM      8  C   UNL     1      29.992 -11.218  -4.673 -0.02 -0.00    +0.000 A 
DOCKED: ATOM      9  C   UNL     1      29.606 -10.822  -3.393 -0.02 -0.00    +0.000 A 
DOCKED: ATOM     10  C   UNL     1      28.634 -11.541  -2.697 -0.05 -0.00    +0.000 A 
DOCKED: ATOM     11  C   UNL     1      28.032 -12.674  -3.274 -0.11 -0.00    +0.000 A 
DOCKED: ATOM     12  C   UNL     1      28.417 -13.081  -4.570 -0.14 -0.00    +0.000 A 
DOCKED: ATOM     13  O   UNL     1      26.249 -15.980  -5.021 -1.01 +0.00    +0.000 OA
DOCKED: ATOM     14  C   UNL     1      27.000 -13.437  -2.535 -0.23 -0.00    +0.000 C 
DOCKED: ATOM     15  O   UNL     1      26.634 -13.053  -1.389 -0.21 -0.00    +0.000 OA
DOCKED: ENDROOT
DOCKED: BRANCH   1  16
DOCKED: ATOM     16  C   UNL     1      25.362 -15.356  -2.415 -0.47 -0.00    +0.000 C 
DOCKED: BRANCH  16  17
DOCKED: ATOM     17  C   UNL     1      25.977 -16.214  -1.307 -0.51 -0.00    +0.000 C 
DOCKED: BRANCH  17  18
DOCKED: ATOM     18  C   UNL     1      25.348 -17.611  -1.276 -0.64 -0.00    +0.000 C 
DOCKED: BRANCH  18  19
DOCKED: ATOM     19  C   UNL     1      23.823 -17.524  -1.117 -0.74 -0.00    +0.000 C 
DOCKED: BRANCH  19  20
DOCKED: ATOM     20  C   UNL     1      23.157 -18.907  -1.112 -0.81 -0.00    +0.000 C 
DOCKED: BRANCH  20  22
DOCKED: ATOM     21  O   UNL     1      21.107 -17.856  -0.477 -1.94 -0.00    +0.000 OA
DOCKED: ATOM     22  C   UNL     1      21.659 -18.805  -1.094 -0.81 -0.00    +0.000 C 
DOCKED: ATOM     23  N   UNL     1      20.861 -19.756  -1.801 -0.70 -0.00    +0.000 N 
DOCKED: ATOM     24  O   UNL     1      19.512 -19.654  -1.800 -2.04 -0.00    +0.000 OA
DOCKED: ATOM     25  H   UNL     1      21.295 -20.491  -2.293 -0.51 -0.00    +0.000 HD
DOCKED: ENDBRANCH  20  22
DOCKED: ENDBRANCH  19  20
DOCKED: ENDBRANCH  18  19
DOCKED: ENDBRANCH  17  18
DOCKED: ENDBRANCH  16  17
DOCKED: ENDBRANCH   1  16
DOCKED: TORSDOF 6
DOCKED: TER
DOCKED: ENDMDL
________________________________________________________________________________


	BEGINNING GENETIC ALGORITHM DOCKING 95 of 100
Run: 95 Seed: 1534414999 210108990 [ Run 95 of 100 GA/GALS ]
Beginning LAMARCKIAN GENETIC ALGORITHM (LGA), with a maximum of 2500000 energy evaluations.

Final-Value: -14.228


	FINAL GENETIC ALGORITHM DOCKED STATE
	_______________________________________________


Detailed state:  trans 26.538 -14.821 -2.540 quatxyzw -0.348177 0.084898 -0.926133 0.117654 center -0.011 0.081 -0.051 ntor 6 113.8239 -72.2131 -172.3426 -35.5462 -58.8252 -141.9706
State:	 26.538 -14.821  -2.540  -0.351  0.085 -0.933 166.487    113.82  -72.21 -172.34  -35.55  -58.83 -141.97

DOCKED: MODEL       95
DOCKED: USER    Run = 95
DOCKED: USER    DPF = ligand_dock.biased.dpf
DOCKED: USER  
DOCKED: USER    Estimated Free Energy of Binding    =  -11.76 kcal/mol  [=(1)+(2)+(3)-(4)]
DOCKED: USER    Estimated Inhibition Constant, Ki   =    2.39 nM (nanomolar)  [Temperature = 298.15 K]
DOCKED: USER    
DOCKED: USER    (1) Final Intermolecular Energy     =  -13.55 kcal/mol
DOCKED: USER        vdW + Hbond + desolv Energy     =  -13.55 kcal/mol
DOCKED: USER        Electrostatic Energy            =   +0.00 kcal/mol
DOCKED: USER    (2) Final Total Internal Energy     =   -0.68 kcal/mol
DOCKED: USER    (3) Torsional Free Energy           =   +1.79 kcal/mol
DOCKED: USER    (4) Unbound System's Energy  [=(2)] =   -0.68 kcal/mol
DOCKED: USER    
DOCKED: USER    
DOCKED: USER    NEWDPF move ligand.pdbqt
DOCKED: USER    NEWDPF about -0.011000 0.081000 -0.051000
DOCKED: USER    NEWDPF tran0 26.538139 -14.821480 -2.539692
DOCKED: USER    NEWDPF quaternion0 -0.348177 0.084898 -0.926133 0.117654
DOCKED: USER    NEWDPF axisangle0 -0.350612 0.085492 -0.932610 166.486552
DOCKED: USER    NEWDPF quat0 -0.350612 0.085492 -0.932610 166.486552
DOCKED: USER    NEWDPF dihe0 113.82 -72.21 -172.34 -35.55 -58.83 -141.97 
DOCKED: USER  keepresnum = 1 
DOCKED: USER  
DOCKED: REMARK  Name = 
DOCKED: REMARK  6 active torsions:
DOCKED: REMARK  status: ('A' for Active; 'I' for Inactive)
DOCKED: REMARK    1  A    between atoms: C_2  and  C_5
DOCKED: REMARK    2  A    between atoms: C_5  and  C_6
DOCKED: REMARK    3  A    between atoms: C_6  and  C_7
DOCKED: REMARK    4  A    between atoms: C_7  and  C_8
DOCKED: REMARK    5  A    between atoms: C_8  and  C_9
DOCKED: REMARK    6  A    between atoms: C_9  and  N_10
DOCKED: REMARK                            x       y       z     vdW  Elec       q    Type
DOCKED: REMARK                         _______ _______ _______ _____ _____    ______ ____
DOCKED: USER                              x       y       z     vdW  Elec       q    Type
DOCKED: USER                           _______ _______ _______ _____ _____    ______ ____
DOCKED: ROOT
DOCKED: ATOM      1  N   UNL     1      26.736 -15.561  -3.049 -0.37 -0.00    +0.000 N 
DOCKED: ATOM      2  C   UNL     1      26.798 -14.681  -4.188 -0.45 -0.00    +0.000 C 
DOCKED: ATOM      3  C   UNL     1      27.994 -14.684  -5.061 -0.34 -0.00    +0.000 A 
DOCKED: ATOM      4  C   UNL     1      28.053 -13.851  -6.193 -0.22 -0.00    +0.000 A 
DOCKED: ATOM      5  C   UNL     1      29.180 -13.853  -7.017 -0.29 -0.00    +0.000 A 
DOCKED: ATOM      6  C   UNL     1      30.262 -14.683  -6.726 -0.24 -0.00    +0.000 A 
DOCKED: ATOM      7  C   UNL     1      30.228 -15.521  -5.603 -0.22 -0.00    +0.000 A 
DOCKED: ATOM      8  C   UNL     1      31.319 -16.352  -5.310 -0.13 -0.00    +0.000 A 
DOCKED: ATOM      9  C   UNL     1      31.286 -17.184  -4.191 -0.13 -0.00    +0.000 A 
DOCKED: ATOM     10  C   UNL     1      30.169 -17.196  -3.355 -0.19 -0.00    +0.000 A 
DOCKED: ATOM     11  C   UNL     1      29.062 -16.373  -3.628 -0.22 -0.00    +0.000 A 
DOCKED: ATOM     12  C   UNL     1      29.087 -15.527  -4.759 -0.27 -0.00    +0.000 A 
DOCKED: ATOM     13  O   UNL     1      25.835 -13.905  -4.440 -0.54 -0.00    +0.000 OA
DOCKED: ATOM     14  C   UNL     1      27.876 -16.386  -2.741 -0.25 -0.00    +0.000 C 
DOCKED: ATOM     15  O   UNL     1      27.868 -17.119  -1.713 -0.41 -0.00    +0.000 OA
DOCKED: ENDROOT
DOCKED: BRANCH   1  16
DOCKED: ATOM     16  C   UNL     1      25.570 -15.539  -2.154 -0.51 -0.00    +0.000 C 
DOCKED: BRANCH  16  17
DOCKED: ATOM     17  C   UNL     1      25.052 -16.962  -1.926 -0.63 -0.00    +0.000 C 
DOCKED: BRANCH  17  18
DOCKED: ATOM     18  C   UNL     1      25.074 -17.325  -0.437 -0.60 -0.00    +0.000 C 
DOCKED: BRANCH  18  19
DOCKED: ATOM     19  C   UNL     1      23.881 -18.221  -0.071 -0.73 -0.00    +0.000 C 
DOCKED: BRANCH  19  20
DOCKED: ATOM     20  C   UNL     1      23.137 -18.736  -1.310 -0.79 -0.00    +0.000 C 
DOCKED: BRANCH  20  22
DOCKED: ATOM     21  O   UNL     1      21.114 -17.859  -0.389 -1.89 -0.00    +0.000 OA
DOCKED: ATOM     22  C   UNL     1      21.650 -18.747  -1.104 -0.80 -0.00    +0.000 C 
DOCKED: ATOM     23  N   UNL     1      20.838 -19.736  -1.741 -0.74 -0.00    +0.000 N 
DOCKED: ATOM     24  O   UNL     1      19.496 -19.735  -1.568 -2.09 -0.00    +0.000 OA
DOCKED: ATOM     25  H   UNL     1      21.257 -20.422  -2.309 -0.51 -0.00    +0.000 HD
DOCKED: ENDBRANCH  20  22
DOCKED: ENDBRANCH  19  20
DOCKED: ENDBRANCH  18  19
DOCKED: ENDBRANCH  17  18
DOCKED: ENDBRANCH  16  17
DOCKED: ENDBRANCH   1  16
DOCKED: TORSDOF 6
DOCKED: TER
DOCKED: ENDMDL
________________________________________________________________________________


	BEGINNING GENETIC ALGORITHM DOCKING 96 of 100
Run: 96 Seed: 1703759316 1752542409 [ Run 96 of 100 GA/GALS ]
Beginning LAMARCKIAN GENETIC ALGORITHM (LGA), with a maximum of 2500000 energy evaluations.

Final-Value: -13.518


	FINAL GENETIC ALGORITHM DOCKED STATE
	_______________________________________________


Detailed state:  trans 26.157 -14.674 -3.194 quatxyzw 0.098552 0.315251 0.935261 -0.127243 center -0.011 0.081 -0.051 ntor 6 -9.2950 -145.4941 129.8867 50.3610 131.2427 -138.6927
State:	 26.157 -14.674  -3.194   0.099  0.318  0.943 -165.379     -9.29 -145.49  129.89   50.36  131.24 -138.69

DOCKED: MODEL       96
DOCKED: USER    Run = 96
DOCKED: USER    DPF = ligand_dock.biased.dpf
DOCKED: USER  
DOCKED: USER    Estimated Free Energy of Binding    =  -10.95 kcal/mol  [=(1)+(2)+(3)-(4)]
DOCKED: USER    Estimated Inhibition Constant, Ki   =    9.43 nM (nanomolar)  [Temperature = 298.15 K]
DOCKED: USER    
DOCKED: USER    (1) Final Intermolecular Energy     =  -12.74 kcal/mol
DOCKED: USER        vdW + Hbond + desolv Energy     =  -12.74 kcal/mol
DOCKED: USER        Electrostatic Energy            =   +0.00 kcal/mol
DOCKED: USER    (2) Final Total Internal Energy     =   -0.78 kcal/mol
DOCKED: USER    (3) Torsional Free Energy           =   +1.79 kcal/mol
DOCKED: USER    (4) Unbound System's Energy  [=(2)] =   -0.78 kcal/mol
DOCKED: USER    
DOCKED: USER    
DOCKED: USER    NEWDPF move ligand.pdbqt
DOCKED: USER    NEWDPF about -0.011000 0.081000 -0.051000
DOCKED: USER    NEWDPF tran0 26.156514 -14.674425 -3.194469
DOCKED: USER    NEWDPF quaternion0 0.098552 0.315251 0.935261 -0.127243
DOCKED: USER    NEWDPF axisangle0 0.099359 0.317835 0.942926 -165.379402
DOCKED: USER    NEWDPF quat0 0.099359 0.317835 0.942926 -165.379402
DOCKED: USER    NEWDPF dihe0 -9.29 -145.49 129.89 50.36 131.24 -138.69 
DOCKED: USER  keepresnum = 1 
DOCKED: USER  
DOCKED: REMARK  Name = 
DOCKED: REMARK  6 active torsions:
DOCKED: REMARK  status: ('A' for Active; 'I' for Inactive)
DOCKED: REMARK    1  A    between atoms: C_2  and  C_5
DOCKED: REMARK    2  A    between atoms: C_5  and  C_6
DOCKED: REMARK    3  A    between atoms: C_6  and  C_7
DOCKED: REMARK    4  A    between atoms: C_7  and  C_8
DOCKED: REMARK    5  A    between atoms: C_8  and  C_9
DOCKED: REMARK    6  A    between atoms: C_9  and  N_10
DOCKED: REMARK                            x       y       z     vdW  Elec       q    Type
DOCKED: REMARK                         _______ _______ _______ _____ _____    ______ ____
DOCKED: USER                              x       y       z     vdW  Elec       q    Type
DOCKED: USER                           _______ _______ _______ _____ _____    ______ ____
DOCKED: ROOT
DOCKED: ATOM      1  N   UNL     1      26.584 -15.431  -2.893 -0.37 -0.00    +0.000 N 
DOCKED: ATOM      2  C   UNL     1      27.079 -15.609  -4.233 -0.40 -0.00    +0.000 C 
DOCKED: ATOM      3  C   UNL     1      28.530 -15.788  -4.469 -0.27 -0.00    +0.000 A 
DOCKED: ATOM      4  C   UNL     1      29.022 -15.993  -5.770 -0.26 -0.00    +0.000 A 
DOCKED: ATOM      5  C   UNL     1      30.389 -16.161  -5.994 -0.26 -0.00    +0.000 A 
DOCKED: ATOM      6  C   UNL     1      31.286 -16.128  -4.926 -0.10 -0.00    +0.000 A 
DOCKED: ATOM      7  C   UNL     1      30.820 -15.922  -3.619 -0.09 -0.00    +0.000 A 
DOCKED: ATOM      8  C   UNL     1      31.723 -15.885  -2.547 -0.04 -0.00    +0.000 A 
DOCKED: ATOM      9  C   UNL     1      31.260 -15.679  -1.247 -0.06 -0.00    +0.000 A 
DOCKED: ATOM     10  C   UNL     1      29.897 -15.509  -1.004 -0.12 -0.00    +0.000 A 
DOCKED: ATOM     11  C   UNL     1      28.971 -15.543  -2.063 -0.16 -0.00    +0.000 A 
DOCKED: ATOM     12  C   UNL     1      29.431 -15.751  -3.382 -0.17 -0.00    +0.000 A 
DOCKED: ATOM     13  O   UNL     1      26.277 -15.610  -5.209 -1.21 +0.00    +0.000 OA
DOCKED: ATOM     14  C   UNL     1      27.525 -15.362  -1.804 -0.29 -0.00    +0.000 C 
DOCKED: ATOM     15  O   UNL     1      27.118 -15.145  -0.628 -0.31 -0.00    +0.000 OA
DOCKED: ENDROOT
DOCKED: BRANCH   1  16
DOCKED: ATOM     16  C   UNL     1      25.150 -15.215  -2.651 -0.44 -0.00    +0.000 C 
DOCKED: BRANCH  16  17
DOCKED: ATOM     17  C   UNL     1      24.667 -16.105  -1.503 -0.38 -0.00    +0.000 C 
DOCKED: BRANCH  17  18
DOCKED: ATOM     18  C   UNL     1      25.127 -17.554  -1.696 -0.62 -0.00    +0.000 C 
DOCKED: BRANCH  18  19
DOCKED: ATOM     19  C   UNL     1      23.950 -18.530  -1.551 -0.67 -0.00    +0.000 C 
DOCKED: BRANCH  19  20
DOCKED: ATOM     20  C   UNL     1      23.094 -18.232  -0.313 -0.81 -0.00    +0.000 C 
DOCKED: BRANCH  20  22
DOCKED: ATOM     21  O   UNL     1      20.889 -17.633  -1.012 -2.05 -0.00    +0.000 OA
DOCKED: ATOM     22  C   UNL     1      21.643 -18.531  -0.552 -0.84 -0.00    +0.000 C 
DOCKED: ATOM     23  N   UNL     1      21.121 -19.837  -0.295 -0.69 -0.00    +0.000 N 
DOCKED: ATOM     24  O   UNL     1      19.817 -20.112  -0.527 -1.55 -0.00    +0.000 OA
DOCKED: ATOM     25  H   UNL     1      21.715 -20.541   0.054 -0.56 -0.00    +0.000 HD
DOCKED: ENDBRANCH  20  22
DOCKED: ENDBRANCH  19  20
DOCKED: ENDBRANCH  18  19
DOCKED: ENDBRANCH  17  18
DOCKED: ENDBRANCH  16  17
DOCKED: ENDBRANCH   1  16
DOCKED: TORSDOF 6
DOCKED: TER
DOCKED: ENDMDL
________________________________________________________________________________


	BEGINNING GENETIC ALGORITHM DOCKING 97 of 100
Run: 97 Seed: 2064406069 37323830 [ Run 97 of 100 GA/GALS ]
Beginning LAMARCKIAN GENETIC ALGORITHM (LGA), with a maximum of 2500000 energy evaluations.

Final-Value: -13.456


	FINAL GENETIC ALGORITHM DOCKED STATE
	_______________________________________________


Detailed state:  trans 26.950 -16.882 -3.168 quatxyzw 0.214298 -0.957562 0.083710 -0.173619 center -0.011 0.081 -0.051 ntor 6 14.4178 -170.9463 -43.5178 -175.4944 10.4920 124.6261
State:	 26.950 -16.882  -3.168   0.218 -0.972  0.085 -160.003     14.42 -170.95  -43.52 -175.49   10.49  124.63

DOCKED: MODEL       97
DOCKED: USER    Run = 97
DOCKED: USER    DPF = ligand_dock.biased.dpf
DOCKED: USER  
DOCKED: USER    Estimated Free Energy of Binding    =  -11.29 kcal/mol  [=(1)+(2)+(3)-(4)]
DOCKED: USER    Estimated Inhibition Constant, Ki   =    5.33 nM (nanomolar)  [Temperature = 298.15 K]
DOCKED: USER    
DOCKED: USER    (1) Final Intermolecular Energy     =  -13.08 kcal/mol
DOCKED: USER        vdW + Hbond + desolv Energy     =  -13.08 kcal/mol
DOCKED: USER        Electrostatic Energy            =   +0.00 kcal/mol
DOCKED: USER    (2) Final Total Internal Energy     =   -0.38 kcal/mol
DOCKED: USER    (3) Torsional Free Energy           =   +1.79 kcal/mol
DOCKED: USER    (4) Unbound System's Energy  [=(2)] =   -0.38 kcal/mol
DOCKED: USER    
DOCKED: USER    
DOCKED: USER    NEWDPF move ligand.pdbqt
DOCKED: USER    NEWDPF about -0.011000 0.081000 -0.051000
DOCKED: USER    NEWDPF tran0 26.949991 -16.882420 -3.168475
DOCKED: USER    NEWDPF quaternion0 0.214298 -0.957562 0.083710 -0.173619
DOCKED: USER    NEWDPF axisangle0 0.217602 -0.972329 0.085001 -160.003347
DOCKED: USER    NEWDPF quat0 0.217602 -0.972329 0.085001 -160.003347
DOCKED: USER    NEWDPF dihe0 14.42 -170.95 -43.52 -175.49 10.49 124.63 
DOCKED: USER  keepresnum = 1 
DOCKED: USER  
DOCKED: REMARK  Name = 
DOCKED: REMARK  6 active torsions:
DOCKED: REMARK  status: ('A' for Active; 'I' for Inactive)
DOCKED: REMARK    1  A    between atoms: C_2  and  C_5
DOCKED: REMARK    2  A    between atoms: C_5  and  C_6
DOCKED: REMARK    3  A    between atoms: C_6  and  C_7
DOCKED: REMARK    4  A    between atoms: C_7  and  C_8
DOCKED: REMARK    5  A    between atoms: C_8  and  C_9
DOCKED: REMARK    6  A    between atoms: C_9  and  N_10
DOCKED: REMARK                            x       y       z     vdW  Elec       q    Type
DOCKED: REMARK                         _______ _______ _______ _____ _____    ______ ____
DOCKED: USER                              x       y       z     vdW  Elec       q    Type
DOCKED: USER                           _______ _______ _______ _____ _____    ______ ____
DOCKED: ROOT
DOCKED: ATOM      1  N   UNL     1      27.179 -16.016  -3.377 -0.30 -0.00    +0.000 N 
DOCKED: ATOM      2  C   UNL     1      28.382 -16.217  -2.612 -0.28 -0.00    +0.000 C 
DOCKED: ATOM      3  C   UNL     1      29.701 -15.921  -3.217 -0.16 -0.00    +0.000 A 
DOCKED: ATOM      4  C   UNL     1      30.882 -16.084  -2.470 -0.08 -0.00    +0.000 A 
DOCKED: ATOM      5  C   UNL     1      32.125 -15.805  -3.039 -0.03 -0.00    +0.000 A 
DOCKED: ATOM      6  C   UNL     1      32.212 -15.360  -4.358 -0.03 -0.00    +0.000 A 
DOCKED: ATOM      7  C   UNL     1      31.050 -15.192  -5.124 -0.09 -0.00    +0.000 A 
DOCKED: ATOM      8  C   UNL     1      31.138 -14.748  -6.451 -0.14 -0.00    +0.000 A 
DOCKED: ATOM      9  C   UNL     1      29.982 -14.582  -7.213 -0.26 -0.00    +0.000 A 
DOCKED: ATOM     10  C   UNL     1      28.730 -14.856  -6.663 -0.29 -0.00    +0.000 A 
DOCKED: ATOM     11  C   UNL     1      28.614 -15.300  -5.333 -0.34 -0.00    +0.000 A 
DOCKED: ATOM     12  C   UNL     1      29.780 -15.471  -4.554 -0.18 -0.00    +0.000 A 
DOCKED: ATOM     13  O   UNL     1      28.315 -16.648  -1.428 -0.34 -0.00    +0.000 OA
DOCKED: ATOM     14  C   UNL     1      27.285 -15.591  -4.749 -0.39 -0.00    +0.000 C 
DOCKED: ATOM     15  O   UNL     1      26.247 -15.468  -5.457 -1.14 +0.00    +0.000 OA
DOCKED: ENDROOT
DOCKED: BRANCH   1  16
DOCKED: ATOM     16  C   UNL     1      25.866 -16.343  -2.799 -0.48 -0.00    +0.000 C 
DOCKED: BRANCH  16  17
DOCKED: ATOM     17  C   UNL     1      25.842 -15.989  -1.310 -0.50 -0.00    +0.000 C 
DOCKED: BRANCH  17  18
DOCKED: ATOM     18  C   UNL     1      24.589 -16.551  -0.629 -0.42 -0.00    +0.000 C 
DOCKED: BRANCH  18  19
DOCKED: ATOM     19  C   UNL     1      23.771 -17.410  -1.605 -0.57 -0.00    +0.000 C 
DOCKED: BRANCH  19  20
DOCKED: ATOM     20  C   UNL     1      23.209 -18.673  -0.939 -0.82 -0.00    +0.000 C 
DOCKED: BRANCH  20  22
DOCKED: ATOM     21  O   UNL     1      21.031 -17.862  -0.379 -1.95 +0.00    +0.000 OA
DOCKED: ATOM     22  C   UNL     1      21.710 -18.719  -1.006 -0.83 -0.00    +0.000 C 
DOCKED: ATOM     23  N   UNL     1      21.050 -19.705  -1.804 -0.66 -0.00    +0.000 N 
DOCKED: ATOM     24  O   UNL     1      19.700 -19.735  -1.878 -2.26 -0.00    +0.000 OA
DOCKED: ATOM     25  H   UNL     1      21.582 -20.367  -2.303 -0.55 -0.00    +0.000 HD
DOCKED: ENDBRANCH  20  22
DOCKED: ENDBRANCH  19  20
DOCKED: ENDBRANCH  18  19
DOCKED: ENDBRANCH  17  18
DOCKED: ENDBRANCH  16  17
DOCKED: ENDBRANCH   1  16
DOCKED: TORSDOF 6
DOCKED: TER
DOCKED: ENDMDL
________________________________________________________________________________


	BEGINNING GENETIC ALGORITHM DOCKING 98 of 100
Run: 98 Seed: 69123142 247933166 [ Run 98 of 100 GA/GALS ]
Beginning LAMARCKIAN GENETIC ALGORITHM (LGA), with a maximum of 2500000 energy evaluations.

Final-Value: -13.836


	FINAL GENETIC ALGORITHM DOCKED STATE
	_______________________________________________


Detailed state:  trans 25.504 -14.763 -3.393 quatxyzw 0.038447 0.483214 0.820020 0.304292 center -0.011 0.081 -0.051 ntor 6 -26.5357 -115.5254 16.3725 -119.7077 -17.6615 175.9893
State:	 25.504 -14.763  -3.393   0.040  0.507  0.861 144.569    -26.54 -115.53   16.37 -119.71  -17.66  175.99

DOCKED: MODEL       98
DOCKED: USER    Run = 98
DOCKED: USER    DPF = ligand_dock.biased.dpf
DOCKED: USER  
DOCKED: USER    Estimated Free Energy of Binding    =  -11.37 kcal/mol  [=(1)+(2)+(3)-(4)]
DOCKED: USER    Estimated Inhibition Constant, Ki   =    4.63 nM (nanomolar)  [Temperature = 298.15 K]
DOCKED: USER    
DOCKED: USER    (1) Final Intermolecular Energy     =  -13.16 kcal/mol
DOCKED: USER        vdW + Hbond + desolv Energy     =  -13.16 kcal/mol
DOCKED: USER        Electrostatic Energy            =   +0.00 kcal/mol
DOCKED: USER    (2) Final Total Internal Energy     =   -0.68 kcal/mol
DOCKED: USER    (3) Torsional Free Energy           =   +1.79 kcal/mol
DOCKED: USER    (4) Unbound System's Energy  [=(2)] =   -0.68 kcal/mol
DOCKED: USER    
DOCKED: USER    
DOCKED: USER    NEWDPF move ligand.pdbqt
DOCKED: USER    NEWDPF about -0.011000 0.081000 -0.051000
DOCKED: USER    NEWDPF tran0 25.503763 -14.762954 -3.393227
DOCKED: USER    NEWDPF quaternion0 0.038447 0.483214 0.820020 0.304292
DOCKED: USER    NEWDPF axisangle0 0.040361 0.507269 0.860842 144.568869
DOCKED: USER    NEWDPF quat0 0.040361 0.507269 0.860842 144.568869
DOCKED: USER    NEWDPF dihe0 -26.54 -115.53 16.37 -119.71 -17.66 175.99 
DOCKED: USER  keepresnum = 1 
DOCKED: USER  
DOCKED: REMARK  Name = 
DOCKED: REMARK  6 active torsions:
DOCKED: REMARK  status: ('A' for Active; 'I' for Inactive)
DOCKED: REMARK    1  A    between atoms: C_2  and  C_5
DOCKED: REMARK    2  A    between atoms: C_5  and  C_6
DOCKED: REMARK    3  A    between atoms: C_6  and  C_7
DOCKED: REMARK    4  A    between atoms: C_7  and  C_8
DOCKED: REMARK    5  A    between atoms: C_8  and  C_9
DOCKED: REMARK    6  A    between atoms: C_9  and  N_10
DOCKED: REMARK                            x       y       z     vdW  Elec       q    Type
DOCKED: REMARK                         _______ _______ _______ _____ _____    ______ ____
DOCKED: USER                              x       y       z     vdW  Elec       q    Type
DOCKED: USER                           _______ _______ _______ _____ _____    ______ ____
DOCKED: ROOT
DOCKED: ATOM      1  N   UNL     1      26.381 -14.790  -3.117 -0.37 -0.00    +0.000 N 
DOCKED: ATOM      2  C   UNL     1      26.738 -15.045  -4.488 -0.52 -0.00    +0.000 C 
DOCKED: ATOM      3  C   UNL     1      27.755 -14.201  -5.157 -0.32 -0.00    +0.000 A 
DOCKED: ATOM      4  C   UNL     1      28.135 -14.460  -6.487 -0.21 -0.00    +0.000 A 
DOCKED: ATOM      5  C   UNL     1      29.093 -13.665  -7.118 -0.28 -0.00    +0.000 A 
DOCKED: ATOM      6  C   UNL     1      29.686 -12.603  -6.436 -0.12 -0.00    +0.000 A 
DOCKED: ATOM      7  C   UNL     1      29.323 -12.324  -5.112 -0.07 -0.00    +0.000 A 
DOCKED: ATOM      8  C   UNL     1      29.918 -11.254  -4.428 -0.02 -0.00    +0.000 A 
DOCKED: ATOM      9  C   UNL     1      29.555 -10.974  -3.110 -0.02 -0.00    +0.000 A 
DOCKED: ATOM     10  C   UNL     1      28.599 -11.757  -2.462 -0.05 -0.00    +0.000 A 
DOCKED: ATOM     11  C   UNL     1      27.990 -12.837  -3.125 -0.11 -0.00    +0.000 A 
DOCKED: ATOM     12  C   UNL     1      28.351 -13.127  -4.460 -0.14 -0.00    +0.000 A 
DOCKED: ATOM     13  O   UNL     1      26.184 -15.985  -5.122 -1.05 +0.00    +0.000 OA
DOCKED: ATOM     14  C   UNL     1      26.975 -13.667  -2.437 -0.24 -0.00    +0.000 C 
DOCKED: ATOM     15  O   UNL     1      26.630 -13.388  -1.255 -0.25 -0.00    +0.000 OA
DOCKED: ENDROOT
DOCKED: BRANCH   1  16
DOCKED: ATOM     16  C   UNL     1      25.346 -15.597  -2.455 -0.52 -0.00    +0.000 C 
DOCKED: BRANCH  16  17
DOCKED: ATOM     17  C   UNL     1      25.973 -16.839  -1.815 -0.54 -0.00    +0.000 C 
DOCKED: BRANCH  17  18
DOCKED: ATOM     18  C   UNL     1      25.035 -17.455  -0.771 -0.68 -0.00    +0.000 C 
DOCKED: BRANCH  18  19
DOCKED: ATOM     19  C   UNL     1      23.708 -17.890  -1.411 -0.75 -0.00    +0.000 C 
DOCKED: BRANCH  19  20
DOCKED: ATOM     20  C   UNL     1      22.588 -18.057  -0.376 -0.82 -0.00    +0.000 C 
DOCKED: BRANCH  20  22
DOCKED: ATOM     21  O   UNL     1      20.371 -17.510  -1.081 -2.06 -0.00    +0.000 OA
DOCKED: ATOM     22  C   UNL     1      21.274 -18.386  -1.023 -0.74 -0.00    +0.000 C 
DOCKED: ATOM     23  N   UNL     1      21.056 -19.673  -1.605 -0.71 -0.00    +0.000 N 
DOCKED: ATOM     24  O   UNL     1      19.879 -19.964  -2.204 -2.22 -0.00    +0.000 OA
DOCKED: ATOM     25  H   UNL     1      21.768 -20.354  -1.570 -0.35 -0.00    +0.000 HD
DOCKED: ENDBRANCH  20  22
DOCKED: ENDBRANCH  19  20
DOCKED: ENDBRANCH  18  19
DOCKED: ENDBRANCH  17  18
DOCKED: ENDBRANCH  16  17
DOCKED: ENDBRANCH   1  16
DOCKED: TORSDOF 6
DOCKED: TER
DOCKED: ENDMDL
________________________________________________________________________________


	BEGINNING GENETIC ALGORITHM DOCKING 99 of 100
Run: 99 Seed: 1284534702 879708456 [ Run 99 of 100 GA/GALS ]
Beginning LAMARCKIAN GENETIC ALGORITHM (LGA), with a maximum of 2500000 energy evaluations.

Final-Value: -14.334


	FINAL GENETIC ALGORITHM DOCKED STATE
	_______________________________________________


Detailed state:  trans 25.643 -16.877 -2.394 quatxyzw -0.145409 0.948163 0.143211 0.243584 center -0.011 0.081 -0.051 ntor 6 22.1332 -121.5517 97.3423 -43.4801 -48.0760 21.9029
State:	 25.643 -16.877  -2.394  -0.150  0.978  0.148 151.804     22.13 -121.55   97.34  -43.48  -48.08   21.90

DOCKED: MODEL       99
DOCKED: USER    Run = 99
DOCKED: USER    DPF = ligand_dock.biased.dpf
DOCKED: USER  
DOCKED: USER    Estimated Free Energy of Binding    =  -11.88 kcal/mol  [=(1)+(2)+(3)-(4)]
DOCKED: USER    Estimated Inhibition Constant, Ki   =    1.96 nM (nanomolar)  [Temperature = 298.15 K]
DOCKED: USER    
DOCKED: USER    (1) Final Intermolecular Energy     =  -13.67 kcal/mol
DOCKED: USER        vdW + Hbond + desolv Energy     =  -13.67 kcal/mol
DOCKED: USER        Electrostatic Energy            =   +0.00 kcal/mol
DOCKED: USER    (2) Final Total Internal Energy     =   -0.66 kcal/mol
DOCKED: USER    (3) Torsional Free Energy           =   +1.79 kcal/mol
DOCKED: USER    (4) Unbound System's Energy  [=(2)] =   -0.66 kcal/mol
DOCKED: USER    
DOCKED: USER    
DOCKED: USER    NEWDPF move ligand.pdbqt
DOCKED: USER    NEWDPF about -0.011000 0.081000 -0.051000
DOCKED: USER    NEWDPF tran0 25.643481 -16.877161 -2.393691
DOCKED: USER    NEWDPF quaternion0 -0.145409 0.948163 0.143211 0.243584
DOCKED: USER    NEWDPF axisangle0 -0.149924 0.977609 0.147659 151.803665
DOCKED: USER    NEWDPF quat0 -0.149924 0.977609 0.147659 151.803665
DOCKED: USER    NEWDPF dihe0 22.13 -121.55 97.34 -43.48 -48.08 21.90 
DOCKED: USER  keepresnum = 1 
DOCKED: USER  
DOCKED: REMARK  Name = 
DOCKED: REMARK  6 active torsions:
DOCKED: REMARK  status: ('A' for Active; 'I' for Inactive)
DOCKED: REMARK    1  A    between atoms: C_2  and  C_5
DOCKED: REMARK    2  A    between atoms: C_5  and  C_6
DOCKED: REMARK    3  A    between atoms: C_6  and  C_7
DOCKED: REMARK    4  A    between atoms: C_7  and  C_8
DOCKED: REMARK    5  A    between atoms: C_8  and  C_9
DOCKED: REMARK    6  A    between atoms: C_9  and  N_10
DOCKED: REMARK                            x       y       z     vdW  Elec       q    Type
DOCKED: REMARK                         _______ _______ _______ _____ _____    ______ ____
DOCKED: USER                              x       y       z     vdW  Elec       q    Type
DOCKED: USER                           _______ _______ _______ _____ _____    ______ ____
DOCKED: ROOT
DOCKED: ATOM      1  N   UNL     1      26.044 -16.051  -2.344 -0.45 -0.00    +0.000 N 
DOCKED: ATOM      2  C   UNL     1      27.272 -16.736  -2.032 -0.36 -0.00    +0.000 C 
DOCKED: ATOM      3  C   UNL     1      28.496 -16.455  -2.816 -0.22 -0.00    +0.000 A 
DOCKED: ATOM      4  C   UNL     1      29.709 -17.095  -2.502 -0.19 -0.00    +0.000 A 
DOCKED: ATOM      5  C   UNL     1      30.863 -16.831  -3.240 -0.13 -0.00    +0.000 A 
DOCKED: ATOM      6  C   UNL     1      30.828 -15.926  -4.301 -0.11 -0.00    +0.000 A 
DOCKED: ATOM      7  C   UNL     1      29.631 -15.277  -4.636 -0.19 -0.00    +0.000 A 
DOCKED: ATOM      8  C   UNL     1      29.596 -14.370  -5.705 -0.20 -0.00    +0.000 A 
DOCKED: ATOM      9  C   UNL     1      28.405 -13.726  -6.039 -0.27 -0.00    +0.000 A 
DOCKED: ATOM     10  C   UNL     1      27.241 -13.977  -5.313 -0.25 -0.00    +0.000 A 
DOCKED: ATOM     11  C   UNL     1      27.250 -14.880  -4.235 -0.37 -0.00    +0.000 A 
DOCKED: ATOM     12  C   UNL     1      28.452 -15.538  -3.890 -0.26 -0.00    +0.000 A 
DOCKED: ATOM     13  O   UNL     1      27.305 -17.579  -1.093 -0.52 -0.00    +0.000 OA
DOCKED: ATOM     14  C   UNL     1      26.014 -15.147  -3.465 -0.54 -0.00    +0.000 C 
DOCKED: ATOM     15  O   UNL     1      24.934 -14.583  -3.794 -0.92 -0.00    +0.000 OA
DOCKED: ENDROOT
DOCKED: BRANCH   1  16
DOCKED: ATOM     16  C   UNL     1      24.814 -16.350  -1.596 -0.58 -0.00    +0.000 C 
DOCKED: BRANCH  16  17
DOCKED: ATOM     17  C   UNL     1      24.366 -17.789  -1.869 -0.64 -0.00    +0.000 C 
DOCKED: BRANCH  17  18
DOCKED: ATOM     18  C   UNL     1      24.040 -18.523  -0.564 -0.77 -0.00    +0.000 C 
DOCKED: BRANCH  18  19
DOCKED: ATOM     19  C   UNL     1      22.750 -19.343  -0.701 -0.75 -0.00    +0.000 C 
DOCKED: BRANCH  19  20
DOCKED: ATOM     20  C   UNL     1      21.490 -18.477  -0.567 -0.83 -0.00    +0.000 C 
DOCKED: BRANCH  20  22
DOCKED: ATOM     21  O   UNL     1      20.151 -19.740  -2.091 -2.34 -0.00    +0.000 OA
DOCKED: ATOM     22  C   UNL     1      20.249 -19.234  -0.941 -0.89 -0.00    +0.000 C 
DOCKED: ATOM     23  N   UNL     1      19.197 -19.415   0.009 -0.76 -0.00    +0.000 N 
DOCKED: ATOM     24  O   UNL     1      18.086 -20.112  -0.322 -0.88 -0.00    +0.000 OA
DOCKED: ATOM     25  H   UNL     1      19.281 -19.029   0.912 -0.25 -0.00    +0.000 HD
DOCKED: ENDBRANCH  20  22
DOCKED: ENDBRANCH  19  20
DOCKED: ENDBRANCH  18  19
DOCKED: ENDBRANCH  17  18
DOCKED: ENDBRANCH  16  17
DOCKED: ENDBRANCH   1  16
DOCKED: TORSDOF 6
DOCKED: TER
DOCKED: ENDMDL
________________________________________________________________________________


	BEGINNING GENETIC ALGORITHM DOCKING 100 of 100
Run: 100 Seed: 1241391923 1855876633 [ Run 100 of 100 GA/GALS ]
Beginning LAMARCKIAN GENETIC ALGORITHM (LGA), with a maximum of 2500000 energy evaluations.

Final-Value: -14.151


	FINAL GENETIC ALGORITHM DOCKED STATE
	_______________________________________________


Detailed state:  trans 25.359 -14.934 -3.037 quatxyzw 0.050313 0.421602 0.868002 0.257474 center -0.011 0.081 -0.051 ntor 6 -38.2681 -123.3671 95.6067 128.2118 59.9987 -138.0837
State:	 25.359 -14.934  -3.037   0.052  0.436  0.898 150.160    -38.27 -123.37   95.61  128.21   60.00 -138.08

DOCKED: MODEL      100
DOCKED: USER    Run = 100
DOCKED: USER    DPF = ligand_dock.biased.dpf
DOCKED: USER  
DOCKED: USER    Estimated Free Energy of Binding    =  -11.67 kcal/mol  [=(1)+(2)+(3)-(4)]
DOCKED: USER    Estimated Inhibition Constant, Ki   =    2.80 nM (nanomolar)  [Temperature = 298.15 K]
DOCKED: USER    
DOCKED: USER    (1) Final Intermolecular Energy     =  -13.46 kcal/mol
DOCKED: USER        vdW + Hbond + desolv Energy     =  -13.46 kcal/mol
DOCKED: USER        Electrostatic Energy            =   +0.00 kcal/mol
DOCKED: USER    (2) Final Total Internal Energy     =   -0.69 kcal/mol
DOCKED: USER    (3) Torsional Free Energy           =   +1.79 kcal/mol
DOCKED: USER    (4) Unbound System's Energy  [=(2)] =   -0.69 kcal/mol
DOCKED: USER    
DOCKED: USER    
DOCKED: USER    NEWDPF move ligand.pdbqt
DOCKED: USER    NEWDPF about -0.011000 0.081000 -0.051000
DOCKED: USER    NEWDPF tran0 25.359127 -14.934003 -3.037029
DOCKED: USER    NEWDPF quaternion0 0.050313 0.421602 0.868002 0.257474
DOCKED: USER    NEWDPF axisangle0 0.052069 0.436312 0.898288 150.159512
DOCKED: USER    NEWDPF quat0 0.052069 0.436312 0.898288 150.159512
DOCKED: USER    NEWDPF dihe0 -38.27 -123.37 95.61 128.21 60.00 -138.08 
DOCKED: USER  keepresnum = 1 
DOCKED: USER  
DOCKED: REMARK  Name = 
DOCKED: REMARK  6 active torsions:
DOCKED: REMARK  status: ('A' for Active; 'I' for Inactive)
DOCKED: REMARK    1  A    between atoms: C_2  and  C_5
DOCKED: REMARK    2  A    between atoms: C_5  and  C_6
DOCKED: REMARK    3  A    between atoms: C_6  and  C_7
DOCKED: REMARK    4  A    between atoms: C_7  and  C_8
DOCKED: REMARK    5  A    between atoms: C_8  and  C_9
DOCKED: REMARK    6  A    between atoms: C_9  and  N_10
DOCKED: REMARK                            x       y       z     vdW  Elec       q    Type
DOCKED: REMARK                         _______ _______ _______ _____ _____    ______ ____
DOCKED: USER                              x       y       z     vdW  Elec       q    Type
DOCKED: USER                           _______ _______ _______ _____ _____    ______ ____
DOCKED: ROOT
DOCKED: ATOM      1  N   UNL     1      26.226 -15.104  -2.781 -0.39 -0.00    +0.000 N 
DOCKED: ATOM      2  C   UNL     1      26.550 -15.212  -4.180 -0.53 -0.00    +0.000 C 
DOCKED: ATOM      3  C   UNL     1      27.663 -14.414  -4.745 -0.32 -0.00    +0.000 A 
DOCKED: ATOM      4  C   UNL     1      28.009 -14.532  -6.103 -0.27 -0.00    +0.000 A 
DOCKED: ATOM      5  C   UNL     1      29.057 -13.781  -6.637 -0.27 -0.00    +0.000 A 
DOCKED: ATOM      6  C   UNL     1      29.775 -12.902  -5.827 -0.10 -0.00    +0.000 A 
DOCKED: ATOM      7  C   UNL     1      29.448 -12.764  -4.471 -0.06 -0.00    +0.000 A 
DOCKED: ATOM      8  C   UNL     1      30.169 -11.877  -3.659 -0.02 -0.00    +0.000 A 
DOCKED: ATOM      9  C   UNL     1      29.843 -11.738  -2.310 -0.01 -0.00    +0.000 A 
DOCKED: ATOM     10  C   UNL     1      28.798 -12.480  -1.758 -0.05 -0.00    +0.000 A 
DOCKED: ATOM     11  C   UNL     1      28.062 -13.378  -2.551 -0.11 -0.00    +0.000 A 
DOCKED: ATOM     12  C   UNL     1      28.385 -13.524  -3.918 -0.13 -0.00    +0.000 A 
DOCKED: ATOM     13  O   UNL     1      25.885 -15.982  -4.927 -0.99 -0.00    +0.000 OA
DOCKED: ATOM     14  C   UNL     1      26.953 -14.165  -1.965 -0.27 -0.00    +0.000 C 
DOCKED: ATOM     15  O   UNL     1      26.644 -14.010  -0.751 -0.30 -0.00    +0.000 OA
DOCKED: ENDROOT
DOCKED: BRANCH   1  16
DOCKED: ATOM     16  C   UNL     1      25.100 -15.863  -2.218 -0.52 -0.00    +0.000 C 
DOCKED: BRANCH  16  17
DOCKED: ATOM     17  C   UNL     1      25.515 -16.529  -0.903 -0.55 -0.00    +0.000 C 
DOCKED: BRANCH  17  18
DOCKED: ATOM     18  C   UNL     1      25.374 -18.052  -0.987 -0.64 -0.00    +0.000 C 
DOCKED: BRANCH  18  19
DOCKED: ATOM     19  C   UNL     1      23.977 -18.450  -1.484 -0.71 -0.00    +0.000 C 
DOCKED: BRANCH  19  20
DOCKED: ATOM     20  C   UNL     1      22.929 -18.421  -0.363 -0.82 -0.00    +0.000 C 
DOCKED: BRANCH  20  22
DOCKED: ATOM     21  O   UNL     1      20.716 -17.588  -0.707 -2.14 +0.00    +0.000 OA
DOCKED: ATOM     22  C   UNL     1      21.532 -18.528  -0.902 -0.82 -0.00    +0.000 C 
DOCKED: ATOM     23  N   UNL     1      21.135 -19.670  -1.663 -0.66 -0.00    +0.000 N 
DOCKED: ATOM     24  O   UNL     1      19.881 -19.758  -2.164 -2.32 -0.00    +0.000 OA
DOCKED: ATOM     25  H   UNL     1      21.778 -20.399  -1.825 -0.43 -0.00    +0.000 HD
DOCKED: ENDBRANCH  20  22
DOCKED: ENDBRANCH  19  20
DOCKED: ENDBRANCH  18  19
DOCKED: ENDBRANCH  17  18
DOCKED: ENDBRANCH  16  17
DOCKED: ENDBRANCH   1  16
DOCKED: TORSDOF 6
DOCKED: TER
DOCKED: ENDMDL
________________________________________________________________________________

DPF>                           # do this many hybrid GA-LS runs

DPF> analysis                             # perform a ranked cluster analysis


		CLUSTER ANALYSIS OF CONFORMATIONS
		_________________________________

Number of conformations = 100

RMSD cluster analysis will be performed using the ligand atoms only (25 / 25 total atoms).

Outputting structurally similar clusters, ranked in order of increasing energy.


________________________________________________________________________________

Number of distinct conformational clusters found = 5,  out of 100 runs,
Using an rmsd-tolerance of 2.0 A


	CLUSTERING HISTOGRAM
	____________________

________________________________________________________________________________
     |           |     |           |     |                                    
Clus | Lowest    | Run | Mean      | Num | Histogram                          
-ter | Binding   |     | Binding   | in  |                                    
Rank | Energy    |     | Energy    | Clus|    5    10   15   20   25   30   35
_____|___________|_____|___________|_____|____:____|____:____|____:____|____:___
   1 |    -12.42 |  59 |    -11.34 |  69 |#####################################################################
   2 |    -11.84 |  65 |    -11.26 |  12 |############
   3 |    -11.70 |  22 |    -10.95 |  12 |############
   4 |    -10.82 |  80 |    -10.61 |   2 |##
   5 |    -10.61 |  90 |    -10.44 |   5 |#####
_____|___________|_____|___________|_____|______________________________________


Number of multi-member conformational clusters found = 5, out of 100 runs.

	RMSD TABLE
	__________

_____________________________________________________________________
     |      |      |           |         |                 |
Rank | Sub- | Run  | Binding   | Cluster | Reference       | Grep
     | Rank |      | Energy    | RMSD    | RMSD            | Pattern
_____|______|______|___________|_________|_________________|___________
   1      1     59      -12.42      0.00     29.51           RANKING
   1      2     37      -12.37      0.31     29.53           RANKING
   1      3     63      -12.19      0.84     29.52           RANKING
   1      4     88      -12.00      0.38     29.58           RANKING
   1      5      1      -11.99      1.09     29.38           RANKING
   1      6     45      -11.95      0.45     29.54           RANKING
   1      7     70      -11.93      0.60     29.52           RANKING
   1      8     81      -11.93      0.55     29.86           RANKING
   1      9     60      -11.91      0.97     30.14           RANKING
   1     10     84      -11.88      0.77     30.24           RANKING
   1     11     99      -11.88      1.25     29.26           RANKING
   1     12     55      -11.86      1.04     29.74           RANKING
   1     13     86      -11.82      0.64     29.96           RANKING
   1     14     31      -11.79      0.89     30.06           RANKING
   1     15     95      -11.76      1.08     29.83           RANKING
   1     16     87      -11.75      1.14     29.63           RANKING
   1     17     72      -11.68      1.15     29.37           RANKING
   1     18     24      -11.64      1.18     29.29           RANKING
   1     19     75      -11.57      1.09     29.44           RANKING
   1     20     11      -11.52      1.27     30.66           RANKING
   1     21     10      -11.51      1.24     29.50           RANKING
   1     22     14      -11.50      1.60     28.91           RANKING
   1     23     35      -11.49      0.74     30.02           RANKING
   1     24     79      -11.49      0.73     29.89           RANKING
   1     25     67      -11.48      1.16     29.70           RANKING
   1     26     33      -11.44      1.94     28.62           RANKING
   1     27     38      -11.43      1.17     30.46           RANKING
   1     28     47      -11.40      1.21     29.59           RANKING
   1     29      2      -11.38      1.21     29.50           RANKING
   1     30     74      -11.38      1.24     29.25           RANKING
   1     31     51      -11.36      1.29     29.49           RANKING
   1     32     12      -11.36      1.04     29.58           RANKING
   1     33     21      -11.35      1.82     29.21           RANKING
   1     34     73      -11.35      1.48     30.96           RANKING
   1     35     49      -11.33      1.00     29.70           RANKING
   1     36     54      -11.29      1.21     29.70           RANKING
   1     37     15      -11.29      1.15     29.63           RANKING
   1     38     97      -11.29      1.41     30.21           RANKING
   1     39     77      -11.28      1.23     29.54           RANKING
   1     40      7      -11.27      0.92     29.75           RANKING
   1     41     43      -11.22      1.54     28.98           RANKING
   1     42     61      -11.21      0.94     29.98           RANKING
   1     43     91      -11.19      1.45     29.31           RANKING
   1     44      8      -11.19      1.90     28.39           RANKING
   1     45      5      -11.18      0.95     30.11           RANKING
   1     46     32      -11.17      1.61     29.44           RANKING
   1     47      4      -11.14      1.75     29.49           RANKING
   1     48     93      -11.13      0.92     29.61           RANKING
   1     49     62      -11.12      1.22     30.23           RANKING
   1     50     34      -11.12      0.88     29.57           RANKING
   1     51     42      -11.05      1.44     29.16           RANKING
   1     52     66      -11.05      1.02     29.74           RANKING
   1     53     56      -10.99      1.43     29.37           RANKING
   1     54     96      -10.95      1.37     29.97           RANKING
   1     55     44      -10.94      1.41     29.51           RANKING
   1     56      6      -10.93      1.53     29.20           RANKING
   1     57     40      -10.92      1.34     30.18           RANKING
   1     58     78      -10.90      1.91     28.84           RANKING
   1     59     25      -10.84      1.81     28.86           RANKING
   1     60     92      -10.83      1.44     29.64           RANKING
   1     61      3      -10.81      1.35     30.47           RANKING
   1     62     69      -10.80      1.40     29.36           RANKING
   1     63     58      -10.78      1.84     29.13           RANKING
   1     64     13      -10.75      1.60     29.27           RANKING
   1     65     50      -10.71      1.44     29.64           RANKING
   1     66     52      -10.69      1.79     29.00           RANKING
   1     67     26      -10.60      1.20     29.92           RANKING
   1     68     23      -10.57      1.93     29.23           RANKING
   1     69     53      -10.11      1.97     28.98           RANKING
   2      1     65      -11.84      0.00     27.99           RANKING
   2      2    100      -11.67      1.87     28.87           RANKING
   2      3     17      -11.64      0.63     28.19           RANKING
   2      4      9      -11.50      0.66     28.31           RANKING
   2      5     98      -11.37      1.61     28.73           RANKING
   2      6     27      -11.28      1.96     28.36           RANKING
   2      7     85      -11.10      1.73     29.00           RANKING
   2      8     20      -11.08      1.75     29.05           RANKING
   2      9     94      -11.07      1.61     28.80           RANKING
   2     10     36      -10.95      1.57     27.80           RANKING
   2     11     41      -10.87      1.59     28.11           RANKING
   2     12     48      -10.74      1.98     28.22           RANKING
   3      1     22      -11.70      0.00     27.86           RANKING
   3      2     16      -11.68      0.93     28.21           RANKING
   3      3     83      -11.38      1.73     28.90           RANKING
   3      4     19      -11.12      1.25     28.46           RANKING
   3      5     29      -11.08      0.91     28.17           RANKING
   3      6     64      -10.87      0.75     27.91           RANKING
   3      7     89      -10.83      0.90     28.03           RANKING
   3      8     57      -10.63      1.12     27.92           RANKING
   3      9     76      -10.60      1.99     28.12           RANKING
   3     10     39      -10.53      1.07     27.81           RANKING
   3     11     30      -10.49      1.23     28.27           RANKING
   3     12     71      -10.46      0.88     27.91           RANKING
   4      1     80      -10.82      0.00     28.89           RANKING
   4      2     28      -10.40      0.87     28.98           RANKING
   5      1     90      -10.61      0.00     29.64           RANKING
   5      2     68      -10.61      1.84     28.10           RANKING
   5      3     82      -10.52      0.96     29.95           RANKING
   5      4     46      -10.29      1.07     29.08           RANKING
   5      5     18      -10.18      0.69     29.32           RANKING
_______________________________________________________________________



	INFORMATION ENTROPY ANALYSIS FOR THIS CLUSTERING
	________________________________________________


Information entropy for this clustering = 0.22  (rmstol = 2.00 Angstrom)

_______________________________________________________________________


	STATISTICAL MECHANICAL ANALYSIS
	_______________________________


Partition function, Q =   101.91            at Temperature, T = 298.15 K
Free energy,        A ~ -2739.70 kcal/mol   at Temperature, T = 298.15 K
Internal energy,    U =   -11.22 kcal/mol   at Temperature, T = 298.15 K
Entropy,            S =     9.15 kcal/mol/K at Temperature, T = 298.15 K

_______________________________________________________________________


	LOWEST ENERGY DOCKED CONFORMATION from EACH CLUSTER
	___________________________________________________



Keeping original residue number (specified in the input PDBQ file) for outputting.

MODEL       59
USER    Run = 59
USER    Cluster Rank = 1
USER    Number of conformations in this cluster = 69
USER  
USER    RMSD from reference structure       = 29.514 A
USER  
USER    Estimated Free Energy of Binding    =  -12.42 kcal/mol  [=(1)+(2)+(3)-(4)]
USER    Estimated Inhibition Constant, Ki   =  790.12 pM (picomolar)  [Temperature = 298.15 K]
USER    
USER    (1) Final Intermolecular Energy     =  -14.21 kcal/mol
USER        vdW + Hbond + desolv Energy     =  -14.21 kcal/mol
USER        Electrostatic Energy            =   +0.00 kcal/mol
USER    (2) Final Total Internal Energy     =   -0.99 kcal/mol
USER    (3) Torsional Free Energy           =   +1.79 kcal/mol
USER    (4) Unbound System's Energy  [=(2)] =   -0.99 kcal/mol
USER    
USER    
USER  
USER    DPF = ligand_dock.biased.dpf
USER    NEWDPF move	ligand.pdbqt
USER    NEWDPF about	-0.011000 0.081000 -0.051000
USER    NEWDPF tran0	26.079465 -14.968280 -1.484231
USER    NEWDPF axisangle0	0.382040 0.023908 0.923837 -164.032305
USER    NEWDPF quaternion0	0.378337 0.023676 0.914882 -0.138894
USER    NEWDPF dihe0	-52.69 162.65 178.87 -42.98 -137.10 171.36 
USER  
USER                              x       y       z    vdW   Elec        q     RMS 
ATOM      1  N   UNL     1      26.267 -15.791  -1.849 -0.39 -0.00    +0.000    29.514
ATOM      2  C   UNL     1      26.186 -15.165  -3.143 -0.49 -0.00    +0.000    29.514
ATOM      3  C   UNL     1      27.299 -15.315  -4.109 -0.37 -0.00    +0.000    29.514
ATOM      4  C   UNL     1      27.218 -14.733  -5.387 -0.33 -0.00    +0.000    29.514
ATOM      5  C   UNL     1      28.266 -14.873  -6.298 -0.33 -0.00    +0.000    29.514
ATOM      6  C   UNL     1      29.409 -15.593  -5.950 -0.33 -0.00    +0.000    29.514
ATOM      7  C   UNL     1      29.514 -16.180  -4.681 -0.26 -0.00    +0.000    29.514
ATOM      8  C   UNL     1      30.665 -16.901  -4.332 -0.18 -0.00    +0.000    29.514
ATOM      9  C   UNL     1      30.771 -17.484  -3.069 -0.16 -0.00    +0.000    29.514
ATOM     10  C   UNL     1      29.734 -17.354  -2.144 -0.16 -0.00    +0.000    29.514
ATOM     11  C   UNL     1      28.569 -16.638  -2.472 -0.24 -0.00    +0.000    29.514
ATOM     12  C   UNL     1      28.453 -16.045  -3.748 -0.21 -0.00    +0.000    29.514
ATOM     13  O   UNL     1      25.168 -14.486  -3.455 -0.76 -0.00    +0.000    29.514
ATOM     14  C   UNL     1      27.468 -16.501  -1.490 -0.39 -0.00    +0.000    29.514
ATOM     15  O   UNL     1      27.586 -17.005  -0.339 -0.45 -0.00    +0.000    29.514
ATOM     16  C   UNL     1      25.185 -15.618  -0.869 -0.31 -0.00    +0.000    29.514
ATOM     17  C   UNL     1      24.063 -16.626  -1.137 -0.51 -0.00    +0.000    29.514
ATOM     18  C   UNL     1      24.631 -18.013  -1.454 -0.67 -0.00    +0.000    29.514
ATOM     19  C   UNL     1      23.835 -19.112  -0.736 -0.64 -0.00    +0.000    29.514
ATOM     20  C   UNL     1      22.655 -18.547   0.067 -0.74 -0.00    +0.000    29.514
ATOM     21  O   UNL     1      20.649 -17.542  -0.756 -2.12 +0.00    +0.000    29.514
ATOM     22  C   UNL     1      21.381 -18.567  -0.726 -0.86 -0.00    +0.000    29.514
ATOM     23  N   UNL     1      21.011 -19.727  -1.474 -0.75 -0.00    +0.000    29.514
ATOM     24  O   UNL     1      19.871 -19.739  -2.202 -2.31 -0.00    +0.000    29.514
ATOM     25  H   UNL     1      21.590 -20.524  -1.459 -0.24 -0.00    +0.000    29.514
TER
ENDMDL
MODEL       65
USER    Run = 65
USER    Cluster Rank = 2
USER    Number of conformations in this cluster = 12
USER  
USER    RMSD from reference structure       = 27.992 A
USER  
USER    Estimated Free Energy of Binding    =  -11.84 kcal/mol  [=(1)+(2)+(3)-(4)]
USER    Estimated Inhibition Constant, Ki   =    2.08 nM (nanomolar)  [Temperature = 298.15 K]
USER    
USER    (1) Final Intermolecular Energy     =  -13.63 kcal/mol
USER        vdW + Hbond + desolv Energy     =  -13.63 kcal/mol
USER        Electrostatic Energy            =   +0.00 kcal/mol
USER    (2) Final Total Internal Energy     =   -0.72 kcal/mol
USER    (3) Torsional Free Energy           =   +1.79 kcal/mol
USER    (4) Unbound System's Energy  [=(2)] =   -0.72 kcal/mol
USER    
USER    
USER  
USER    DPF = ligand_dock.biased.dpf
USER    NEWDPF move	ligand.pdbqt
USER    NEWDPF about	-0.011000 0.081000 -0.051000
USER    NEWDPF tran0	25.885789 -15.688638 -4.747704
USER    NEWDPF axisangle0	0.429682 -0.745703 -0.509214 -135.176665
USER    NEWDPF quaternion0	0.397228 -0.689379 -0.470753 -0.381259
USER    NEWDPF dihe0	-16.14 163.70 -17.54 -84.56 -59.73 -179.18 
USER  
USER                              x       y       z    vdW   Elec        q     RMS 
ATOM      1  N   UNL     1      26.062 -15.004  -4.159 -0.53 -0.00    +0.000    27.992
ATOM      2  C   UNL     1      27.385 -14.943  -4.726 -0.44 -0.00    +0.000    27.992
ATOM      3  C   UNL     1      27.918 -13.654  -5.223 -0.25 -0.00    +0.000    27.992
ATOM      4  C   UNL     1      29.219 -13.575  -5.751 -0.18 -0.00    +0.000    27.992
ATOM      5  C   UNL     1      29.722 -12.361  -6.219 -0.09 -0.00    +0.000    27.992
ATOM      6  C   UNL     1      28.939 -11.208  -6.170 -0.07 -0.00    +0.000    27.992
ATOM      7  C   UNL     1      27.638 -11.261  -5.650 -0.13 -0.00    +0.000    27.992
ATOM      8  C   UNL     1      26.849 -10.102  -5.604 -0.12 -0.00    +0.000    27.992
ATOM      9  C   UNL     1      25.554 -10.155  -5.089 -0.26 -0.00    +0.000    27.992
ATOM     10  C   UNL     1      25.033 -11.360  -4.617 -0.28 -0.00    +0.000    27.992
ATOM     11  C   UNL     1      25.804 -12.535  -4.650 -0.26 -0.00    +0.000    27.992
ATOM     12  C   UNL     1      27.117 -12.491  -5.170 -0.21 -0.00    +0.000    27.992
ATOM     13  O   UNL     1      28.089 -15.987  -4.802 -0.55 -0.00    +0.000    27.992
ATOM     14  C   UNL     1      25.251 -13.814  -4.148 -0.45 -0.00    +0.000    27.992
ATOM     15  O   UNL     1      24.066 -13.858  -3.713 -0.83 -0.00    +0.000    27.992
ATOM     16  C   UNL     1      25.509 -16.286  -3.697 -0.16 -0.00    +0.000    27.992
ATOM     17  C   UNL     1      25.789 -16.475  -2.204 -0.54 -0.00    +0.000    27.992
ATOM     18  C   UNL     1      24.485 -16.620  -1.412 -0.60 -0.00    +0.000    27.992
ATOM     19  C   UNL     1      24.135 -18.099  -1.194 -0.77 -0.00    +0.000    27.992
ATOM     20  C   UNL     1      23.052 -18.290  -0.123 -0.78 -0.00    +0.000    27.992
ATOM     21  O   UNL     1      20.949 -17.374  -0.793 -1.95 -0.00    +0.000    27.992
ATOM     22  C   UNL     1      21.682 -18.396  -0.728 -0.85 -0.00    +0.000    27.992
ATOM     23  N   UNL     1      21.220 -19.638  -1.262 -0.72 -0.00    +0.000    27.992
ATOM     24  O   UNL     1      19.992 -19.730  -1.823 -2.39 -0.00    +0.000    27.992
ATOM     25  H   UNL     1      21.799 -20.434  -1.221 -0.22 -0.00    +0.000    27.992
TER
ENDMDL
MODEL       22
USER    Run = 22
USER    Cluster Rank = 3
USER    Number of conformations in this cluster = 12
USER  
USER    RMSD from reference structure       = 27.861 A
USER  
USER    Estimated Free Energy of Binding    =  -11.70 kcal/mol  [=(1)+(2)+(3)-(4)]
USER    Estimated Inhibition Constant, Ki   =    2.65 nM (nanomolar)  [Temperature = 298.15 K]
USER    
USER    (1) Final Intermolecular Energy     =  -13.49 kcal/mol
USER        vdW + Hbond + desolv Energy     =  -13.49 kcal/mol
USER        Electrostatic Energy            =   +0.00 kcal/mol
USER    (2) Final Total Internal Energy     =   -0.37 kcal/mol
USER    (3) Torsional Free Energy           =   +1.79 kcal/mol
USER    (4) Unbound System's Energy  [=(2)] =   -0.37 kcal/mol
USER    
USER    
USER  
USER    DPF = ligand_dock.biased.dpf
USER    NEWDPF move	ligand.pdbqt
USER    NEWDPF about	-0.011000 0.081000 -0.051000
USER    NEWDPF tran0	26.332204 -16.045565 -2.002860
USER    NEWDPF axisangle0	-0.635749 0.758710 -0.142061 -175.480309
USER    NEWDPF quaternion0	-0.635255 0.758120 -0.141950 -0.039432
USER    NEWDPF dihe0	-98.25 -97.12 97.28 -164.76 -27.26 50.03 
USER  
USER                              x       y       z    vdW   Elec        q     RMS 
ATOM      1  N   UNL     1      25.769 -15.341  -2.184 -0.42 -0.00    +0.000    27.861
ATOM      2  C   UNL     1      26.387 -14.646  -1.085 -0.34 -0.00    +0.000    27.861
ATOM      3  C   UNL     1      26.937 -13.286  -1.285 -0.15 -0.00    +0.000    27.861
ATOM      4  C   UNL     1      27.516 -12.585  -0.212 -0.15 -0.00    +0.000    27.861
ATOM      5  C   UNL     1      28.034 -11.303  -0.400 -0.08 -0.00    +0.000    27.861
ATOM      6  C   UNL     1      27.984 -10.701  -1.657 -0.07 -0.00    +0.000    27.861
ATOM      7  C   UNL     1      27.414 -11.380  -2.743 -0.11 -0.00    +0.000    27.861
ATOM      8  C   UNL     1      27.368 -10.775  -4.007 -0.10 -0.00    +0.000    27.861
ATOM      9  C   UNL     1      26.802 -11.451  -5.088 -0.19 -0.00    +0.000    27.861
ATOM     10  C   UNL     1      26.279 -12.733  -4.920 -0.19 -0.00    +0.000    27.861
ATOM     11  C   UNL     1      26.312 -13.361  -3.662 -0.31 -0.00    +0.000    27.861
ATOM     12  C   UNL     1      26.883 -12.683  -2.562 -0.07 -0.00    +0.000    27.861
ATOM     13  O   UNL     1      26.464 -15.196   0.049 -0.37 -0.00    +0.000    27.861
ATOM     14  C   UNL     1      25.757 -14.722  -3.485 -0.53 -0.00    +0.000    27.861
ATOM     15  O   UNL     1      25.275 -15.339  -4.476 -0.83 -0.00    +0.000    27.861
ATOM     16  C   UNL     1      25.253 -16.707  -2.006 -0.60 -0.00    +0.000    27.861
ATOM     17  C   UNL     1      26.179 -17.506  -1.085 -0.58 -0.00    +0.000    27.861
ATOM     18  C   UNL     1      25.410 -18.608  -0.349 -0.61 -0.00    +0.000    27.861
ATOM     19  C   UNL     1      24.045 -18.859  -1.005 -0.71 -0.00    +0.000    27.861
ATOM     20  C   UNL     1      22.999 -17.813  -0.596 -0.80 -0.00    +0.000    27.861
ATOM     21  O   UNL     1      20.635 -17.485  -0.706 -2.08 +0.00    +0.000    27.861
ATOM     22  C   UNL     1      21.607 -18.247  -0.952 -0.75 -0.00    +0.000    27.861
ATOM     23  N   UNL     1      21.383 -19.502  -1.597 -0.65 -0.00    +0.000    27.861
ATOM     24  O   UNL     1      20.130 -19.886  -1.933 -2.31 -0.00    +0.000    27.861
ATOM     25  H   UNL     1      22.145 -20.093  -1.799 -0.47 -0.00    +0.000    27.861
TER
ENDMDL
MODEL       80
USER    Run = 80
USER    Cluster Rank = 4
USER    Number of conformations in this cluster = 2
USER  
USER    RMSD from reference structure       = 28.889 A
USER  
USER    Estimated Free Energy of Binding    =  -10.82 kcal/mol  [=(1)+(2)+(3)-(4)]
USER    Estimated Inhibition Constant, Ki   =   11.81 nM (nanomolar)  [Temperature = 298.15 K]
USER    
USER    (1) Final Intermolecular Energy     =  -12.61 kcal/mol
USER        vdW + Hbond + desolv Energy     =  -12.61 kcal/mol
USER        Electrostatic Energy            =   +0.00 kcal/mol
USER    (2) Final Total Internal Energy     =   -0.74 kcal/mol
USER    (3) Torsional Free Energy           =   +1.79 kcal/mol
USER    (4) Unbound System's Energy  [=(2)] =   -0.74 kcal/mol
USER    
USER    
USER  
USER    DPF = ligand_dock.biased.dpf
USER    NEWDPF move	ligand.pdbqt
USER    NEWDPF about	-0.011000 0.081000 -0.051000
USER    NEWDPF tran0	25.998115 -17.170346 -2.644454
USER    NEWDPF axisangle0	-0.382684 0.901070 0.204026 -175.322274
USER    NEWDPF quaternion0	-0.382365 0.900319 0.203856 -0.040810
USER    NEWDPF dihe0	18.06 -122.36 141.26 71.29 77.11 168.02 
USER  
USER                              x       y       z    vdW   Elec        q     RMS 
ATOM      1  N   UNL     1      25.940 -16.365  -2.203 -0.48 -0.00    +0.000    28.889
ATOM      2  C   UNL     1      27.036 -16.810  -1.381 -0.46 -0.00    +0.000    28.889
ATOM      3  C   UNL     1      28.237 -15.957  -1.226 -0.26 -0.00    +0.000    28.889
ATOM      4  C   UNL     1      29.301 -16.366  -0.403 -0.19 -0.00    +0.000    28.889
ATOM      5  C   UNL     1      30.434 -15.564  -0.256 -0.12 -0.00    +0.000    28.889
ATOM      6  C   UNL     1      30.523 -14.344  -0.926 -0.04 -0.00    +0.000    28.889
ATOM      7  C   UNL     1      29.477 -13.916  -1.755 -0.05 -0.00    +0.000    28.889
ATOM      8  C   UNL     1      29.570 -12.691  -2.431 -0.03 -0.00    +0.000    28.889
ATOM      9  C   UNL     1      28.530 -12.265  -3.257 -0.07 -0.00    +0.000    28.889
ATOM     10  C   UNL     1      27.390 -13.053  -3.417 -0.18 -0.00    +0.000    28.889
ATOM     11  C   UNL     1      27.272 -14.285  -2.748 -0.22 -0.00    +0.000    28.889
ATOM     12  C   UNL     1      28.321 -14.724  -1.910 -0.15 -0.00    +0.000    28.889
ATOM     13  O   UNL     1      26.976 -17.926  -0.795 -0.58 -0.00    +0.000    28.889
ATOM     14  C   UNL     1      26.062 -15.121  -2.918 -0.48 -0.00    +0.000    28.889
ATOM     15  O   UNL     1      25.139 -14.742  -3.692 -0.86 -0.00    +0.000    28.889
ATOM     16  C   UNL     1      24.759 -17.220  -2.394 -0.41 -0.00    +0.000    28.889
ATOM     17  C   UNL     1      23.821 -17.103  -1.189 -0.68 -0.00    +0.000    28.889
ATOM     18  C   UNL     1      23.945 -18.324  -0.271 -0.75 -0.00    +0.000    28.889
ATOM     19  C   UNL     1      22.697 -19.213  -0.366 -0.67 -0.00    +0.000    28.889
ATOM     20  C   UNL     1      21.412 -18.396  -0.556 -0.80 -0.00    +0.000    28.889
ATOM     21  O   UNL     1      20.264 -19.939  -1.974 -2.31 -0.00    +0.000    28.889
ATOM     22  C   UNL     1      20.243 -19.270  -0.908 -0.89 -0.00    +0.000    28.889
ATOM     23  N   UNL     1      19.124 -19.373  -0.024 -0.77 -0.00    +0.000    28.889
ATOM     24  O   UNL     1      18.078 -20.173  -0.333 -0.88 -0.00    +0.000    28.889
ATOM     25  H   UNL     1      19.113 -18.857   0.815 -0.29 -0.00    +0.000    28.889
TER
ENDMDL
MODEL       90
USER    Run = 90
USER    Cluster Rank = 5
USER    Number of conformations in this cluster = 5
USER  
USER    RMSD from reference structure       = 29.635 A
USER  
USER    Estimated Free Energy of Binding    =  -10.61 kcal/mol  [=(1)+(2)+(3)-(4)]
USER    Estimated Inhibition Constant, Ki   =   16.75 nM (nanomolar)  [Temperature = 298.15 K]
USER    
USER    (1) Final Intermolecular Energy     =  -12.40 kcal/mol
USER        vdW + Hbond + desolv Energy     =  -12.40 kcal/mol
USER        Electrostatic Energy            =   +0.00 kcal/mol
USER    (2) Final Total Internal Energy     =   -0.83 kcal/mol
USER    (3) Torsional Free Energy           =   +1.79 kcal/mol
USER    (4) Unbound System's Energy  [=(2)] =   -0.83 kcal/mol
USER    
USER    
USER  
USER    DPF = ligand_dock.biased.dpf
USER    NEWDPF move	ligand.pdbqt
USER    NEWDPF about	-0.011000 0.081000 -0.051000
USER    NEWDPF tran0	27.062850 -15.351052 -1.798240
USER    NEWDPF axisangle0	0.365609 -0.601256 -0.710508 155.037793
USER    NEWDPF quaternion0	0.356969 -0.587046 -0.693717 0.216118
USER    NEWDPF dihe0	126.86 -95.51 -177.93 -57.26 -130.52 143.78 
USER  
USER                              x       y       z    vdW   Elec        q     RMS 
ATOM      1  N   UNL     1      26.976 -15.505  -0.896 -0.31 -0.00    +0.000    29.635
ATOM      2  C   UNL     1      28.210 -16.244  -0.968 -0.32 -0.00    +0.000    29.635
ATOM      3  C   UNL     1      29.322 -15.918  -0.047 -0.14 -0.00    +0.000    29.635
ATOM      4  C   UNL     1      30.522 -16.652  -0.087 -0.13 -0.00    +0.000    29.635
ATOM      5  C   UNL     1      31.571 -16.346   0.781 -0.12 -0.00    +0.000    29.635
ATOM      6  C   UNL     1      31.442 -15.304   1.700 -0.13 -0.00    +0.000    29.635
ATOM      7  C   UNL     1      30.258 -14.556   1.758 -0.11 -0.00    +0.000    29.635
ATOM      8  C   UNL     1      30.131 -13.508   2.680 -0.13 -0.00    +0.000    29.635
ATOM      9  C   UNL     1      28.954 -12.762   2.737 -0.15 -0.00    +0.000    29.635
ATOM     10  C   UNL     1      27.894 -13.053   1.878 -0.22 -0.00    +0.000    29.635
ATOM     11  C   UNL     1      27.996 -14.101   0.945 -0.22 -0.00    +0.000    29.635
ATOM     12  C   UNL     1      29.184 -14.861   0.881 -0.13 -0.00    +0.000    29.635
ATOM     13  O   UNL     1      28.346 -17.168  -1.817 -0.36 -0.00    +0.000    29.635
ATOM     14  C   UNL     1      26.871 -14.410   0.034 -0.32 -0.00    +0.000    29.635
ATOM     15  O   UNL     1      25.821 -13.709   0.071 -0.40 -0.00    +0.000    29.635
ATOM     16  C   UNL     1      25.879 -15.796  -1.830 -0.50 -0.00    +0.000    29.635
ATOM     17  C   UNL     1      25.490 -17.275  -1.746 -0.59 -0.00    +0.000    29.635
ATOM     18  C   UNL     1      25.279 -17.708  -0.291 -0.65 -0.00    +0.000    29.635
ATOM     19  C   UNL     1      23.871 -18.286  -0.087 -0.73 -0.00    +0.000    29.635
ATOM     20  C   UNL     1      23.091 -18.400  -1.403 -0.75 -0.00    +0.000    29.635
ATOM     21  O   UNL     1      21.024 -17.861  -0.330 -1.92 +0.00    +0.000    29.635
ATOM     22  C   UNL     1      21.621 -18.592  -1.165 -0.69 -0.00    +0.000    29.635
ATOM     23  N   UNL     1      20.890 -19.573  -1.904 -0.63 -0.00    +0.000    29.635
ATOM     24  O   UNL     1      19.562 -19.734  -1.702 -2.16 -0.00    +0.000    29.635
ATOM     25  H   UNL     1      21.356 -20.135  -2.565 -0.59 -0.00    +0.000    29.635
TER
ENDMDL


AVSFLD: # AVS field file
AVSFLD: #
AVSFLD: # Created by AutoDock
AVSFLD: #
AVSFLD: ndim=2           # number of dimensions in the field
AVSFLD: nspace=1         # number of physical coordinates
AVSFLD: veclen=7         # vector size
AVSFLD: dim1=25          # atoms
AVSFLD: dim2=5           # conformations
AVSFLD: data=Real       # data type (byte,integer,Real,double)
AVSFLD: field=uniform    # field coordinate layout
AVSFLD: label= x y z vdW Elec q RMS
AVSFLD: variable 1 file = ligand_dock.biased.dlg.pdb filetype = ascii offset = 5 stride = 12
AVSFLD: variable 2 file = ligand_dock.biased.dlg.pdb filetype = ascii offset = 6 stride = 12
AVSFLD: variable 3 file = ligand_dock.biased.dlg.pdb filetype = ascii offset = 7 stride = 12
AVSFLD: variable 4 file = ligand_dock.biased.dlg.pdb filetype = ascii offset = 8 stride = 12
AVSFLD: variable 5 file = ligand_dock.biased.dlg.pdb filetype = ascii offset = 9 stride = 12
AVSFLD: variable 6 file = ligand_dock.biased.dlg.pdb filetype = ascii offset = 10 stride = 12
AVSFLD: variable 7 file = ligand_dock.biased.dlg.pdb filetype = ascii offset = 11 stride = 12
AVSFLD: # end of file

>>> Closing the docking parameter file (DPF)...
This docking finished at:			11:16 08" a.m., 11/08/2024


________________________________________________________________________________

autodock4: Successful Completion on "ThinkStation-P620"

Real= 10m 49.39s,  CPU= 10m 49.15s,  System= 0.16s
________________________________________________________________________________

