REMARK  Name = 
REMARK  7 active torsions:
REMARK  status: ('A' for Active; 'I' for Inactive)
REMARK    1  A    between atoms: C_3  and  C_4
REMARK    2  A    between atoms: C_4  and  C_5
REMARK    3  A    between atoms: C_5  and  C_6
REMARK    4  A    between atoms: C_6  and  C_7
REMARK    5  A    between atoms: C_7  and  C_8
REMARK    6  A    between atoms: C_8  and  C_9
REMARK    7  A    between atoms: C_9  and  C_10
REMARK                            x       y       z     vdW  Elec       q    Type
REMARK                         _______ _______ _______ _____ _____    ______ ____
ROOT
ATOM      1  C   UNL     1       0.496  -1.474   0.462  0.00  0.00    +0.000 C 
ENDROOT
BRANCH   1   2
ATOM      2  C   UNL     1       1.107  -0.745  -0.745  0.00  0.00    +0.000 C 
BRANCH   2   3
ATOM      3  C   UNL     1       2.636  -0.820  -0.714  0.00  0.00    +0.000 C 
BRANCH   3   6
ATOM      4  O   UNL     1       3.919   1.996  -2.888  0.00  0.00    +0.000 OA
ATOM      5  N   UNL     1       3.408   1.328  -1.827  0.00  0.00    +0.000 N 
ATOM      6  C   UNL     1       3.221  -0.087  -1.884  0.00  0.00    +0.000 C 
ATOM      7  O   UNL     1       3.512  -0.719  -2.935  0.00  0.00    +0.000 OA
ATOM      8  H   UNL     1       3.163   1.821  -1.011  0.00  0.00    +0.000 HD
ENDBRANCH   3   6
ENDBRANCH   2   3
ENDBRANCH   1   2
BRANCH   1   9
ATOM      9  C   UNL     1      -1.037  -1.584   0.384  0.00  0.00    +0.000 C 
BRANCH   9  10
ATOM     10  C   UNL     1      -1.786  -0.239   0.359  0.00  0.00    +0.000 C 
BRANCH  10  11
ATOM     11  C   UNL     1      -1.550   0.601   1.621  0.00  0.00    +0.000 C 
BRANCH  11  12
ATOM     12  C   UNL     1      -2.441   1.806   1.621  0.00  0.00    +0.000 C 
ATOM     13  N   UNL     1      -3.776   1.715   2.122  0.00  0.00    +0.000 N 
ATOM     14  O   UNL     1      -4.590   2.797   2.108  0.00  0.00    +0.000 OA
ATOM     15  O   UNL     1      -2.022   2.893   1.139  0.00  0.00    +0.000 OA
ATOM     16  H   UNL     1      -4.107   0.860   2.480  0.00  0.00    +0.000 HD
ENDBRANCH  11  12
ENDBRANCH  10  11
ENDBRANCH   9  10
ENDBRANCH   1   9
TORSDOF 7
