          AutoDock 4.2 Release 4.2.6   
         (C) 1989-2012 The Scripps Research Institute
        AutoDock comes with ABSOLUTELY NO WARRANTY.
        AutoDock is free software, and you are welcome
        to redistribute it under certain conditions;
        for details type 'autodock4 -C'

                     main.cc  $Revision: 1.213 $

                   Compiled on Feb 20 2022 at 09:48:33


This file was created at:			11:05 18" a.m., 11/08/2024
                   on host:		"ThinkStation-P620"
Current Working Directory = "/home/antonio/Documenti/buccheri/IDROSSAMICO HDAC/HDAC 2/DP/Ligand_9"

      ________________________________________________________________

                   SETTING UP DEFAULT PARAMETER LIBRARY
      ________________________________________________________________


Random number generator was seeded with values 333849, 1731060318.
Docking parameter file (DPF) used for this docking:		ligand_dock.biased.dpf
DPF> autodock_parameter_version 4.2       # used by autodock to validate parameter set

	Autodock parameter version 4.2.
DPF> outlev 1                             # diagnostic output level

Output Level = 1  ADT-COMPATIBLE OUTPUT DURING DOCKING.
DPF> intelec                              # calculate internal electrostatics

Electrostatic energies will be calculated for all non-bonds between moving atoms.
DPF> seed pid time                        # seeds for random generator

Random number generator was seeded with values 333849, 1731060318.
DPF> ligand_types C HD OA N               # atoms types in ligand

DPF> fld receptor.maps.fld                # grid_data_file

Opening Grid Map Dimensions file:		receptor.maps.fld
Grid Point Spacing =				0.375 Angstroms

Even Number of User-specified Grid Points =	70 x-points
						70 y-points
						70 z-points

Coordinates of Central Grid Point of Maps =	(24.757, -16.735, 0.794)
Macromolecule file used to create Grid Maps =	receptor.pdbqt
Grid Parameter file used to create Grid Maps =	receptor.gpf
Minimum coordinates in grid = (11.632, -29.860, -12.331)
Maximum coordinates in grid = (37.882, -3.610, 13.919)

DPF> map receptor.C.map                   # atom-specific affinity map

DPF> map receptor.HD.biased.map

DPF> map receptor.OA.biased.map

DPF> map receptor.N.map                   # atom-specific affinity map

DPF> elecmap receptor.e.map               # electrostatics map

DPF> desolvmap receptor.d.map             # desolvation map

DPF> move ligand.pdbqt                    # small molecule

1,4-interactions will be _ignored_ in the non-bonded internal energy calculation.

Ligand PDBQT file = "ligand.pdbqt"

INPUT LIGAND PDBQT FILE:
________________________

INPUT-LIGAND-PDBQT: REMARK  Name = 
INPUT-LIGAND-PDBQT: REMARK  7 active torsions:
INPUT-LIGAND-PDBQT: REMARK  status: ('A' for Active; 'I' for Inactive)
INPUT-LIGAND-PDBQT: REMARK    1  A    between atoms: C_3  and  C_4
INPUT-LIGAND-PDBQT: REMARK    2  A    between atoms: C_4  and  C_5
INPUT-LIGAND-PDBQT: REMARK    3  A    between atoms: C_5  and  C_6
INPUT-LIGAND-PDBQT: REMARK    4  A    between atoms: C_6  and  C_7
INPUT-LIGAND-PDBQT: REMARK    5  A    between atoms: C_7  and  C_8
INPUT-LIGAND-PDBQT: REMARK    6  A    between atoms: C_8  and  C_9
INPUT-LIGAND-PDBQT: REMARK    7  A    between atoms: C_9  and  C_10
INPUT-LIGAND-PDBQT: REMARK                            x       y       z     vdW  Elec       q    Type
INPUT-LIGAND-PDBQT: REMARK                         _______ _______ _______ _____ _____    ______ ____
INPUT-LIGAND-PDBQT: ROOT
INPUT-LIGAND-PDBQT: ATOM      1  C   UNL     1       0.496  -1.474   0.462  0.00  0.00    +0.000 C 
INPUT-LIGAND-PDBQT: ENDROOT
INPUT-LIGAND-PDBQT: BRANCH   1   2
INPUT-LIGAND-PDBQT: ATOM      2  C   UNL     1       1.107  -0.745  -0.745  0.00  0.00    +0.000 C 
INPUT-LIGAND-PDBQT: BRANCH   2   3
INPUT-LIGAND-PDBQT: ATOM      3  C   UNL     1       2.636  -0.820  -0.714  0.00  0.00    +0.000 C 
INPUT-LIGAND-PDBQT: BRANCH   3   6
INPUT-LIGAND-PDBQT: ATOM      4  O   UNL     1       3.919   1.996  -2.888  0.00  0.00    +0.000 OA
INPUT-LIGAND-PDBQT: ATOM      5  N   UNL     1       3.408   1.328  -1.827  0.00  0.00    +0.000 N 
INPUT-LIGAND-PDBQT: ATOM      6  C   UNL     1       3.221  -0.087  -1.884  0.00  0.00    +0.000 C 
INPUT-LIGAND-PDBQT: ATOM      7  O   UNL     1       3.512  -0.719  -2.935  0.00  0.00    +0.000 OA
INPUT-LIGAND-PDBQT: ATOM      8  H   UNL     1       3.163   1.821  -1.011  0.00  0.00    +0.000 HD
INPUT-LIGAND-PDBQT: ENDBRANCH   3   6
INPUT-LIGAND-PDBQT: ENDBRANCH   2   3
INPUT-LIGAND-PDBQT: ENDBRANCH   1   2
INPUT-LIGAND-PDBQT: BRANCH   1   9
INPUT-LIGAND-PDBQT: ATOM      9  C   UNL     1      -1.037  -1.584   0.384  0.00  0.00    +0.000 C 
INPUT-LIGAND-PDBQT: BRANCH   9  10
INPUT-LIGAND-PDBQT: ATOM     10  C   UNL     1      -1.786  -0.239   0.359  0.00  0.00    +0.000 C 
INPUT-LIGAND-PDBQT: BRANCH  10  11
INPUT-LIGAND-PDBQT: ATOM     11  C   UNL     1      -1.550   0.601   1.621  0.00  0.00    +0.000 C 
INPUT-LIGAND-PDBQT: BRANCH  11  12
INPUT-LIGAND-PDBQT: ATOM     12  C   UNL     1      -2.441   1.806   1.621  0.00  0.00    +0.000 C 
INPUT-LIGAND-PDBQT: ATOM     13  N   UNL     1      -3.776   1.715   2.122  0.00  0.00    +0.000 N 
INPUT-LIGAND-PDBQT: ATOM     14  O   UNL     1      -4.590   2.797   2.108  0.00  0.00    +0.000 OA
INPUT-LIGAND-PDBQT: ATOM     15  O   UNL     1      -2.022   2.893   1.139  0.00  0.00    +0.000 OA
INPUT-LIGAND-PDBQT: ATOM     16  H   UNL     1      -4.107   0.860   2.480  0.00  0.00    +0.000 HD
INPUT-LIGAND-PDBQT: ENDBRANCH  11  12
INPUT-LIGAND-PDBQT: ENDBRANCH  10  11
INPUT-LIGAND-PDBQT: ENDBRANCH   9  10
INPUT-LIGAND-PDBQT: ENDBRANCH   1   9
INPUT-LIGAND-PDBQT: TORSDOF 7
________________________________________________________________________________

Total charge on ligand                               =	+0.000 e
REMARK  Name = 
REMARK  7 active torsions:
REMARK  status: ('A' for Active; 'I' for Inactive)
REMARK    1  A    between atoms: C_3  and  C_4
REMARK    2  A    between atoms: C_4  and  C_5
REMARK    3  A    between atoms: C_5  and  C_6
REMARK    4  A    between atoms: C_6  and  C_7
REMARK    5  A    between atoms: C_7  and  C_8
REMARK    6  A    between atoms: C_8  and  C_9
REMARK    7  A    between atoms: C_9  and  C_10
REMARK                            x       y       z     vdW  Elec       q    Type
REMARK                         _______ _______ _______ _____ _____    ______ ____


Number of Rotatable Bonds in Small Molecule =	7 torsions
Number of atoms in ligand:  16

Number of non-hydrogen atoms in ligand:  14

Number of vibrational degrees of freedom of ligand:  42


Number of torsional degrees of freedom = 7
Estimated loss of torsional free energy upon binding = +2.0881 kcal/mol


DPF> about 0.010 0.634 0.018            # small molecule center

Small molecule center of rotation =	(+0.010, +0.634, +0.018)

DPF> tran0 random                         # initial coordinates/A or random

Initial translation =			(35.074, -7.816, 0.804) Angstroms
DPF> quaternion0 random                   # initial orientation

Each run will begin with a new, random initial orientation.
Initial quaternion,  (x,y,z,w) =	( 0.218, 0.106, -0.970, 0.010 ),
DPF> dihe0 random                         # initial dihedrals (relative) or random

DPF> torsdof 7                            # torsional degrees of freedom

Number of torsional degrees of freedom = 7
Free energy coefficient for torsional degrees of freedom = 0.2983, the factory default value.

Estimated loss of torsional free energy upon binding = +2.0881 kcal/mol

DPF> rmstol 2.0                           # cluster_tolerance/A

Maximum RMS tolerance for conformational cluster analysis = 2.00 Angstroms
DPF> extnrg 1000.0                        # external grid energy

External grid energy (beyond grid map walls) = 1000.00

DPF> e0max 0.0 10000                      # max initial energy; max number of retries

Using user-specified maximum number of retries for simanneal initialization, 10000 retries.
If the simanneal initial energy is greater than e0max, 0.000,
then a new, random initial state will be created.

DPF> ga_pop_size 150                      # number of individuals in population

A population of 150 individuals will be used
DPF> ga_num_evals 2500000                 # maximum number of energy evaluations

There will be at most 2500000 function evaluations used.
DPF> ga_num_generations 27000             # maximum number of generations

The GA will run for at most 27000 generations.
DPF> ga_elitism 1                         # number of top individuals to survive to next generation

The 1 best will be preserved each GA generation.
DPF> ga_mutation_rate 0.02                # rate of gene mutation

The mutation rate is 0.020000.
DPF> ga_crossover_rate 0.8                # rate of crossover

The crossover rate is 0.800000.
DPF> ga_window_size 10                    # 

The GA's selection window is 10 generations.
DPF> ga_cauchy_alpha 0.0                  # Alpha parameter of Cauchy distribution

The alpha parameter (for the Cauchy distribution) is being set to 0.000000.
DPF> ga_cauchy_beta 1.0                   # Beta parameter Cauchy distribution

The beta parameter (for the Cauchy distribution) is being set to 1.000000.
DPF> set_ga                               # set the above parameters for GA or LGA

DPF> sw_max_its 300                       # iterations of Solis & Wets local search

Solis & Wets algorithms will perform at most 300 iterations.
DPF> sw_max_succ 4                        # consecutive successes before changing rho

Solis & Wets algorithms expand rho every 4 in a row successes.
DPF> sw_max_fail 4                        # consecutive failures before changing rho

Solis & Wets algorithms contract rho every 4 in a row failures.
DPF> sw_rho 1.0                           # size of local search space to sample

rho is set to 1.000000.
DPF> sw_lb_rho 0.01                       # lower bound on rho

rho will never get smaller than 0.010000.
DPF> ls_search_freq 0.06                  # probability of performing local search on individual

Local search will be performed with frequency 0.060000.
DPF> set_psw1                             # set the above pseudo-Solis & Wets parameters

Creating a new Local Search object using the pseudo-Solis-Wets algorithm (pSW1) with the current settings.

DPF> unbound_model bound                  # state of unbound ligand

DPF> ga_run 100

centering ligand on specified point: 0.010 0.634 0.018
Furthest true ligand atom from "about" center is 5.496 Angstroms (maxrad).
Number of requested GA dockings = 100 runs
Unbound model to be used is 'same as bound' [AutoDock 4.2 default].

	BEGINNING GENETIC ALGORITHM DOCKING 1 of 100
Run: 1 Seed: 1300151969 198009722 [ Run 1 of 100 GA/GALS ]
Beginning LAMARCKIAN GENETIC ALGORITHM (LGA), with a maximum of 2500000 energy evaluations.

Final-Value: -12.359


	FINAL GENETIC ALGORITHM DOCKED STATE
	_______________________________________________


Detailed state:  trans 26.172 -18.760 -1.597 quatxyzw -0.855453 -0.502011 0.107558 0.067937 center 0.010 0.634 0.018 ntor 7 179.9717 -30.1976 166.3434 -92.7426 -2.3596 159.0322 127.5708
State:	 26.172 -18.760  -1.597  -0.857 -0.503  0.108 172.209    179.97  -30.20  166.34  -92.74   -2.36  159.03  127.57

DOCKED: MODEL        1
DOCKED: USER    Run = 1
DOCKED: USER    DPF = ligand_dock.biased.dpf
DOCKED: USER  
DOCKED: USER    Estimated Free Energy of Binding    =   -9.72 kcal/mol  [=(1)+(2)+(3)-(4)]
DOCKED: USER    Estimated Inhibition Constant, Ki   =   74.87 nM (nanomolar)  [Temperature = 298.15 K]
DOCKED: USER    
DOCKED: USER    (1) Final Intermolecular Energy     =  -11.81 kcal/mol
DOCKED: USER        vdW + Hbond + desolv Energy     =  -11.81 kcal/mol
DOCKED: USER        Electrostatic Energy            =   +0.00 kcal/mol
DOCKED: USER    (2) Final Total Internal Energy     =   -0.55 kcal/mol
DOCKED: USER    (3) Torsional Free Energy           =   +2.09 kcal/mol
DOCKED: USER    (4) Unbound System's Energy  [=(2)] =   -0.55 kcal/mol
DOCKED: USER    
DOCKED: USER    
DOCKED: USER    NEWDPF move ligand.pdbqt
DOCKED: USER    NEWDPF about 0.010000 0.634000 0.018000
DOCKED: USER    NEWDPF tran0 26.171846 -18.759961 -1.597166
DOCKED: USER    NEWDPF quaternion0 -0.855453 -0.502011 0.107558 0.067937
DOCKED: USER    NEWDPF axisangle0 -0.857434 -0.503174 0.107807 172.208944
DOCKED: USER    NEWDPF quat0 -0.857434 -0.503174 0.107807 172.208944
DOCKED: USER    NEWDPF dihe0 179.97 -30.20 166.34 -92.74 -2.36 159.03 127.57 
DOCKED: USER  keepresnum = 1 
DOCKED: USER  
DOCKED: REMARK  Name = 
DOCKED: REMARK  7 active torsions:
DOCKED: REMARK  status: ('A' for Active; 'I' for Inactive)
DOCKED: REMARK    1  A    between atoms: C_3  and  C_4
DOCKED: REMARK    2  A    between atoms: C_4  and  C_5
DOCKED: REMARK    3  A    between atoms: C_5  and  C_6
DOCKED: REMARK    4  A    between atoms: C_6  and  C_7
DOCKED: REMARK    5  A    between atoms: C_7  and  C_8
DOCKED: REMARK    6  A    between atoms: C_8  and  C_9
DOCKED: REMARK    7  A    between atoms: C_9  and  C_10
DOCKED: REMARK                            x       y       z     vdW  Elec       q    Type
DOCKED: REMARK                         _______ _______ _______ _____ _____    ______ ____
DOCKED: USER                              x       y       z     vdW  Elec       q    Type
DOCKED: USER                           _______ _______ _______ _____ _____    ______ ____
DOCKED: ROOT
DOCKED: ATOM      1  C   UNL     1      24.509 -17.423  -2.167 -0.49 -0.00    +0.000 C 
DOCKED: ENDROOT
DOCKED: BRANCH   1   2
DOCKED: ATOM      2  C   UNL     1      25.574 -16.991  -1.147 -0.61 -0.00    +0.000 C 
DOCKED: BRANCH   2   3
DOCKED: ATOM      3  C   UNL     1      26.269 -15.702  -1.593 -0.45 -0.00    +0.000 C 
DOCKED: BRANCH   3   6
DOCKED: ATOM      4  O   UNL     1      26.553 -15.492  -5.358 -1.16 +0.00    +0.000 OA
DOCKED: ATOM      5  N   UNL     1      26.838 -15.782  -4.066 -0.36 -0.00    +0.000 N 
DOCKED: ATOM      6  C   UNL     1      25.941 -15.397  -3.024 -0.52 -0.00    +0.000 C 
DOCKED: ATOM      7  O   UNL     1      24.887 -14.763  -3.301 -0.74 -0.00    +0.000 OA
DOCKED: ATOM      8  H   UNL     1      27.668 -16.261  -3.844 -0.02 -0.00    +0.000 HD
DOCKED: ENDBRANCH   3   6
DOCKED: ENDBRANCH   2   3
DOCKED: ENDBRANCH   1   2
DOCKED: BRANCH   1   9
DOCKED: ATOM      9  C   UNL     1      23.697 -18.646  -1.706 -0.64 -0.00    +0.000 C 
DOCKED: BRANCH   9  10
DOCKED: ATOM     10  C   UNL     1      22.805 -18.409  -0.473 -0.83 -0.00    +0.000 C 
DOCKED: BRANCH  10  11
DOCKED: ATOM     11  C   UNL     1      21.345 -18.110  -0.840 -0.70 -0.00    +0.000 C 
DOCKED: BRANCH  11  12
DOCKED: ATOM     12  C   UNL     1      20.529 -19.366  -0.800 -0.90 -0.00    +0.000 C 
DOCKED: ATOM     13  N   UNL     1      20.498 -20.169   0.382 -0.68 -0.00    +0.000 N 
DOCKED: ATOM     14  O   UNL     1      19.776 -21.313   0.416 -0.80 -0.00    +0.000 OA
DOCKED: ATOM     15  O   UNL     1      19.899 -19.735  -1.828 -2.40 -0.00    +0.000 OA
DOCKED: ATOM     16  H   UNL     1      21.007 -19.888   1.177 -0.51 -0.00    +0.000 HD
DOCKED: ENDBRANCH  11  12
DOCKED: ENDBRANCH  10  11
DOCKED: ENDBRANCH   9  10
DOCKED: ENDBRANCH   1   9
DOCKED: TORSDOF 7
DOCKED: TER
DOCKED: ENDMDL
________________________________________________________________________________


	BEGINNING GENETIC ALGORITHM DOCKING 2 of 100
Run: 2 Seed: 1917726613 1803372499 [ Run 2 of 100 GA/GALS ]
Beginning LAMARCKIAN GENETIC ALGORITHM (LGA), with a maximum of 2500000 energy evaluations.

Final-Value: -12.823


	FINAL GENETIC ALGORITHM DOCKED STATE
	_______________________________________________


Detailed state:  trans 23.673 -15.655 -2.074 quatxyzw 0.483258 -0.789668 0.233997 0.296869 center 0.010 0.634 0.018 ntor 7 69.7519 179.9497 3.5769 114.3638 0.9372 161.6404 -100.2626
State:	 23.673 -15.655  -2.074   0.506 -0.827  0.245 145.461     69.75  179.95    3.58  114.36    0.94  161.64 -100.26

DOCKED: MODEL        2
DOCKED: USER    Run = 2
DOCKED: USER    DPF = ligand_dock.biased.dpf
DOCKED: USER  
DOCKED: USER    Estimated Free Energy of Binding    =  -10.15 kcal/mol  [=(1)+(2)+(3)-(4)]
DOCKED: USER    Estimated Inhibition Constant, Ki   =   36.60 nM (nanomolar)  [Temperature = 298.15 K]
DOCKED: USER    
DOCKED: USER    (1) Final Intermolecular Energy     =  -12.23 kcal/mol
DOCKED: USER        vdW + Hbond + desolv Energy     =  -12.23 kcal/mol
DOCKED: USER        Electrostatic Energy            =   +0.00 kcal/mol
DOCKED: USER    (2) Final Total Internal Energy     =   -0.59 kcal/mol
DOCKED: USER    (3) Torsional Free Energy           =   +2.09 kcal/mol
DOCKED: USER    (4) Unbound System's Energy  [=(2)] =   -0.59 kcal/mol
DOCKED: USER    
DOCKED: USER    
DOCKED: USER    NEWDPF move ligand.pdbqt
DOCKED: USER    NEWDPF about 0.010000 0.634000 0.018000
DOCKED: USER    NEWDPF tran0 23.672735 -15.654818 -2.074223
DOCKED: USER    NEWDPF quaternion0 0.483258 -0.789668 0.233997 0.296869
DOCKED: USER    NEWDPF axisangle0 0.506073 -0.826949 0.245044 145.460740
DOCKED: USER    NEWDPF quat0 0.506073 -0.826949 0.245044 145.460740
DOCKED: USER    NEWDPF dihe0 69.75 179.95 3.58 114.36 0.94 161.64 -100.26 
DOCKED: USER  keepresnum = 1 
DOCKED: USER  
DOCKED: REMARK  Name = 
DOCKED: REMARK  7 active torsions:
DOCKED: REMARK  status: ('A' for Active; 'I' for Inactive)
DOCKED: REMARK    1  A    between atoms: C_3  and  C_4
DOCKED: REMARK    2  A    between atoms: C_4  and  C_5
DOCKED: REMARK    3  A    between atoms: C_5  and  C_6
DOCKED: REMARK    4  A    between atoms: C_6  and  C_7
DOCKED: REMARK    5  A    between atoms: C_7  and  C_8
DOCKED: REMARK    6  A    between atoms: C_8  and  C_9
DOCKED: REMARK    7  A    between atoms: C_9  and  C_10
DOCKED: REMARK                            x       y       z     vdW  Elec       q    Type
DOCKED: REMARK                         _______ _______ _______ _____ _____    ______ ____
DOCKED: USER                              x       y       z     vdW  Elec       q    Type
DOCKED: USER                           _______ _______ _______ _____ _____    ______ ____
DOCKED: ROOT
DOCKED: ATOM      1  C   UNL     1      25.124 -17.023  -1.125 -0.65 -0.00    +0.000 C 
DOCKED: ENDROOT
DOCKED: BRANCH   1   2
DOCKED: ATOM      2  C   UNL     1      23.612 -17.165  -0.890 -0.70 -0.00    +0.000 C 
DOCKED: BRANCH   2   3
DOCKED: ATOM      3  C   UNL     1      23.139 -18.586  -1.212 -0.80 -0.00    +0.000 C 
DOCKED: BRANCH   3   6
DOCKED: ATOM      4  O   UNL     1      19.575 -19.733  -1.742 -2.17 -0.00    +0.000 OA
DOCKED: ATOM      5  N   UNL     1      20.923 -19.653  -1.841 -0.69 -0.00    +0.000 N 
DOCKED: ATOM      6  C   UNL     1      21.648 -18.684  -1.084 -0.81 -0.00    +0.000 C 
DOCKED: ATOM      7  O   UNL     1      21.032 -17.881  -0.333 -1.92 +0.00    +0.000 OA
DOCKED: ATOM      8  H   UNL     1      21.406 -20.267  -2.440 -0.57 -0.00    +0.000 HD
DOCKED: ENDBRANCH   3   6
DOCKED: ENDBRANCH   2   3
DOCKED: ENDBRANCH   1   2
DOCKED: BRANCH   1   9
DOCKED: ATOM      9  C   UNL     1      25.685 -15.680  -0.625 -0.35 -0.00    +0.000 C 
DOCKED: BRANCH   9  10
DOCKED: ATOM     10  C   UNL     1      27.056 -15.289  -1.209 -0.33 -0.00    +0.000 C 
DOCKED: BRANCH  10  11
DOCKED: ATOM     11  C   UNL     1      26.952 -14.270  -2.351 -0.28 -0.00    +0.000 C 
DOCKED: BRANCH  11  12
DOCKED: ATOM     12  C   UNL     1      26.097 -14.810  -3.457 -0.50 -0.00    +0.000 C 
DOCKED: ATOM     13  N   UNL     1      26.695 -15.476  -4.571 -0.50 -0.00    +0.000 N 
DOCKED: ATOM     14  O   UNL     1      25.928 -15.950  -5.581 -1.13 +0.00    +0.000 OA
DOCKED: ATOM     15  O   UNL     1      24.848 -14.640  -3.422 -0.81 -0.00    +0.000 OA
DOCKED: ATOM     16  H   UNL     1      27.672 -15.590  -4.605 -0.02 -0.00    +0.000 HD
DOCKED: ENDBRANCH  11  12
DOCKED: ENDBRANCH  10  11
DOCKED: ENDBRANCH   9  10
DOCKED: ENDBRANCH   1   9
DOCKED: TORSDOF 7
DOCKED: TER
DOCKED: ENDMDL
________________________________________________________________________________


	BEGINNING GENETIC ALGORITHM DOCKING 3 of 100
Run: 3 Seed: 1074542186 382314105 [ Run 3 of 100 GA/GALS ]
Beginning LAMARCKIAN GENETIC ALGORITHM (LGA), with a maximum of 2500000 energy evaluations.

Final-Value: -13.028


	FINAL GENETIC ALGORITHM DOCKED STATE
	_______________________________________________


Detailed state:  trans 26.660 -17.743 -1.821 quatxyzw 0.868092 0.392099 0.111224 0.283378 center 0.010 0.634 0.018 ntor 7 27.1591 -13.3343 -109.0006 -116.0493 -30.0154 164.6266 72.9281
State:	 26.660 -17.743  -1.821   0.905  0.409  0.116 147.076     27.16  -13.33 -109.00 -116.05  -30.02  164.63   72.93

DOCKED: MODEL        3
DOCKED: USER    Run = 3
DOCKED: USER    DPF = ligand_dock.biased.dpf
DOCKED: USER  
DOCKED: USER    Estimated Free Energy of Binding    =  -10.40 kcal/mol  [=(1)+(2)+(3)-(4)]
DOCKED: USER    Estimated Inhibition Constant, Ki   =   23.74 nM (nanomolar)  [Temperature = 298.15 K]
DOCKED: USER    
DOCKED: USER    (1) Final Intermolecular Energy     =  -12.49 kcal/mol
DOCKED: USER        vdW + Hbond + desolv Energy     =  -12.49 kcal/mol
DOCKED: USER        Electrostatic Energy            =   +0.00 kcal/mol
DOCKED: USER    (2) Final Total Internal Energy     =   -0.54 kcal/mol
DOCKED: USER    (3) Torsional Free Energy           =   +2.09 kcal/mol
DOCKED: USER    (4) Unbound System's Energy  [=(2)] =   -0.54 kcal/mol
DOCKED: USER    
DOCKED: USER    
DOCKED: USER    NEWDPF move ligand.pdbqt
DOCKED: USER    NEWDPF about 0.010000 0.634000 0.018000
DOCKED: USER    NEWDPF tran0 26.660279 -17.743486 -1.820708
DOCKED: USER    NEWDPF quaternion0 0.868092 0.392099 0.111224 0.283378
DOCKED: USER    NEWDPF axisangle0 0.905198 0.408859 0.115978 147.076153
DOCKED: USER    NEWDPF quat0 0.905198 0.408859 0.115978 147.076153
DOCKED: USER    NEWDPF dihe0 27.16 -13.33 -109.00 -116.05 -30.02 164.63 72.93 
DOCKED: USER  keepresnum = 1 
DOCKED: USER  
DOCKED: REMARK  Name = 
DOCKED: REMARK  7 active torsions:
DOCKED: REMARK  status: ('A' for Active; 'I' for Inactive)
DOCKED: REMARK    1  A    between atoms: C_3  and  C_4
DOCKED: REMARK    2  A    between atoms: C_4  and  C_5
DOCKED: REMARK    3  A    between atoms: C_5  and  C_6
DOCKED: REMARK    4  A    between atoms: C_6  and  C_7
DOCKED: REMARK    5  A    between atoms: C_7  and  C_8
DOCKED: REMARK    6  A    between atoms: C_8  and  C_9
DOCKED: REMARK    7  A    between atoms: C_9  and  C_10
DOCKED: REMARK                            x       y       z     vdW  Elec       q    Type
DOCKED: REMARK                         _______ _______ _______ _____ _____    ______ ____
DOCKED: USER                              x       y       z     vdW  Elec       q    Type
DOCKED: USER                           _______ _______ _______ _____ _____    ______ ____
DOCKED: ROOT
DOCKED: ATOM      1  C   UNL     1      25.404 -16.065  -1.127 -0.53 -0.00    +0.000 C 
DOCKED: ENDROOT
DOCKED: BRANCH   1   2
DOCKED: ATOM      2  C   UNL     1      26.389 -16.774  -0.185 -0.43 -0.00    +0.000 C 
DOCKED: BRANCH   2   3
DOCKED: ATOM      3  C   UNL     1      27.727 -16.031  -0.130 -0.34 -0.00    +0.000 C 
DOCKED: BRANCH   3   6
DOCKED: ATOM      4  O   UNL     1      28.053 -13.443   2.608 -0.31 -0.00    +0.000 OA
DOCKED: ATOM      5  N   UNL     1      28.197 -14.594   1.910 -0.25 -0.00    +0.000 N 
DOCKED: ATOM      6  C   UNL     1      27.582 -14.746   0.630 -0.29 -0.00    +0.000 C 
DOCKED: ATOM      7  O   UNL     1      26.882 -13.813   0.153 -0.31 -0.00    +0.000 OA
DOCKED: ATOM      8  H   UNL     1      28.728 -15.332   2.288 -1.74 -0.00    +0.000 HD
DOCKED: ENDBRANCH   3   6
DOCKED: ENDBRANCH   2   3
DOCKED: ENDBRANCH   1   2
DOCKED: BRANCH   1   9
DOCKED: ATOM      9  C   UNL     1      24.301 -16.998  -1.656 -0.62 -0.00    +0.000 C 
DOCKED: BRANCH   9  10
DOCKED: ATOM     10  C   UNL     1      24.211 -18.365  -0.951 -0.77 -0.00    +0.000 C 
DOCKED: BRANCH  10  11
DOCKED: ATOM     11  C   UNL     1      23.045 -18.449   0.043 -0.74 -0.00    +0.000 C 
DOCKED: BRANCH  11  12
DOCKED: ATOM     12  C   UNL     1      21.738 -18.506  -0.688 -0.86 -0.00    +0.000 C 
DOCKED: ATOM     13  N   UNL     1      21.360 -19.688  -1.396 -0.64 -0.00    +0.000 N 
DOCKED: ATOM     14  O   UNL     1      20.187 -19.738  -2.072 -2.34 -0.00    +0.000 OA
DOCKED: ATOM     15  O   UNL     1      20.990 -17.492  -0.709 -2.08 -0.00    +0.000 OA
DOCKED: ATOM     16  H   UNL     1      21.955 -20.472  -1.394 -0.25 -0.00    +0.000 HD
DOCKED: ENDBRANCH  11  12
DOCKED: ENDBRANCH  10  11
DOCKED: ENDBRANCH   9  10
DOCKED: ENDBRANCH   1   9
DOCKED: TORSDOF 7
DOCKED: TER
DOCKED: ENDMDL
________________________________________________________________________________


	BEGINNING GENETIC ALGORITHM DOCKING 4 of 100
Run: 4 Seed: 2021673322 1614255269 [ Run 4 of 100 GA/GALS ]
Beginning LAMARCKIAN GENETIC ALGORITHM (LGA), with a maximum of 2500000 energy evaluations.

Final-Value: -12.596


	FINAL GENETIC ALGORITHM DOCKED STATE
	_______________________________________________


Detailed state:  trans 22.857 -17.972 -1.861 quatxyzw -0.718184 0.595684 -0.358758 -0.025768 center 0.010 0.634 0.018 ntor 7 169.3197 -177.0526 24.7250 165.3506 -84.4414 -146.0397 172.6897
State:	 22.857 -17.972  -1.861  -0.718  0.596 -0.359 -177.047    169.32 -177.05   24.72  165.35  -84.44 -146.04  172.69

DOCKED: MODEL        4
DOCKED: USER    Run = 4
DOCKED: USER    DPF = ligand_dock.biased.dpf
DOCKED: USER  
DOCKED: USER    Estimated Free Energy of Binding    =   -9.97 kcal/mol  [=(1)+(2)+(3)-(4)]
DOCKED: USER    Estimated Inhibition Constant, Ki   =   49.41 nM (nanomolar)  [Temperature = 298.15 K]
DOCKED: USER    
DOCKED: USER    (1) Final Intermolecular Energy     =  -12.06 kcal/mol
DOCKED: USER        vdW + Hbond + desolv Energy     =  -12.06 kcal/mol
DOCKED: USER        Electrostatic Energy            =   +0.00 kcal/mol
DOCKED: USER    (2) Final Total Internal Energy     =   -0.54 kcal/mol
DOCKED: USER    (3) Torsional Free Energy           =   +2.09 kcal/mol
DOCKED: USER    (4) Unbound System's Energy  [=(2)] =   -0.54 kcal/mol
DOCKED: USER    
DOCKED: USER    
DOCKED: USER    NEWDPF move ligand.pdbqt
DOCKED: USER    NEWDPF about 0.010000 0.634000 0.018000
DOCKED: USER    NEWDPF tran0 22.856908 -17.972304 -1.860893
DOCKED: USER    NEWDPF quaternion0 -0.718184 0.595684 -0.358758 -0.025768
DOCKED: USER    NEWDPF axisangle0 -0.718423 0.595882 -0.358877 -177.046930
DOCKED: USER    NEWDPF quat0 -0.718423 0.595882 -0.358877 -177.046930
DOCKED: USER    NEWDPF dihe0 169.32 -177.05 24.72 165.35 -84.44 -146.04 172.69 
DOCKED: USER  keepresnum = 1 
DOCKED: USER  
DOCKED: REMARK  Name = 
DOCKED: REMARK  7 active torsions:
DOCKED: REMARK  status: ('A' for Active; 'I' for Inactive)
DOCKED: REMARK    1  A    between atoms: C_3  and  C_4
DOCKED: REMARK    2  A    between atoms: C_4  and  C_5
DOCKED: REMARK    3  A    between atoms: C_5  and  C_6
DOCKED: REMARK    4  A    between atoms: C_6  and  C_7
DOCKED: REMARK    5  A    between atoms: C_7  and  C_8
DOCKED: REMARK    6  A    between atoms: C_8  and  C_9
DOCKED: REMARK    7  A    between atoms: C_9  and  C_10
DOCKED: REMARK                            x       y       z     vdW  Elec       q    Type
DOCKED: REMARK                         _______ _______ _______ _____ _____    ______ ____
DOCKED: USER                              x       y       z     vdW  Elec       q    Type
DOCKED: USER                           _______ _______ _______ _____ _____    ______ ____
DOCKED: ROOT
DOCKED: ATOM      1  C   UNL     1      24.880 -17.961  -0.975 -0.71 -0.00    +0.000 C 
DOCKED: ENDROOT
DOCKED: BRANCH   1   2
DOCKED: ATOM      2  C   UNL     1      23.631 -18.235  -0.123 -0.76 -0.00    +0.000 C 
DOCKED: BRANCH   2   3
DOCKED: ATOM      3  C   UNL     1      22.642 -19.132  -0.872 -0.79 -0.00    +0.000 C 
DOCKED: BRANCH   3   6
DOCKED: ATOM      4  O   UNL     1      19.335 -19.695   0.873 -0.79 -0.00    +0.000 OA
DOCKED: ATOM      5  N   UNL     1      20.601 -19.888   0.436 -0.69 -0.00    +0.000 N 
DOCKED: ATOM      6  C   UNL     1      21.246 -18.905  -0.375 -0.84 -0.00    +0.000 C 
DOCKED: ATOM      7  O   UNL     1      20.627 -17.858  -0.707 -2.35 -0.00    +0.000 OA
DOCKED: ATOM      8  H   UNL     1      21.081 -20.713   0.679 -0.56 -0.00    +0.000 HD
DOCKED: ENDBRANCH   3   6
DOCKED: ENDBRANCH   2   3
DOCKED: ENDBRANCH   1   2
DOCKED: BRANCH   1   9
DOCKED: ATOM      9  C   UNL     1      24.879 -16.559  -1.609 -0.61 -0.00    +0.000 C 
DOCKED: BRANCH   9  10
DOCKED: ATOM     10  C   UNL     1      25.935 -15.590  -1.048 -0.45 -0.00    +0.000 C 
DOCKED: BRANCH  10  11
DOCKED: ATOM     11  C   UNL     1      26.369 -14.524  -2.062 -0.35 -0.00    +0.000 C 
DOCKED: BRANCH  11  12
DOCKED: ATOM     12  C   UNL     1      25.773 -14.809  -3.407 -0.53 -0.00    +0.000 C 
DOCKED: ATOM     13  N   UNL     1      26.489 -15.596  -4.361 -0.52 -0.00    +0.000 N 
DOCKED: ATOM     14  O   UNL     1      25.961 -15.842  -5.583 -1.12 +0.00    +0.000 OA
DOCKED: ATOM     15  O   UNL     1      24.652 -14.317  -3.711 -0.96 -0.00    +0.000 OA
DOCKED: ATOM     16  H   UNL     1      27.372 -15.963  -4.128 -0.02 -0.00    +0.000 HD
DOCKED: ENDBRANCH  11  12
DOCKED: ENDBRANCH  10  11
DOCKED: ENDBRANCH   9  10
DOCKED: ENDBRANCH   1   9
DOCKED: TORSDOF 7
DOCKED: TER
DOCKED: ENDMDL
________________________________________________________________________________


	BEGINNING GENETIC ALGORITHM DOCKING 5 of 100
Run: 5 Seed: 141150269 679047428 [ Run 5 of 100 GA/GALS ]
Beginning LAMARCKIAN GENETIC ALGORITHM (LGA), with a maximum of 2500000 energy evaluations.

Final-Value: -12.947


	FINAL GENETIC ALGORITHM DOCKED STATE
	_______________________________________________


Detailed state:  trans 24.024 -17.883 -1.888 quatxyzw 0.549790 -0.579124 0.591064 0.113970 center 0.010 0.634 0.018 ntor 7 136.2388 153.7984 -2.4943 -11.8601 -99.6712 -130.9197 -25.4522
State:	 24.024 -17.883  -1.888   0.553 -0.583  0.595 166.912    136.24  153.80   -2.49  -11.86  -99.67 -130.92  -25.45

DOCKED: MODEL        5
DOCKED: USER    Run = 5
DOCKED: USER    DPF = ligand_dock.biased.dpf
DOCKED: USER  
DOCKED: USER    Estimated Free Energy of Binding    =  -10.39 kcal/mol  [=(1)+(2)+(3)-(4)]
DOCKED: USER    Estimated Inhibition Constant, Ki   =   24.06 nM (nanomolar)  [Temperature = 298.15 K]
DOCKED: USER    
DOCKED: USER    (1) Final Intermolecular Energy     =  -12.48 kcal/mol
DOCKED: USER        vdW + Hbond + desolv Energy     =  -12.48 kcal/mol
DOCKED: USER        Electrostatic Energy            =   +0.00 kcal/mol
DOCKED: USER    (2) Final Total Internal Energy     =   -0.46 kcal/mol
DOCKED: USER    (3) Torsional Free Energy           =   +2.09 kcal/mol
DOCKED: USER    (4) Unbound System's Energy  [=(2)] =   -0.46 kcal/mol
DOCKED: USER    
DOCKED: USER    
DOCKED: USER    NEWDPF move ligand.pdbqt
DOCKED: USER    NEWDPF about 0.010000 0.634000 0.018000
DOCKED: USER    NEWDPF tran0 24.024096 -17.883373 -1.888084
DOCKED: USER    NEWDPF quaternion0 0.549790 -0.579124 0.591064 0.113970
DOCKED: USER    NEWDPF axisangle0 0.553396 -0.582922 0.594941 166.911568
DOCKED: USER    NEWDPF quat0 0.553396 -0.582922 0.594941 166.911568
DOCKED: USER    NEWDPF dihe0 136.24 153.80 -2.49 -11.86 -99.67 -130.92 -25.45 
DOCKED: USER  keepresnum = 1 
DOCKED: USER  
DOCKED: REMARK  Name = 
DOCKED: REMARK  7 active torsions:
DOCKED: REMARK  status: ('A' for Active; 'I' for Inactive)
DOCKED: REMARK    1  A    between atoms: C_3  and  C_4
DOCKED: REMARK    2  A    between atoms: C_4  and  C_5
DOCKED: REMARK    3  A    between atoms: C_5  and  C_6
DOCKED: REMARK    4  A    between atoms: C_6  and  C_7
DOCKED: REMARK    5  A    between atoms: C_7  and  C_8
DOCKED: REMARK    6  A    between atoms: C_8  and  C_9
DOCKED: REMARK    7  A    between atoms: C_9  and  C_10
DOCKED: REMARK                            x       y       z     vdW  Elec       q    Type
DOCKED: REMARK                         _______ _______ _______ _____ _____    ______ ____
DOCKED: USER                              x       y       z     vdW  Elec       q    Type
DOCKED: USER                           _______ _______ _______ _____ _____    ______ ____
DOCKED: ROOT
DOCKED: ATOM      1  C   UNL     1      25.250 -17.867  -0.051 -0.63 -0.00    +0.000 C 
DOCKED: ENDROOT
DOCKED: BRANCH   1   2
DOCKED: ATOM      2  C   UNL     1      23.715 -17.885   0.007 -0.65 -0.00    +0.000 C 
DOCKED: BRANCH   2   3
DOCKED: ATOM      3  C   UNL     1      23.125 -18.507  -1.262 -0.79 -0.00    +0.000 C 
DOCKED: BRANCH   3   6
DOCKED: ATOM      4  O   UNL     1      19.562 -19.729  -1.607 -2.14 -0.00    +0.000 OA
DOCKED: ATOM      5  N   UNL     1      20.915 -19.691  -1.666 -0.74 -0.00    +0.000 N 
DOCKED: ATOM      6  C   UNL     1      21.629 -18.554  -1.176 -0.66 -0.00    +0.000 C 
DOCKED: ATOM      7  O   UNL     1      20.999 -17.569  -0.706 -2.10 -0.00    +0.000 OA
DOCKED: ATOM      8  H   UNL     1      21.409 -20.451  -2.048 -0.48 -0.00    +0.000 HD
DOCKED: ENDBRANCH   3   6
DOCKED: ENDBRANCH   2   3
DOCKED: ENDBRANCH   1   2
DOCKED: BRANCH   1   9
DOCKED: ATOM      9  C   UNL     1      25.811 -16.608  -0.735 -0.54 -0.00    +0.000 C 
DOCKED: BRANCH   9  10
DOCKED: ATOM     10  C   UNL     1      25.938 -16.700  -2.266 -0.49 -0.00    +0.000 C 
DOCKED: BRANCH  10  11
DOCKED: ATOM     11  C   UNL     1      26.209 -15.342  -2.927 -0.48 -0.00    +0.000 C 
DOCKED: BRANCH  11  12
DOCKED: ATOM     12  C   UNL     1      26.428 -15.512  -4.400 -0.51 -0.00    +0.000 C 
DOCKED: ATOM     13  N   UNL     1      27.656 -15.093  -4.999 -0.41 -0.00    +0.000 N 
DOCKED: ATOM     14  O   UNL     1      27.850 -15.229  -6.332 -0.87 +0.00    +0.000 OA
DOCKED: ATOM     15  O   UNL     1      25.507 -15.988  -5.117 -1.00 -0.00    +0.000 OA
DOCKED: ATOM     16  H   UNL     1      28.365 -14.704  -4.439 -0.00 -0.00    +0.000 HD
DOCKED: ENDBRANCH  11  12
DOCKED: ENDBRANCH  10  11
DOCKED: ENDBRANCH   9  10
DOCKED: ENDBRANCH   1   9
DOCKED: TORSDOF 7
DOCKED: TER
DOCKED: ENDMDL
________________________________________________________________________________


	BEGINNING GENETIC ALGORITHM DOCKING 6 of 100
Run: 6 Seed: 1428313996 2127687311 [ Run 6 of 100 GA/GALS ]
Beginning LAMARCKIAN GENETIC ALGORITHM (LGA), with a maximum of 2500000 energy evaluations.

Final-Value: -12.268


	FINAL GENETIC ALGORITHM DOCKED STATE
	_______________________________________________


Detailed state:  trans 23.785 -15.982 0.557 quatxyzw 0.280173 -0.819917 -0.497845 -0.037286 center 0.010 0.634 0.018 ntor 7 84.6927 -174.0295 80.5311 -35.6183 35.7400 99.2618 -164.3061
State:	 23.785 -15.982   0.557   0.280 -0.820 -0.498 -175.726     84.69 -174.03   80.53  -35.62   35.74   99.26 -164.31

DOCKED: MODEL        6
DOCKED: USER    Run = 6
DOCKED: USER    DPF = ligand_dock.biased.dpf
DOCKED: USER  
DOCKED: USER    Estimated Free Energy of Binding    =   -9.73 kcal/mol  [=(1)+(2)+(3)-(4)]
DOCKED: USER    Estimated Inhibition Constant, Ki   =   73.35 nM (nanomolar)  [Temperature = 298.15 K]
DOCKED: USER    
DOCKED: USER    (1) Final Intermolecular Energy     =  -11.82 kcal/mol
DOCKED: USER        vdW + Hbond + desolv Energy     =  -11.82 kcal/mol
DOCKED: USER        Electrostatic Energy            =   +0.00 kcal/mol
DOCKED: USER    (2) Final Total Internal Energy     =   -0.45 kcal/mol
DOCKED: USER    (3) Torsional Free Energy           =   +2.09 kcal/mol
DOCKED: USER    (4) Unbound System's Energy  [=(2)] =   -0.45 kcal/mol
DOCKED: USER    
DOCKED: USER    
DOCKED: USER    NEWDPF move ligand.pdbqt
DOCKED: USER    NEWDPF about 0.010000 0.634000 0.018000
DOCKED: USER    NEWDPF tran0 23.785349 -15.981990 0.557161
DOCKED: USER    NEWDPF quaternion0 0.280173 -0.819917 -0.497845 -0.037286
DOCKED: USER    NEWDPF axisangle0 0.280368 -0.820487 -0.498191 -175.726382
DOCKED: USER    NEWDPF quat0 0.280368 -0.820487 -0.498191 -175.726382
DOCKED: USER    NEWDPF dihe0 84.69 -174.03 80.53 -35.62 35.74 99.26 -164.31 
DOCKED: USER  keepresnum = 1 
DOCKED: USER  
DOCKED: REMARK  Name = 
DOCKED: REMARK  7 active torsions:
DOCKED: REMARK  status: ('A' for Active; 'I' for Inactive)
DOCKED: REMARK    1  A    between atoms: C_3  and  C_4
DOCKED: REMARK    2  A    between atoms: C_4  and  C_5
DOCKED: REMARK    3  A    between atoms: C_5  and  C_6
DOCKED: REMARK    4  A    between atoms: C_6  and  C_7
DOCKED: REMARK    5  A    between atoms: C_7  and  C_8
DOCKED: REMARK    6  A    between atoms: C_8  and  C_9
DOCKED: REMARK    7  A    between atoms: C_9  and  C_10
DOCKED: REMARK                            x       y       z     vdW  Elec       q    Type
DOCKED: REMARK                         _______ _______ _______ _____ _____    ______ ____
DOCKED: USER                              x       y       z     vdW  Elec       q    Type
DOCKED: USER                           _______ _______ _______ _____ _____    ______ ____
DOCKED: ROOT
DOCKED: ATOM      1  C   UNL     1      24.116 -16.602  -1.536 -0.46 -0.00    +0.000 C 
DOCKED: ENDROOT
DOCKED: BRANCH   1   2
DOCKED: ATOM      2  C   UNL     1      23.705 -17.613  -0.454 -0.73 -0.00    +0.000 C 
DOCKED: BRANCH   2   3
DOCKED: ATOM      3  C   UNL     1      23.123 -18.882  -1.081 -0.81 -0.00    +0.000 C 
DOCKED: BRANCH   3   6
DOCKED: ATOM      4  O   UNL     1      19.513 -19.734  -1.818 -2.14 -0.00    +0.000 OA
DOCKED: ATOM      5  N   UNL     1      20.866 -19.783  -1.817 -0.66 -0.00    +0.000 N 
DOCKED: ATOM      6  C   UNL     1      21.625 -18.836  -1.064 -0.83 -0.00    +0.000 C 
DOCKED: ATOM      7  O   UNL     1      21.035 -17.934  -0.411 -1.95 -0.00    +0.000 OA
DOCKED: ATOM      8  H   UNL     1      21.330 -20.476  -2.340 -0.53 -0.00    +0.000 HD
DOCKED: ENDBRANCH   3   6
DOCKED: ENDBRANCH   2   3
DOCKED: ENDBRANCH   1   2
DOCKED: BRANCH   1   9
DOCKED: ATOM      9  C   UNL     1      25.477 -15.941  -1.255 -0.52 -0.00    +0.000 C 
DOCKED: BRANCH   9  10
DOCKED: ATOM     10  C   UNL     1      26.430 -15.873  -2.463 -0.46 -0.00    +0.000 C 
DOCKED: BRANCH  10  11
DOCKED: ATOM     11  C   UNL     1      25.703 -15.581  -3.783 -0.57 -0.00    +0.000 C 
DOCKED: BRANCH  11  12
DOCKED: ATOM     12  C   UNL     1      26.616 -14.872  -4.736 -0.52 -0.00    +0.000 C 
DOCKED: ATOM     13  N   UNL     1      26.700 -13.446  -4.728 -0.32 -0.00    +0.000 N 
DOCKED: ATOM     14  O   UNL     1      27.511 -12.801  -5.600 -0.26 -0.00    +0.000 OA
DOCKED: ATOM     15  O   UNL     1      27.282 -15.537  -5.575 -1.07 +0.00    +0.000 OA
DOCKED: ATOM     16  H   UNL     1      26.165 -12.928  -4.085 -0.01 -0.00    +0.000 HD
DOCKED: ENDBRANCH  11  12
DOCKED: ENDBRANCH  10  11
DOCKED: ENDBRANCH   9  10
DOCKED: ENDBRANCH   1   9
DOCKED: TORSDOF 7
DOCKED: TER
DOCKED: ENDMDL
________________________________________________________________________________


	BEGINNING GENETIC ALGORITHM DOCKING 7 of 100
Run: 7 Seed: 1991028456 1394214188 [ Run 7 of 100 GA/GALS ]
Beginning LAMARCKIAN GENETIC ALGORITHM (LGA), with a maximum of 2500000 energy evaluations.

Final-Value: -13.302


	FINAL GENETIC ALGORITHM DOCKED STATE
	_______________________________________________


Detailed state:  trans 23.979 -18.616 -2.910 quatxyzw -0.746046 0.386756 -0.472895 -0.264964 center 0.010 0.634 0.018 ntor 7 -54.3203 149.4763 -45.2618 -153.3228 119.4555 167.2531 -162.6395
State:	 23.979 -18.616  -2.910  -0.774  0.401 -0.490 -149.270    -54.32  149.48  -45.26 -153.32  119.46  167.25 -162.64

DOCKED: MODEL        7
DOCKED: USER    Run = 7
DOCKED: USER    DPF = ligand_dock.biased.dpf
DOCKED: USER  
DOCKED: USER    Estimated Free Energy of Binding    =  -10.60 kcal/mol  [=(1)+(2)+(3)-(4)]
DOCKED: USER    Estimated Inhibition Constant, Ki   =   16.98 nM (nanomolar)  [Temperature = 298.15 K]
DOCKED: USER    
DOCKED: USER    (1) Final Intermolecular Energy     =  -12.69 kcal/mol
DOCKED: USER        vdW + Hbond + desolv Energy     =  -12.69 kcal/mol
DOCKED: USER        Electrostatic Energy            =   +0.00 kcal/mol
DOCKED: USER    (2) Final Total Internal Energy     =   -0.61 kcal/mol
DOCKED: USER    (3) Torsional Free Energy           =   +2.09 kcal/mol
DOCKED: USER    (4) Unbound System's Energy  [=(2)] =   -0.61 kcal/mol
DOCKED: USER    
DOCKED: USER    
DOCKED: USER    NEWDPF move ligand.pdbqt
DOCKED: USER    NEWDPF about 0.010000 0.634000 0.018000
DOCKED: USER    NEWDPF tran0 23.978621 -18.615699 -2.909849
DOCKED: USER    NEWDPF quaternion0 -0.746046 0.386756 -0.472895 -0.264964
DOCKED: USER    NEWDPF axisangle0 -0.773699 0.401092 -0.490423 -149.270389
DOCKED: USER    NEWDPF quat0 -0.773699 0.401092 -0.490423 -149.270389
DOCKED: USER    NEWDPF dihe0 -54.32 149.48 -45.26 -153.32 119.46 167.25 -162.64 
DOCKED: USER  keepresnum = 1 
DOCKED: USER  
DOCKED: REMARK  Name = 
DOCKED: REMARK  7 active torsions:
DOCKED: REMARK  status: ('A' for Active; 'I' for Inactive)
DOCKED: REMARK    1  A    between atoms: C_3  and  C_4
DOCKED: REMARK    2  A    between atoms: C_4  and  C_5
DOCKED: REMARK    3  A    between atoms: C_5  and  C_6
DOCKED: REMARK    4  A    between atoms: C_6  and  C_7
DOCKED: REMARK    5  A    between atoms: C_7  and  C_8
DOCKED: REMARK    6  A    between atoms: C_8  and  C_9
DOCKED: REMARK    7  A    between atoms: C_9  and  C_10
DOCKED: REMARK                            x       y       z     vdW  Elec       q    Type
DOCKED: REMARK                         _______ _______ _______ _____ _____    ______ ____
DOCKED: USER                              x       y       z     vdW  Elec       q    Type
DOCKED: USER                           _______ _______ _______ _____ _____    ______ ____
DOCKED: ROOT
DOCKED: ATOM      1  C   UNL     1      25.194 -17.823  -1.245 -0.66 -0.00    +0.000 C 
DOCKED: ENDROOT
DOCKED: BRANCH   1   2
DOCKED: ATOM      2  C   UNL     1      24.012 -18.773  -0.996 -0.75 -0.00    +0.000 C 
DOCKED: BRANCH   2   3
DOCKED: ATOM      3  C   UNL     1      22.903 -18.073  -0.206 -0.78 -0.00    +0.000 C 
DOCKED: BRANCH   3   6
DOCKED: ATOM      4  O   UNL     1      20.137 -19.888  -2.038 -2.30 -0.00    +0.000 OA
DOCKED: ATOM      5  N   UNL     1      21.342 -19.615  -1.484 -0.66 -0.00    +0.000 N 
DOCKED: ATOM      6  C   UNL     1      21.561 -18.380  -0.801 -0.82 -0.00    +0.000 C 
DOCKED: ATOM      7  O   UNL     1      20.637 -17.526  -0.731 -2.11 +0.00    +0.000 OA
DOCKED: ATOM      8  H   UNL     1      22.072 -20.272  -1.553 -0.36 -0.00    +0.000 HD
DOCKED: ENDBRANCH   3   6
DOCKED: ENDBRANCH   2   3
DOCKED: ENDBRANCH   1   2
DOCKED: BRANCH   1   9
DOCKED: ATOM      9  C   UNL     1      24.771 -16.495  -1.897 -0.59 -0.00    +0.000 C 
DOCKED: BRANCH   9  10
DOCKED: ATOM     10  C   UNL     1      25.417 -15.237  -1.289 -0.29 -0.00    +0.000 C 
DOCKED: BRANCH  10  11
DOCKED: ATOM     11  C   UNL     1      26.505 -14.631  -2.185 -0.35 -0.00    +0.000 C 
DOCKED: BRANCH  11  12
DOCKED: ATOM     12  C   UNL     1      26.153 -14.812  -3.631 -0.51 -0.00    +0.000 C 
DOCKED: ATOM     13  N   UNL     1      27.070 -15.451  -4.521 -0.45 -0.00    +0.000 N 
DOCKED: ATOM     14  O   UNL     1      26.763 -15.601  -5.831 -1.06 +0.00    +0.000 OA
DOCKED: ATOM     15  O   UNL     1      25.060 -14.362  -4.069 -1.00 -0.00    +0.000 OA
DOCKED: ATOM     16  H   UNL     1      27.931 -15.785  -4.180 -0.02 -0.00    +0.000 HD
DOCKED: ENDBRANCH  11  12
DOCKED: ENDBRANCH  10  11
DOCKED: ENDBRANCH   9  10
DOCKED: ENDBRANCH   1   9
DOCKED: TORSDOF 7
DOCKED: TER
DOCKED: ENDMDL
________________________________________________________________________________


	BEGINNING GENETIC ALGORITHM DOCKING 8 of 100
Run: 8 Seed: 1102142247 1437679315 [ Run 8 of 100 GA/GALS ]
Beginning LAMARCKIAN GENETIC ALGORITHM (LGA), with a maximum of 2500000 energy evaluations.

Final-Value: -12.279


	FINAL GENETIC ALGORITHM DOCKED STATE
	_______________________________________________


Detailed state:  trans 24.846 -16.253 0.049 quatxyzw 0.164649 0.019516 0.340775 -0.925409 center 0.010 0.634 0.018 ntor 7 -177.9241 -171.6154 7.4905 -47.1211 136.0724 165.3756 0.2380
State:	 24.846 -16.253   0.049   0.434  0.051  0.899 -44.540   -177.92 -171.62    7.49  -47.12  136.07  165.38    0.24

DOCKED: MODEL        8
DOCKED: USER    Run = 8
DOCKED: USER    DPF = ligand_dock.biased.dpf
DOCKED: USER  
DOCKED: USER    Estimated Free Energy of Binding    =   -9.62 kcal/mol  [=(1)+(2)+(3)-(4)]
DOCKED: USER    Estimated Inhibition Constant, Ki   =   88.37 nM (nanomolar)  [Temperature = 298.15 K]
DOCKED: USER    
DOCKED: USER    (1) Final Intermolecular Energy     =  -11.71 kcal/mol
DOCKED: USER        vdW + Hbond + desolv Energy     =  -11.71 kcal/mol
DOCKED: USER        Electrostatic Energy            =   +0.00 kcal/mol
DOCKED: USER    (2) Final Total Internal Energy     =   -0.57 kcal/mol
DOCKED: USER    (3) Torsional Free Energy           =   +2.09 kcal/mol
DOCKED: USER    (4) Unbound System's Energy  [=(2)] =   -0.57 kcal/mol
DOCKED: USER    
DOCKED: USER    
DOCKED: USER    NEWDPF move ligand.pdbqt
DOCKED: USER    NEWDPF about 0.010000 0.634000 0.018000
DOCKED: USER    NEWDPF tran0 24.845687 -16.252646 0.048735
DOCKED: USER    NEWDPF quaternion0 0.164649 0.019516 0.340775 -0.925409
DOCKED: USER    NEWDPF axisangle0 0.434465 0.051497 0.899216 -44.539678
DOCKED: USER    NEWDPF quat0 0.434465 0.051497 0.899216 -44.539678
DOCKED: USER    NEWDPF dihe0 -177.92 -171.62 7.49 -47.12 136.07 165.38 0.24 
DOCKED: USER  keepresnum = 1 
DOCKED: USER  
DOCKED: REMARK  Name = 
DOCKED: REMARK  7 active torsions:
DOCKED: REMARK  status: ('A' for Active; 'I' for Inactive)
DOCKED: REMARK    1  A    between atoms: C_3  and  C_4
DOCKED: REMARK    2  A    between atoms: C_4  and  C_5
DOCKED: REMARK    3  A    between atoms: C_5  and  C_6
DOCKED: REMARK    4  A    between atoms: C_6  and  C_7
DOCKED: REMARK    5  A    between atoms: C_7  and  C_8
DOCKED: REMARK    6  A    between atoms: C_8  and  C_9
DOCKED: REMARK    7  A    between atoms: C_9  and  C_10
DOCKED: REMARK                            x       y       z     vdW  Elec       q    Type
DOCKED: REMARK                         _______ _______ _______ _____ _____    ______ ____
DOCKED: USER                              x       y       z     vdW  Elec       q    Type
DOCKED: USER                           _______ _______ _______ _____ _____    ______ ____
DOCKED: ROOT
DOCKED: ATOM      1  C   UNL     1      26.600 -17.577  -0.165 -0.57 -0.00    +0.000 C 
DOCKED: ENDROOT
DOCKED: BRANCH   1   2
DOCKED: ATOM      2  C   UNL     1      26.435 -16.315  -1.027 -0.48 -0.00    +0.000 C 
DOCKED: BRANCH   2   3
DOCKED: ATOM      3  C   UNL     1      25.876 -16.666  -2.409 -0.47 -0.00    +0.000 C 
DOCKED: BRANCH   3   6
DOCKED: ATOM      4  O   UNL     1      24.779 -13.556  -4.260 -0.88 -0.00    +0.000 OA
DOCKED: ATOM      5  N   UNL     1      24.759 -14.629  -3.436 -0.40 -0.00    +0.000 N 
DOCKED: ATOM      6  C   UNL     1      25.909 -15.466  -3.308 -0.55 -0.00    +0.000 C 
DOCKED: ATOM      7  O   UNL     1      26.945 -15.219  -3.982 -0.44 -0.00    +0.000 OA
DOCKED: ATOM      8  H   UNL     1      23.945 -14.835  -2.921 -0.03 -0.00    +0.000 HD
DOCKED: ENDBRANCH   3   6
DOCKED: ENDBRANCH   2   3
DOCKED: ENDBRANCH   1   2
DOCKED: BRANCH   1   9
DOCKED: ATOM      9  C   UNL     1      25.482 -18.609  -0.390 -0.61 -0.00    +0.000 C 
DOCKED: BRANCH   9  10
DOCKED: ATOM     10  C   UNL     1      24.063 -18.117  -0.049 -0.70 -0.00    +0.000 C 
DOCKED: BRANCH  10  11
DOCKED: ATOM     11  C   UNL     1      23.230 -17.781  -1.293 -0.70 -0.00    +0.000 C 
DOCKED: BRANCH  11  12
DOCKED: ATOM     12  C   UNL     1      21.814 -18.235  -1.112 -0.67 -0.00    +0.000 C 
DOCKED: ATOM     13  N   UNL     1      21.439 -19.574  -1.441 -0.66 -0.00    +0.000 N 
DOCKED: ATOM     14  O   UNL     1      20.157 -19.984  -1.296 -2.09 -0.00    +0.000 OA
DOCKED: ATOM     15  O   UNL     1      20.943 -17.419  -0.706 -2.01 +0.00    +0.000 OA
DOCKED: ATOM     16  H   UNL     1      22.117 -20.204  -1.776 -0.44 -0.00    +0.000 HD
DOCKED: ENDBRANCH  11  12
DOCKED: ENDBRANCH  10  11
DOCKED: ENDBRANCH   9  10
DOCKED: ENDBRANCH   1   9
DOCKED: TORSDOF 7
DOCKED: TER
DOCKED: ENDMDL
________________________________________________________________________________


	BEGINNING GENETIC ALGORITHM DOCKING 9 of 100
Run: 9 Seed: 476955365 29371678 [ Run 9 of 100 GA/GALS ]
Beginning LAMARCKIAN GENETIC ALGORITHM (LGA), with a maximum of 2500000 energy evaluations.

Final-Value: -12.944


	FINAL GENETIC ALGORITHM DOCKED STATE
	_______________________________________________


Detailed state:  trans 24.065 -16.613 -1.235 quatxyzw -0.165159 0.178327 0.406712 -0.880629 center 0.010 0.634 0.018 ntor 7 -135.4222 -171.6123 -28.4316 -39.1076 -57.1495 128.0674 -3.9720
State:	 24.065 -16.613  -1.235  -0.349  0.376  0.858 -56.563   -135.42 -171.61  -28.43  -39.11  -57.15  128.07   -3.97

DOCKED: MODEL        9
DOCKED: USER    Run = 9
DOCKED: USER    DPF = ligand_dock.biased.dpf
DOCKED: USER  
DOCKED: USER    Estimated Free Energy of Binding    =  -10.42 kcal/mol  [=(1)+(2)+(3)-(4)]
DOCKED: USER    Estimated Inhibition Constant, Ki   =   22.86 nM (nanomolar)  [Temperature = 298.15 K]
DOCKED: USER    
DOCKED: USER    (1) Final Intermolecular Energy     =  -12.51 kcal/mol
DOCKED: USER        vdW + Hbond + desolv Energy     =  -12.51 kcal/mol
DOCKED: USER        Electrostatic Energy            =   +0.00 kcal/mol
DOCKED: USER    (2) Final Total Internal Energy     =   -0.43 kcal/mol
DOCKED: USER    (3) Torsional Free Energy           =   +2.09 kcal/mol
DOCKED: USER    (4) Unbound System's Energy  [=(2)] =   -0.43 kcal/mol
DOCKED: USER    
DOCKED: USER    
DOCKED: USER    NEWDPF move ligand.pdbqt
DOCKED: USER    NEWDPF about 0.010000 0.634000 0.018000
DOCKED: USER    NEWDPF tran0 24.064742 -16.613395 -1.234736
DOCKED: USER    NEWDPF quaternion0 -0.165159 0.178327 0.406712 -0.880629
DOCKED: USER    NEWDPF axisangle0 -0.348579 0.376370 0.858393 -56.563403
DOCKED: USER    NEWDPF quat0 -0.348579 0.376370 0.858393 -56.563403
DOCKED: USER    NEWDPF dihe0 -135.42 -171.61 -28.43 -39.11 -57.15 128.07 -3.97 
DOCKED: USER  keepresnum = 1 
DOCKED: USER  
DOCKED: REMARK  Name = 
DOCKED: REMARK  7 active torsions:
DOCKED: REMARK  status: ('A' for Active; 'I' for Inactive)
DOCKED: REMARK    1  A    between atoms: C_3  and  C_4
DOCKED: REMARK    2  A    between atoms: C_4  and  C_5
DOCKED: REMARK    3  A    between atoms: C_5  and  C_6
DOCKED: REMARK    4  A    between atoms: C_6  and  C_7
DOCKED: REMARK    5  A    between atoms: C_7  and  C_8
DOCKED: REMARK    6  A    between atoms: C_8  and  C_9
DOCKED: REMARK    7  A    between atoms: C_9  and  C_10
DOCKED: REMARK                            x       y       z     vdW  Elec       q    Type
DOCKED: REMARK                         _______ _______ _______ _____ _____    ______ ____
DOCKED: USER                              x       y       z     vdW  Elec       q    Type
DOCKED: USER                           _______ _______ _______ _____ _____    ______ ____
DOCKED: ROOT
DOCKED: ATOM      1  C   UNL     1      26.073 -17.396  -0.754 -0.61 -0.00    +0.000 C 
DOCKED: ENDROOT
DOCKED: BRANCH   1   2
DOCKED: ATOM      2  C   UNL     1      25.661 -17.072  -2.198 -0.49 -0.00    +0.000 C 
DOCKED: BRANCH   2   3
DOCKED: ATOM      3  C   UNL     1      25.477 -15.565  -2.391 -0.52 -0.00    +0.000 C 
DOCKED: BRANCH   3   6
DOCKED: ATOM      4  O   UNL     1      27.199 -15.224  -5.741 -1.08 +0.00    +0.000 OA
DOCKED: ATOM      5  N   UNL     1      26.950 -15.582  -4.459 -0.46 -0.00    +0.000 N 
DOCKED: ATOM      6  C   UNL     1      25.739 -15.182  -3.817 -0.58 -0.00    +0.000 C 
DOCKED: ATOM      7  O   UNL     1      24.902 -14.472  -4.437 -1.03 -0.00    +0.000 OA
DOCKED: ATOM      8  H   UNL     1      27.610 -16.122  -3.966 -0.02 -0.00    +0.000 HD
DOCKED: ENDBRANCH   3   6
DOCKED: ENDBRANCH   2   3
DOCKED: ENDBRANCH   1   2
DOCKED: BRANCH   1   9
DOCKED: ATOM      9  C   UNL     1      25.216 -18.505  -0.119 -0.57 -0.00    +0.000 C 
DOCKED: BRANCH   9  10
DOCKED: ATOM     10  C   UNL     1      23.733 -18.146   0.086 -0.67 -0.00    +0.000 C 
DOCKED: BRANCH  10  11
DOCKED: ATOM     11  C   UNL     1      22.973 -17.961  -1.234 -0.71 -0.00    +0.000 C 
DOCKED: BRANCH  11  12
DOCKED: ATOM     12  C   UNL     1      21.541 -18.371  -1.074 -0.74 -0.00    +0.000 C 
DOCKED: ATOM     13  N   UNL     1      21.158 -19.736  -1.250 -0.71 -0.00    +0.000 N 
DOCKED: ATOM     14  O   UNL     1      19.862 -20.108  -1.123 -1.93 -0.00    +0.000 OA
DOCKED: ATOM     15  O   UNL     1      20.666 -17.499  -0.824 -2.09 +0.00    +0.000 OA
DOCKED: ATOM     16  H   UNL     1      21.841 -20.412  -1.464 -0.30 -0.00    +0.000 HD
DOCKED: ENDBRANCH  11  12
DOCKED: ENDBRANCH  10  11
DOCKED: ENDBRANCH   9  10
DOCKED: ENDBRANCH   1   9
DOCKED: TORSDOF 7
DOCKED: TER
DOCKED: ENDMDL
________________________________________________________________________________


	BEGINNING GENETIC ALGORITHM DOCKING 10 of 100
Run: 10 Seed: 1555823957 187731474 [ Run 10 of 100 GA/GALS ]
Beginning LAMARCKIAN GENETIC ALGORITHM (LGA), with a maximum of 2500000 energy evaluations.

Final-Value: -11.939


	FINAL GENETIC ALGORITHM DOCKED STATE
	_______________________________________________


Detailed state:  trans 24.047 -15.500 -0.157 quatxyzw -0.279367 0.909042 0.305429 0.048052 center 0.010 0.634 0.018 ntor 7 70.9563 81.1367 89.9560 85.0462 32.0216 179.0889 -130.5705
State:	 24.047 -15.500  -0.157  -0.280  0.910  0.306 174.492     70.96   81.14   89.96   85.05   32.02  179.09 -130.57

DOCKED: MODEL       10
DOCKED: USER    Run = 10
DOCKED: USER    DPF = ligand_dock.biased.dpf
DOCKED: USER  
DOCKED: USER    Estimated Free Energy of Binding    =   -9.34 kcal/mol  [=(1)+(2)+(3)-(4)]
DOCKED: USER    Estimated Inhibition Constant, Ki   =  141.54 nM (nanomolar)  [Temperature = 298.15 K]
DOCKED: USER    
DOCKED: USER    (1) Final Intermolecular Energy     =  -11.43 kcal/mol
DOCKED: USER        vdW + Hbond + desolv Energy     =  -11.43 kcal/mol
DOCKED: USER        Electrostatic Energy            =   +0.00 kcal/mol
DOCKED: USER    (2) Final Total Internal Energy     =   -0.51 kcal/mol
DOCKED: USER    (3) Torsional Free Energy           =   +2.09 kcal/mol
DOCKED: USER    (4) Unbound System's Energy  [=(2)] =   -0.51 kcal/mol
DOCKED: USER    
DOCKED: USER    
DOCKED: USER    NEWDPF move ligand.pdbqt
DOCKED: USER    NEWDPF about 0.010000 0.634000 0.018000
DOCKED: USER    NEWDPF tran0 24.047064 -15.500027 -0.156571
DOCKED: USER    NEWDPF quaternion0 -0.279367 0.909042 0.305429 0.048052
DOCKED: USER    NEWDPF axisangle0 -0.279690 0.910094 0.305783 174.491499
DOCKED: USER    NEWDPF quat0 -0.279690 0.910094 0.305783 174.491499
DOCKED: USER    NEWDPF dihe0 70.96 81.14 89.96 85.05 32.02 179.09 -130.57 
DOCKED: USER  keepresnum = 1 
DOCKED: USER  
DOCKED: REMARK  Name = 
DOCKED: REMARK  7 active torsions:
DOCKED: REMARK  status: ('A' for Active; 'I' for Inactive)
DOCKED: REMARK    1  A    between atoms: C_3  and  C_4
DOCKED: REMARK    2  A    between atoms: C_4  and  C_5
DOCKED: REMARK    3  A    between atoms: C_5  and  C_6
DOCKED: REMARK    4  A    between atoms: C_6  and  C_7
DOCKED: REMARK    5  A    between atoms: C_7  and  C_8
DOCKED: REMARK    6  A    between atoms: C_8  and  C_9
DOCKED: REMARK    7  A    between atoms: C_9  and  C_10
DOCKED: REMARK                            x       y       z     vdW  Elec       q    Type
DOCKED: REMARK                         _______ _______ _______ _____ _____    ______ ____
DOCKED: USER                              x       y       z     vdW  Elec       q    Type
DOCKED: USER                           _______ _______ _______ _____ _____    ______ ____
DOCKED: ROOT
DOCKED: ATOM      1  C   UNL     1      24.533 -16.912  -1.783 -0.62 -0.00    +0.000 C 
DOCKED: ENDROOT
DOCKED: BRANCH   1   2
DOCKED: ATOM      2  C   UNL     1      23.983 -17.399  -0.434 -0.66 -0.00    +0.000 C 
DOCKED: BRANCH   2   3
DOCKED: ATOM      3  C   UNL     1      23.320 -18.772  -0.575 -0.80 -0.00    +0.000 C 
DOCKED: BRANCH   3   6
DOCKED: ATOM      4  O   UNL     1      19.877 -19.518  -1.951 -2.06 -0.00    +0.000 OA
DOCKED: ATOM      5  N   UNL     1      21.182 -19.659  -1.621 -0.65 -0.00    +0.000 N 
DOCKED: ATOM      6  C   UNL     1      21.869 -18.620  -0.921 -0.83 -0.00    +0.000 C 
DOCKED: ATOM      7  O   UNL     1      21.264 -17.554  -0.625 -1.78 -0.00    +0.000 OA
DOCKED: ATOM      8  H   UNL     1      21.662 -20.483  -1.866 -0.43 -0.00    +0.000 HD
DOCKED: ENDBRANCH   3   6
DOCKED: ENDBRANCH   2   3
DOCKED: ENDBRANCH   1   2
DOCKED: BRANCH   1   9
DOCKED: ATOM      9  C   UNL     1      25.893 -16.202  -1.657 -0.53 -0.00    +0.000 C 
DOCKED: BRANCH   9  10
DOCKED: ATOM     10  C   UNL     1      26.624 -15.953  -2.988 -0.42 -0.00    +0.000 C 
DOCKED: BRANCH  10  11
DOCKED: ATOM     11  C   UNL     1      26.833 -14.463  -3.287 -0.36 -0.00    +0.000 C 
DOCKED: BRANCH  11  12
DOCKED: ATOM     12  C   UNL     1      25.643 -13.902  -4.005 -0.50 -0.00    +0.000 C 
DOCKED: ATOM     13  N   UNL     1      25.478 -12.488  -4.131 -0.32 -0.00    +0.000 N 
DOCKED: ATOM     14  O   UNL     1      24.395 -11.977  -4.764 -0.54 -0.00    +0.000 OA
DOCKED: ATOM     15  O   UNL     1      24.764 -14.681  -4.462 -0.93 -0.00    +0.000 OA
DOCKED: ATOM     16  H   UNL     1      26.156 -11.881  -3.756 -0.01 -0.00    +0.000 HD
DOCKED: ENDBRANCH  11  12
DOCKED: ENDBRANCH  10  11
DOCKED: ENDBRANCH   9  10
DOCKED: ENDBRANCH   1   9
DOCKED: TORSDOF 7
DOCKED: TER
DOCKED: ENDMDL
________________________________________________________________________________


	BEGINNING GENETIC ALGORITHM DOCKING 11 of 100
Run: 11 Seed: 281452223 64638935 [ Run 11 of 100 GA/GALS ]
Beginning LAMARCKIAN GENETIC ALGORITHM (LGA), with a maximum of 2500000 energy evaluations.

Final-Value: -11.886


	FINAL GENETIC ALGORITHM DOCKED STATE
	_______________________________________________


Detailed state:  trans 25.412 -17.191 -2.452 quatxyzw -0.534410 -0.628892 0.252774 -0.504981 center 0.010 0.634 0.018 ntor 7 152.5134 47.5355 -93.1371 10.7921 -119.4802 30.1209 -103.8644
State:	 25.412 -17.191  -2.452  -0.619 -0.729  0.293 -119.340    152.51   47.54  -93.14   10.79 -119.48   30.12 -103.86

DOCKED: MODEL       11
DOCKED: USER    Run = 11
DOCKED: USER    DPF = ligand_dock.biased.dpf
DOCKED: USER  
DOCKED: USER    Estimated Free Energy of Binding    =   -9.28 kcal/mol  [=(1)+(2)+(3)-(4)]
DOCKED: USER    Estimated Inhibition Constant, Ki   =  157.07 nM (nanomolar)  [Temperature = 298.15 K]
DOCKED: USER    
DOCKED: USER    (1) Final Intermolecular Energy     =  -11.37 kcal/mol
DOCKED: USER        vdW + Hbond + desolv Energy     =  -11.37 kcal/mol
DOCKED: USER        Electrostatic Energy            =   +0.00 kcal/mol
DOCKED: USER    (2) Final Total Internal Energy     =   -0.52 kcal/mol
DOCKED: USER    (3) Torsional Free Energy           =   +2.09 kcal/mol
DOCKED: USER    (4) Unbound System's Energy  [=(2)] =   -0.52 kcal/mol
DOCKED: USER    
DOCKED: USER    
DOCKED: USER    NEWDPF move ligand.pdbqt
DOCKED: USER    NEWDPF about 0.010000 0.634000 0.018000
DOCKED: USER    NEWDPF tran0 25.411657 -17.190507 -2.451968
DOCKED: USER    NEWDPF quaternion0 -0.534410 -0.628892 0.252774 -0.504981
DOCKED: USER    NEWDPF axisangle0 -0.619154 -0.728617 0.292857 -119.339816
DOCKED: USER    NEWDPF quat0 -0.619154 -0.728617 0.292857 -119.339816
DOCKED: USER    NEWDPF dihe0 152.51 47.54 -93.14 10.79 -119.48 30.12 -103.86 
DOCKED: USER  keepresnum = 1 
DOCKED: USER  
DOCKED: REMARK  Name = 
DOCKED: REMARK  7 active torsions:
DOCKED: REMARK  status: ('A' for Active; 'I' for Inactive)
DOCKED: REMARK    1  A    between atoms: C_3  and  C_4
DOCKED: REMARK    2  A    between atoms: C_4  and  C_5
DOCKED: REMARK    3  A    between atoms: C_5  and  C_6
DOCKED: REMARK    4  A    between atoms: C_6  and  C_7
DOCKED: REMARK    5  A    between atoms: C_7  and  C_8
DOCKED: REMARK    6  A    between atoms: C_8  and  C_9
DOCKED: REMARK    7  A    between atoms: C_9  and  C_10
DOCKED: REMARK                            x       y       z     vdW  Elec       q    Type
DOCKED: REMARK                         _______ _______ _______ _____ _____    ______ ____
DOCKED: USER                              x       y       z     vdW  Elec       q    Type
DOCKED: USER                           _______ _______ _______ _____ _____    ______ ____
DOCKED: ROOT
DOCKED: ATOM      1  C   UNL     1      24.170 -17.276  -0.627 -0.67 -0.00    +0.000 C 
DOCKED: ENDROOT
DOCKED: BRANCH   1   2
DOCKED: ATOM      2  C   UNL     1      25.617 -16.757  -0.592 -0.52 -0.00    +0.000 C 
DOCKED: BRANCH   2   3
DOCKED: ATOM      3  C   UNL     1      26.203 -16.672  -2.005 -0.49 -0.00    +0.000 C 
DOCKED: BRANCH   3   6
DOCKED: ATOM      4  O   UNL     1      24.935 -14.081  -4.451 -1.02 -0.00    +0.000 OA
DOCKED: ATOM      5  N   UNL     1      25.206 -15.278  -3.879 -0.47 -0.00    +0.000 N 
DOCKED: ATOM      6  C   UNL     1      25.887 -15.344  -2.624 -0.49 -0.00    +0.000 C 
DOCKED: ATOM      7  O   UNL     1      26.258 -14.284  -2.053 -0.33 -0.00    +0.000 OA
DOCKED: ATOM      8  H   UNL     1      24.933 -16.109  -4.331 -0.04 -0.00    +0.000 HD
DOCKED: ENDBRANCH   3   6
DOCKED: ENDBRANCH   2   3
DOCKED: ENDBRANCH   1   2
DOCKED: BRANCH   1   9
DOCKED: ATOM      9  C   UNL     1      24.071 -18.748  -1.064 -0.73 -0.00    +0.000 C 
DOCKED: BRANCH   9  10
DOCKED: ATOM     10  C   UNL     1      22.658 -19.216  -1.458 -0.67 -0.00    +0.000 C 
DOCKED: BRANCH  10  11
DOCKED: ATOM     11  C   UNL     1      21.550 -18.493  -0.681 -0.85 -0.00    +0.000 C 
DOCKED: BRANCH  11  12
DOCKED: ATOM     12  C   UNL     1      20.267 -19.264  -0.760 -0.90 -0.00    +0.000 C 
DOCKED: ATOM     13  N   UNL     1      19.499 -19.507   0.420 -0.72 -0.00    +0.000 N 
DOCKED: ATOM     14  O   UNL     1      18.348 -20.218   0.356 -0.85 -0.00    +0.000 OA
DOCKED: ATOM     15  O   UNL     1      19.888 -19.735  -1.867 -2.40 -0.00    +0.000 OA
DOCKED: ATOM     16  H   UNL     1      19.807 -19.155   1.286 -0.20 -0.00    +0.000 HD
DOCKED: ENDBRANCH  11  12
DOCKED: ENDBRANCH  10  11
DOCKED: ENDBRANCH   9  10
DOCKED: ENDBRANCH   1   9
DOCKED: TORSDOF 7
DOCKED: TER
DOCKED: ENDMDL
________________________________________________________________________________


	BEGINNING GENETIC ALGORITHM DOCKING 12 of 100
Run: 12 Seed: 95099769 1704884213 [ Run 12 of 100 GA/GALS ]
Beginning LAMARCKIAN GENETIC ALGORITHM (LGA), with a maximum of 2500000 energy evaluations.

Final-Value: -12.684


	FINAL GENETIC ALGORITHM DOCKED STATE
	_______________________________________________


Detailed state:  trans 26.820 -16.734 -2.400 quatxyzw 0.642331 0.690620 -0.305314 0.131295 center 0.010 0.634 0.018 ntor 7 -152.0775 120.3668 135.0996 38.6187 -27.9088 163.3966 -168.8549
State:	 26.820 -16.734  -2.400   0.648  0.697 -0.308 164.911   -152.08  120.37  135.10   38.62  -27.91  163.40 -168.85

DOCKED: MODEL       12
DOCKED: USER    Run = 12
DOCKED: USER    DPF = ligand_dock.biased.dpf
DOCKED: USER  
DOCKED: USER    Estimated Free Energy of Binding    =  -10.03 kcal/mol  [=(1)+(2)+(3)-(4)]
DOCKED: USER    Estimated Inhibition Constant, Ki   =   44.20 nM (nanomolar)  [Temperature = 298.15 K]
DOCKED: USER    
DOCKED: USER    (1) Final Intermolecular Energy     =  -12.12 kcal/mol
DOCKED: USER        vdW + Hbond + desolv Energy     =  -12.12 kcal/mol
DOCKED: USER        Electrostatic Energy            =   +0.00 kcal/mol
DOCKED: USER    (2) Final Total Internal Energy     =   -0.56 kcal/mol
DOCKED: USER    (3) Torsional Free Energy           =   +2.09 kcal/mol
DOCKED: USER    (4) Unbound System's Energy  [=(2)] =   -0.56 kcal/mol
DOCKED: USER    
DOCKED: USER    
DOCKED: USER    NEWDPF move ligand.pdbqt
DOCKED: USER    NEWDPF about 0.010000 0.634000 0.018000
DOCKED: USER    NEWDPF tran0 26.819537 -16.733856 -2.400329
DOCKED: USER    NEWDPF quaternion0 0.642331 0.690620 -0.305314 0.131295
DOCKED: USER    NEWDPF axisangle0 0.647940 0.696651 -0.307980 164.911110
DOCKED: USER    NEWDPF quat0 0.647940 0.696651 -0.307980 164.911110
DOCKED: USER    NEWDPF dihe0 -152.08 120.37 135.10 38.62 -27.91 163.40 -168.85 
DOCKED: USER  keepresnum = 1 
DOCKED: USER  
DOCKED: REMARK  Name = 
DOCKED: REMARK  7 active torsions:
DOCKED: REMARK  status: ('A' for Active; 'I' for Inactive)
DOCKED: REMARK    1  A    between atoms: C_3  and  C_4
DOCKED: REMARK    2  A    between atoms: C_4  and  C_5
DOCKED: REMARK    3  A    between atoms: C_5  and  C_6
DOCKED: REMARK    4  A    between atoms: C_6  and  C_7
DOCKED: REMARK    5  A    between atoms: C_7  and  C_8
DOCKED: REMARK    6  A    between atoms: C_8  and  C_9
DOCKED: REMARK    7  A    between atoms: C_9  and  C_10
DOCKED: REMARK                            x       y       z     vdW  Elec       q    Type
DOCKED: REMARK                         _______ _______ _______ _____ _____    ______ ____
DOCKED: USER                              x       y       z     vdW  Elec       q    Type
DOCKED: USER                           _______ _______ _______ _____ _____    ______ ____
DOCKED: ROOT
DOCKED: ATOM      1  C   UNL     1      24.795 -16.352  -1.604 -0.58 -0.00    +0.000 C 
DOCKED: ENDROOT
DOCKED: BRANCH   1   2
DOCKED: ATOM      2  C   UNL     1      25.990 -15.464  -1.223 -0.44 -0.00    +0.000 C 
DOCKED: BRANCH   2   3
DOCKED: ATOM      3  C   UNL     1      26.034 -14.202  -2.089 -0.26 -0.00    +0.000 C 
DOCKED: BRANCH   3   6
DOCKED: ATOM      4  O   UNL     1      26.509 -15.587  -5.576 -1.20 +0.00    +0.000 OA
DOCKED: ATOM      5  N   UNL     1      26.732 -15.293  -4.274 -0.47 -0.00    +0.000 N 
DOCKED: ATOM      6  C   UNL     1      25.773 -14.543  -3.526 -0.52 -0.00    +0.000 C 
DOCKED: ATOM      7  O   UNL     1      24.721 -14.132  -4.085 -1.12 -0.00    +0.000 OA
DOCKED: ATOM      8  H   UNL     1      27.561 -15.597  -3.839 -0.01 -0.00    +0.000 HD
DOCKED: ENDBRANCH   3   6
DOCKED: ENDBRANCH   2   3
DOCKED: ENDBRANCH   1   2
DOCKED: BRANCH   1   9
DOCKED: ATOM      9  C   UNL     1      24.967 -17.814  -1.155 -0.70 -0.00    +0.000 C 
DOCKED: BRANCH   9  10
DOCKED: ATOM     10  C   UNL     1      23.773 -18.400  -0.379 -0.78 -0.00    +0.000 C 
DOCKED: BRANCH  10  11
DOCKED: ATOM     11  C   UNL     1      22.891 -19.314  -1.240 -0.71 -0.00    +0.000 C 
DOCKED: BRANCH  11  12
DOCKED: ATOM     12  C   UNL     1      21.443 -18.986  -1.035 -0.85 -0.00    +0.000 C 
DOCKED: ATOM     13  N   UNL     1      20.440 -19.979  -1.259 -0.66 -0.00    +0.000 N 
DOCKED: ATOM     14  O   UNL     1      19.130 -19.682  -1.092 -1.59 -0.00    +0.000 OA
DOCKED: ATOM     15  O   UNL     1      21.108 -17.816  -0.704 -2.06 -0.00    +0.000 OA
DOCKED: ATOM     16  H   UNL     1      20.703 -20.886  -1.536 -0.18 -0.00    +0.000 HD
DOCKED: ENDBRANCH  11  12
DOCKED: ENDBRANCH  10  11
DOCKED: ENDBRANCH   9  10
DOCKED: ENDBRANCH   1   9
DOCKED: TORSDOF 7
DOCKED: TER
DOCKED: ENDMDL
________________________________________________________________________________


	BEGINNING GENETIC ALGORITHM DOCKING 13 of 100
Run: 13 Seed: 598597115 1982570702 [ Run 13 of 100 GA/GALS ]
Beginning LAMARCKIAN GENETIC ALGORITHM (LGA), with a maximum of 2500000 energy evaluations.

Final-Value: -12.304


	FINAL GENETIC ALGORITHM DOCKED STATE
	_______________________________________________


Detailed state:  trans 26.204 -18.293 -2.066 quatxyzw 0.945165 0.102848 -0.278001 0.137116 center 0.010 0.634 0.018 ntor 7 101.9051 15.1158 111.4239 -54.1678 120.3164 -150.4439 -34.9641
State:	 26.204 -18.293  -2.066   0.954  0.104 -0.281 164.238    101.91   15.12  111.42  -54.17  120.32 -150.44  -34.96

DOCKED: MODEL       13
DOCKED: USER    Run = 13
DOCKED: USER    DPF = ligand_dock.biased.dpf
DOCKED: USER  
DOCKED: USER    Estimated Free Energy of Binding    =   -9.76 kcal/mol  [=(1)+(2)+(3)-(4)]
DOCKED: USER    Estimated Inhibition Constant, Ki   =   69.69 nM (nanomolar)  [Temperature = 298.15 K]
DOCKED: USER    
DOCKED: USER    (1) Final Intermolecular Energy     =  -11.85 kcal/mol
DOCKED: USER        vdW + Hbond + desolv Energy     =  -11.85 kcal/mol
DOCKED: USER        Electrostatic Energy            =   +0.00 kcal/mol
DOCKED: USER    (2) Final Total Internal Energy     =   -0.45 kcal/mol
DOCKED: USER    (3) Torsional Free Energy           =   +2.09 kcal/mol
DOCKED: USER    (4) Unbound System's Energy  [=(2)] =   -0.45 kcal/mol
DOCKED: USER    
DOCKED: USER    
DOCKED: USER    NEWDPF move ligand.pdbqt
DOCKED: USER    NEWDPF about 0.010000 0.634000 0.018000
DOCKED: USER    NEWDPF tran0 26.203830 -18.293407 -2.065665
DOCKED: USER    NEWDPF quaternion0 0.945165 0.102848 -0.278001 0.137116
DOCKED: USER    NEWDPF axisangle0 0.954177 0.103829 -0.280652 164.237958
DOCKED: USER    NEWDPF quat0 0.954177 0.103829 -0.280652 164.237958
DOCKED: USER    NEWDPF dihe0 101.91 15.12 111.42 -54.17 120.32 -150.44 -34.96 
DOCKED: USER  keepresnum = 1 
DOCKED: USER  
DOCKED: REMARK  Name = 
DOCKED: REMARK  7 active torsions:
DOCKED: REMARK  status: ('A' for Active; 'I' for Inactive)
DOCKED: REMARK    1  A    between atoms: C_3  and  C_4
DOCKED: REMARK    2  A    between atoms: C_4  and  C_5
DOCKED: REMARK    3  A    between atoms: C_5  and  C_6
DOCKED: REMARK    4  A    between atoms: C_6  and  C_7
DOCKED: REMARK    5  A    between atoms: C_7  and  C_8
DOCKED: REMARK    6  A    between atoms: C_8  and  C_9
DOCKED: REMARK    7  A    between atoms: C_9  and  C_10
DOCKED: REMARK                            x       y       z     vdW  Elec       q    Type
DOCKED: REMARK                         _______ _______ _______ _____ _____    ______ ____
DOCKED: USER                              x       y       z     vdW  Elec       q    Type
DOCKED: USER                           _______ _______ _______ _____ _____    ______ ____
DOCKED: ROOT
DOCKED: ATOM      1  C   UNL     1      26.109 -16.088  -1.999 -0.50 -0.00    +0.000 C 
DOCKED: ENDROOT
DOCKED: BRANCH   1   2
DOCKED: ATOM      2  C   UNL     1      27.368 -16.853  -1.559 -0.41 -0.00    +0.000 C 
DOCKED: BRANCH   2   3
DOCKED: ATOM      3  C   UNL     1      27.625 -16.667  -0.061 -0.35 -0.00    +0.000 C 
DOCKED: BRANCH   3   6
DOCKED: ATOM      4  O   UNL     1      28.729 -13.581   1.827 -0.20 -0.00    +0.000 OA
DOCKED: ATOM      5  N   UNL     1      28.402 -14.866   1.552 -0.19 -0.00    +0.000 N 
DOCKED: ATOM      6  C   UNL     1      28.006 -15.247   0.234 -0.28 -0.00    +0.000 C 
DOCKED: ATOM      7  O   UNL     1      27.938 -14.380  -0.678 -0.18 -0.00    +0.000 OA
DOCKED: ATOM      8  H   UNL     1      28.438 -15.542   2.267 -1.45 -0.00    +0.000 HD
DOCKED: ENDBRANCH   3   6
DOCKED: ENDBRANCH   2   3
DOCKED: ENDBRANCH   1   2
DOCKED: BRANCH   1   9
DOCKED: ATOM      9  C   UNL     1      24.876 -16.415  -1.139 -0.58 -0.00    +0.000 C 
DOCKED: BRANCH   9  10
DOCKED: ATOM     10  C   UNL     1      23.941 -17.490  -1.723 -0.59 -0.00    +0.000 C 
DOCKED: BRANCH  10  11
DOCKED: ATOM     11  C   UNL     1      23.245 -18.328  -0.643 -0.82 -0.00    +0.000 C 
DOCKED: BRANCH  11  12
DOCKED: ATOM     12  C   UNL     1      21.782 -18.457  -0.944 -0.81 -0.00    +0.000 C 
DOCKED: ATOM     13  N   UNL     1      21.272 -19.649  -1.543 -0.64 -0.00    +0.000 N 
DOCKED: ATOM     14  O   UNL     1      19.954 -19.762  -1.832 -2.38 -0.00    +0.000 OA
DOCKED: ATOM     15  O   UNL     1      21.007 -17.491  -0.703 -2.07 -0.00    +0.000 OA
DOCKED: ATOM     16  H   UNL     1      21.882 -20.393  -1.748 -0.40 -0.00    +0.000 HD
DOCKED: ENDBRANCH  11  12
DOCKED: ENDBRANCH  10  11
DOCKED: ENDBRANCH   9  10
DOCKED: ENDBRANCH   1   9
DOCKED: TORSDOF 7
DOCKED: TER
DOCKED: ENDMDL
________________________________________________________________________________


	BEGINNING GENETIC ALGORITHM DOCKING 14 of 100
Run: 14 Seed: 2144353966 1651754333 [ Run 14 of 100 GA/GALS ]
Beginning LAMARCKIAN GENETIC ALGORITHM (LGA), with a maximum of 2500000 energy evaluations.

Final-Value: -12.164


	FINAL GENETIC ALGORITHM DOCKED STATE
	_______________________________________________


Detailed state:  trans 24.245 -16.907 -2.554 quatxyzw 0.358687 0.349277 -0.410218 0.762280 center 0.010 0.634 0.018 ntor 7 -33.8562 -54.3649 21.8642 -38.6961 -54.6566 149.7948 -92.5488
State:	 24.245 -16.907  -2.554   0.554  0.540 -0.634 80.669    -33.86  -54.36   21.86  -38.70  -54.66  149.79  -92.55

DOCKED: MODEL       14
DOCKED: USER    Run = 14
DOCKED: USER    DPF = ligand_dock.biased.dpf
DOCKED: USER  
DOCKED: USER    Estimated Free Energy of Binding    =   -9.62 kcal/mol  [=(1)+(2)+(3)-(4)]
DOCKED: USER    Estimated Inhibition Constant, Ki   =   88.71 nM (nanomolar)  [Temperature = 298.15 K]
DOCKED: USER    
DOCKED: USER    (1) Final Intermolecular Energy     =  -11.71 kcal/mol
DOCKED: USER        vdW + Hbond + desolv Energy     =  -11.71 kcal/mol
DOCKED: USER        Electrostatic Energy            =   +0.00 kcal/mol
DOCKED: USER    (2) Final Total Internal Energy     =   -0.46 kcal/mol
DOCKED: USER    (3) Torsional Free Energy           =   +2.09 kcal/mol
DOCKED: USER    (4) Unbound System's Energy  [=(2)] =   -0.46 kcal/mol
DOCKED: USER    
DOCKED: USER    
DOCKED: USER    NEWDPF move ligand.pdbqt
DOCKED: USER    NEWDPF about 0.010000 0.634000 0.018000
DOCKED: USER    NEWDPF tran0 24.244695 -16.906580 -2.553565
DOCKED: USER    NEWDPF quaternion0 0.358687 0.349277 -0.410218 0.762280
DOCKED: USER    NEWDPF axisangle0 0.554173 0.539634 -0.633788 80.668847
DOCKED: USER    NEWDPF quat0 0.554173 0.539634 -0.633788 80.668847
DOCKED: USER    NEWDPF dihe0 -33.86 -54.36 21.86 -38.70 -54.66 149.79 -92.55 
DOCKED: USER  keepresnum = 1 
DOCKED: USER  
DOCKED: REMARK  Name = 
DOCKED: REMARK  7 active torsions:
DOCKED: REMARK  status: ('A' for Active; 'I' for Inactive)
DOCKED: REMARK    1  A    between atoms: C_3  and  C_4
DOCKED: REMARK    2  A    between atoms: C_4  and  C_5
DOCKED: REMARK    3  A    between atoms: C_5  and  C_6
DOCKED: REMARK    4  A    between atoms: C_6  and  C_7
DOCKED: REMARK    5  A    between atoms: C_7  and  C_8
DOCKED: REMARK    6  A    between atoms: C_8  and  C_9
DOCKED: REMARK    7  A    between atoms: C_9  and  C_10
DOCKED: REMARK                            x       y       z     vdW  Elec       q    Type
DOCKED: REMARK                         _______ _______ _______ _____ _____    ______ ____
DOCKED: USER                              x       y       z     vdW  Elec       q    Type
DOCKED: USER                           _______ _______ _______ _____ _____    ______ ____
DOCKED: ROOT
DOCKED: ATOM      1  C   UNL     1      24.872 -17.221  -0.460 -0.58 -0.00    +0.000 C 
DOCKED: ENDROOT
DOCKED: BRANCH   1   2
DOCKED: ATOM      2  C   UNL     1      25.853 -16.704  -1.523 -0.57 -0.00    +0.000 C 
DOCKED: BRANCH   2   3
DOCKED: ATOM      3  C   UNL     1      25.507 -15.271  -1.937 -0.44 -0.00    +0.000 C 
DOCKED: BRANCH   3   6
DOCKED: ATOM      4  O   UNL     1      26.350 -15.609  -5.608 -1.18 +0.00    +0.000 OA
DOCKED: ATOM      5  N   UNL     1      25.836 -15.869  -4.383 -0.55 -0.00    +0.000 N 
DOCKED: ATOM      6  C   UNL     1      26.062 -14.969  -3.297 -0.50 -0.00    +0.000 C 
DOCKED: ATOM      7  O   UNL     1      26.763 -13.936  -3.470 -0.31 -0.00    +0.000 OA
DOCKED: ATOM      8  H   UNL     1      25.303 -16.684  -4.239 -0.06 -0.00    +0.000 HD
DOCKED: ENDBRANCH   3   6
DOCKED: ENDBRANCH   2   3
DOCKED: ENDBRANCH   1   2
DOCKED: BRANCH   1   9
DOCKED: ATOM      9  C   UNL     1      24.334 -18.629  -0.772 -0.75 -0.00    +0.000 C 
DOCKED: BRANCH   9  10
DOCKED: ATOM     10  C   UNL     1      22.957 -18.951  -0.163 -0.63 -0.00    +0.000 C 
DOCKED: BRANCH  10  11
DOCKED: ATOM     11  C   UNL     1      21.791 -18.541  -1.072 -0.80 -0.00    +0.000 C 
DOCKED: BRANCH  11  12
DOCKED: ATOM     12  C   UNL     1      20.627 -19.465  -0.878 -0.89 -0.00    +0.000 C 
DOCKED: ATOM     13  N   UNL     1      20.396 -20.076   0.392 -0.70 -0.00    +0.000 N 
DOCKED: ATOM     14  O   UNL     1      19.356 -20.926   0.567 -0.87 -0.00    +0.000 OA
DOCKED: ATOM     15  O   UNL     1      19.874 -19.735  -1.853 -2.39 -0.00    +0.000 OA
DOCKED: ATOM     16  H   UNL     1      20.997 -19.879   1.147 -0.50 -0.00    +0.000 HD
DOCKED: ENDBRANCH  11  12
DOCKED: ENDBRANCH  10  11
DOCKED: ENDBRANCH   9  10
DOCKED: ENDBRANCH   1   9
DOCKED: TORSDOF 7
DOCKED: TER
DOCKED: ENDMDL
________________________________________________________________________________


	BEGINNING GENETIC ALGORITHM DOCKING 15 of 100
Run: 15 Seed: 1338220966 293448419 [ Run 15 of 100 GA/GALS ]
Beginning LAMARCKIAN GENETIC ALGORITHM (LGA), with a maximum of 2500000 energy evaluations.

Final-Value: -13.066


	FINAL GENETIC ALGORITHM DOCKED STATE
	_______________________________________________


Detailed state:  trans 24.679 -16.944 -2.648 quatxyzw 0.406493 -0.687903 0.389147 0.458386 center 0.010 0.634 0.018 ntor 7 -34.4373 178.0554 6.6407 112.7838 113.4696 172.9621 -69.9400
State:	 24.679 -16.944  -2.648   0.457 -0.774  0.438 125.434    -34.44  178.06    6.64  112.78  113.47  172.96  -69.94

DOCKED: MODEL       15
DOCKED: USER    Run = 15
DOCKED: USER    DPF = ligand_dock.biased.dpf
DOCKED: USER  
DOCKED: USER    Estimated Free Energy of Binding    =  -10.25 kcal/mol  [=(1)+(2)+(3)-(4)]
DOCKED: USER    Estimated Inhibition Constant, Ki   =   30.89 nM (nanomolar)  [Temperature = 298.15 K]
DOCKED: USER    
DOCKED: USER    (1) Final Intermolecular Energy     =  -12.33 kcal/mol
DOCKED: USER        vdW + Hbond + desolv Energy     =  -12.33 kcal/mol
DOCKED: USER        Electrostatic Energy            =   +0.00 kcal/mol
DOCKED: USER    (2) Final Total Internal Energy     =   -0.73 kcal/mol
DOCKED: USER    (3) Torsional Free Energy           =   +2.09 kcal/mol
DOCKED: USER    (4) Unbound System's Energy  [=(2)] =   -0.73 kcal/mol
DOCKED: USER    
DOCKED: USER    
DOCKED: USER    NEWDPF move ligand.pdbqt
DOCKED: USER    NEWDPF about 0.010000 0.634000 0.018000
DOCKED: USER    NEWDPF tran0 24.679478 -16.944131 -2.648267
DOCKED: USER    NEWDPF quaternion0 0.406493 -0.687903 0.389147 0.458386
DOCKED: USER    NEWDPF axisangle0 0.457374 -0.774009 0.437857 125.434004
DOCKED: USER    NEWDPF quat0 0.457374 -0.774009 0.437857 125.434004
DOCKED: USER    NEWDPF dihe0 -34.44 178.06 6.64 112.78 113.47 172.96 -69.94 
DOCKED: USER  keepresnum = 1 
DOCKED: USER  
DOCKED: REMARK  Name = 
DOCKED: REMARK  7 active torsions:
DOCKED: REMARK  status: ('A' for Active; 'I' for Inactive)
DOCKED: REMARK    1  A    between atoms: C_3  and  C_4
DOCKED: REMARK    2  A    between atoms: C_4  and  C_5
DOCKED: REMARK    3  A    between atoms: C_5  and  C_6
DOCKED: REMARK    4  A    between atoms: C_6  and  C_7
DOCKED: REMARK    5  A    between atoms: C_7  and  C_8
DOCKED: REMARK    6  A    between atoms: C_8  and  C_9
DOCKED: REMARK    7  A    between atoms: C_9  and  C_10
DOCKED: REMARK                            x       y       z     vdW  Elec       q    Type
DOCKED: REMARK                         _______ _______ _______ _____ _____    ______ ____
DOCKED: USER                              x       y       z     vdW  Elec       q    Type
DOCKED: USER                           _______ _______ _______ _____ _____    ______ ____
DOCKED: ROOT
DOCKED: ATOM      1  C   UNL     1      25.406 -18.234  -1.010 -0.60 -0.00    +0.000 C 
DOCKED: ENDROOT
DOCKED: BRANCH   1   2
DOCKED: ATOM      2  C   UNL     1      23.963 -18.330  -1.530 -0.72 -0.00    +0.000 C 
DOCKED: BRANCH   2   3
DOCKED: ATOM      3  C   UNL     1      22.957 -18.066  -0.406 -0.81 -0.00    +0.000 C 
DOCKED: BRANCH   3   6
DOCKED: ATOM      4  O   UNL     1      19.999 -19.805  -1.996 -2.32 -0.00    +0.000 OA
DOCKED: ATOM      5  N   UNL     1      21.255 -19.561  -1.554 -0.68 -0.00    +0.000 N 
DOCKED: ATOM      6  C   UNL     1      21.560 -18.340  -0.877 -0.79 -0.00    +0.000 C 
DOCKED: ATOM      7  O   UNL     1      20.662 -17.472  -0.708 -2.06 +0.00    +0.000 OA
DOCKED: ATOM      8  H   UNL     1      21.963 -20.229  -1.700 -0.42 -0.00    +0.000 HD
DOCKED: ENDBRANCH   3   6
DOCKED: ENDBRANCH   2   3
DOCKED: ENDBRANCH   1   2
DOCKED: BRANCH   1   9
DOCKED: ATOM      9  C   UNL     1      25.736 -16.858  -0.407 -0.49 -0.00    +0.000 C 
DOCKED: BRANCH   9  10
DOCKED: ATOM     10  C   UNL     1      27.049 -16.227  -0.905 -0.42 -0.00    +0.000 C 
DOCKED: BRANCH  10  11
DOCKED: ATOM     11  C   UNL     1      26.823 -14.983  -1.775 -0.33 -0.00    +0.000 C 
DOCKED: BRANCH  11  12
DOCKED: ATOM     12  C   UNL     1      26.005 -15.331  -2.982 -0.51 -0.00    +0.000 C 
DOCKED: ATOM     13  N   UNL     1      26.645 -15.611  -4.228 -0.48 -0.00    +0.000 N 
DOCKED: ATOM     14  O   UNL     1      25.909 -15.909  -5.326 -1.12 +0.00    +0.000 OA
DOCKED: ATOM     15  O   UNL     1      24.747 -15.335  -2.904 -0.55 -0.00    +0.000 OA
DOCKED: ATOM     16  H   UNL     1      27.627 -15.588  -4.291 -0.02 -0.00    +0.000 HD
DOCKED: ENDBRANCH  11  12
DOCKED: ENDBRANCH  10  11
DOCKED: ENDBRANCH   9  10
DOCKED: ENDBRANCH   1   9
DOCKED: TORSDOF 7
DOCKED: TER
DOCKED: ENDMDL
________________________________________________________________________________


	BEGINNING GENETIC ALGORITHM DOCKING 16 of 100
Run: 16 Seed: 2121899453 1236103030 [ Run 16 of 100 GA/GALS ]
Beginning LAMARCKIAN GENETIC ALGORITHM (LGA), with a maximum of 2500000 energy evaluations.

Final-Value: -12.216


	FINAL GENETIC ALGORITHM DOCKED STATE
	_______________________________________________


Detailed state:  trans 24.657 -20.225 -0.582 quatxyzw 0.480427 -0.080118 0.871245 -0.060850 center 0.010 0.634 0.018 ntor 7 -125.8465 160.0897 -12.4043 111.4558 104.1319 -3.2409 -150.8779
State:	 24.657 -20.225  -0.582   0.481 -0.080  0.873 -173.023   -125.85  160.09  -12.40  111.46  104.13   -3.24 -150.88

DOCKED: MODEL       16
DOCKED: USER    Run = 16
DOCKED: USER    DPF = ligand_dock.biased.dpf
DOCKED: USER  
DOCKED: USER    Estimated Free Energy of Binding    =   -9.47 kcal/mol  [=(1)+(2)+(3)-(4)]
DOCKED: USER    Estimated Inhibition Constant, Ki   =  114.75 nM (nanomolar)  [Temperature = 298.15 K]
DOCKED: USER    
DOCKED: USER    (1) Final Intermolecular Energy     =  -11.56 kcal/mol
DOCKED: USER        vdW + Hbond + desolv Energy     =  -11.56 kcal/mol
DOCKED: USER        Electrostatic Energy            =   +0.00 kcal/mol
DOCKED: USER    (2) Final Total Internal Energy     =   -0.66 kcal/mol
DOCKED: USER    (3) Torsional Free Energy           =   +2.09 kcal/mol
DOCKED: USER    (4) Unbound System's Energy  [=(2)] =   -0.66 kcal/mol
DOCKED: USER    
DOCKED: USER    
DOCKED: USER    NEWDPF move ligand.pdbqt
DOCKED: USER    NEWDPF about 0.010000 0.634000 0.018000
DOCKED: USER    NEWDPF tran0 24.656725 -20.225195 -0.581646
DOCKED: USER    NEWDPF quaternion0 0.480427 -0.080118 0.871245 -0.060850
DOCKED: USER    NEWDPF axisangle0 0.481319 -0.080266 0.872863 -173.022839
DOCKED: USER    NEWDPF quat0 0.481319 -0.080266 0.872863 -173.022839
DOCKED: USER    NEWDPF dihe0 -125.85 160.09 -12.40 111.46 104.13 -3.24 -150.88 
DOCKED: USER  keepresnum = 1 
DOCKED: USER  
DOCKED: REMARK  Name = 
DOCKED: REMARK  7 active torsions:
DOCKED: REMARK  status: ('A' for Active; 'I' for Inactive)
DOCKED: REMARK    1  A    between atoms: C_3  and  C_4
DOCKED: REMARK    2  A    between atoms: C_4  and  C_5
DOCKED: REMARK    3  A    between atoms: C_5  and  C_6
DOCKED: REMARK    4  A    between atoms: C_6  and  C_7
DOCKED: REMARK    5  A    between atoms: C_7  and  C_8
DOCKED: REMARK    6  A    between atoms: C_8  and  C_9
DOCKED: REMARK    7  A    between atoms: C_9  and  C_10
DOCKED: REMARK                            x       y       z     vdW  Elec       q    Type
DOCKED: REMARK                         _______ _______ _______ _____ _____    ______ ____
DOCKED: USER                              x       y       z     vdW  Elec       q    Type
DOCKED: USER                           _______ _______ _______ _____ _____    ______ ____
DOCKED: ROOT
DOCKED: ATOM      1  C   UNL     1      25.152 -18.234   0.234 -0.55 -0.00    +0.000 C 
DOCKED: ENDROOT
DOCKED: BRANCH   1   2
DOCKED: ATOM      2  C   UNL     1      23.695 -18.691   0.058 -0.47 -0.00    +0.000 C 
DOCKED: BRANCH   2   3
DOCKED: ATOM      3  C   UNL     1      22.870 -17.625  -0.667 -0.78 -0.00    +0.000 C 
DOCKED: BRANCH   3   6
DOCKED: ATOM      4  O   UNL     1      20.256 -19.993  -2.031 -2.30 -0.00    +0.000 OA
DOCKED: ATOM      5  N   UNL     1      21.452 -19.493  -1.640 -0.62 -0.00    +0.000 N 
DOCKED: ATOM      6  C   UNL     1      21.541 -18.182  -1.081 -0.67 -0.00    +0.000 C 
DOCKED: ATOM      7  O   UNL     1      20.504 -17.473  -0.969 -1.95 -0.00    +0.000 OA
DOCKED: ATOM      8  H   UNL     1      22.266 -20.037  -1.742 -0.43 -0.00    +0.000 HD
DOCKED: ENDBRANCH   3   6
DOCKED: ENDBRANCH   2   3
DOCKED: ENDBRANCH   1   2
DOCKED: BRANCH   1   9
DOCKED: ATOM      9  C   UNL     1      25.921 -18.155  -1.096 -0.46 -0.00    +0.000 C 
DOCKED: BRANCH   9  10
DOCKED: ATOM     10  C   UNL     1      26.998 -17.056  -1.162 -0.49 -0.00    +0.000 C 
DOCKED: BRANCH  10  11
DOCKED: ATOM     11  C   UNL     1      26.413 -15.640  -1.076 -0.42 -0.00    +0.000 C 
DOCKED: BRANCH  11  12
DOCKED: ATOM     12  C   UNL     1      25.481 -15.388  -2.222 -0.48 -0.00    +0.000 C 
DOCKED: ATOM     13  N   UNL     1      25.800 -14.403  -3.207 -0.43 -0.00    +0.000 N 
DOCKED: ATOM     14  O   UNL     1      24.953 -14.160  -4.235 -1.02 -0.00    +0.000 OA
DOCKED: ATOM     15  O   UNL     1      24.394 -16.021  -2.294 -0.48 -0.00    +0.000 OA
DOCKED: ATOM     16  H   UNL     1      26.641 -13.896  -3.137 -0.00 -0.00    +0.000 HD
DOCKED: ENDBRANCH  11  12
DOCKED: ENDBRANCH  10  11
DOCKED: ENDBRANCH   9  10
DOCKED: ENDBRANCH   1   9
DOCKED: TORSDOF 7
DOCKED: TER
DOCKED: ENDMDL
________________________________________________________________________________


	BEGINNING GENETIC ALGORITHM DOCKING 17 of 100
Run: 17 Seed: 425362190 497230674 [ Run 17 of 100 GA/GALS ]
Beginning LAMARCKIAN GENETIC ALGORITHM (LGA), with a maximum of 2500000 energy evaluations.

Final-Value: -11.704


	FINAL GENETIC ALGORITHM DOCKED STATE
	_______________________________________________


Detailed state:  trans 24.586 -16.396 -2.915 quatxyzw -0.441352 -0.415593 0.490060 -0.626364 center 0.010 0.634 0.018 ntor 7 25.7385 89.4315 -41.6909 -58.9596 -147.6294 -75.4908 -48.0329
State:	 24.586 -16.396  -2.915  -0.566 -0.533  0.629 -102.435     25.74   89.43  -41.69  -58.96 -147.63  -75.49  -48.03

DOCKED: MODEL       17
DOCKED: USER    Run = 17
DOCKED: USER    DPF = ligand_dock.biased.dpf
DOCKED: USER  
DOCKED: USER    Estimated Free Energy of Binding    =   -9.13 kcal/mol  [=(1)+(2)+(3)-(4)]
DOCKED: USER    Estimated Inhibition Constant, Ki   =  201.84 nM (nanomolar)  [Temperature = 298.15 K]
DOCKED: USER    
DOCKED: USER    (1) Final Intermolecular Energy     =  -11.22 kcal/mol
DOCKED: USER        vdW + Hbond + desolv Energy     =  -11.22 kcal/mol
DOCKED: USER        Electrostatic Energy            =   +0.00 kcal/mol
DOCKED: USER    (2) Final Total Internal Energy     =   -0.48 kcal/mol
DOCKED: USER    (3) Torsional Free Energy           =   +2.09 kcal/mol
DOCKED: USER    (4) Unbound System's Energy  [=(2)] =   -0.48 kcal/mol
DOCKED: USER    
DOCKED: USER    
DOCKED: USER    NEWDPF move ligand.pdbqt
DOCKED: USER    NEWDPF about 0.010000 0.634000 0.018000
DOCKED: USER    NEWDPF tran0 24.586481 -16.396464 -2.914691
DOCKED: USER    NEWDPF quaternion0 -0.441352 -0.415593 0.490060 -0.626364
DOCKED: USER    NEWDPF axisangle0 -0.566177 -0.533132 0.628660 -102.435189
DOCKED: USER    NEWDPF quat0 -0.566177 -0.533132 0.628660 -102.435189
DOCKED: USER    NEWDPF dihe0 25.74 89.43 -41.69 -58.96 -147.63 -75.49 -48.03 
DOCKED: USER  keepresnum = 1 
DOCKED: USER  
DOCKED: REMARK  Name = 
DOCKED: REMARK  7 active torsions:
DOCKED: REMARK  status: ('A' for Active; 'I' for Inactive)
DOCKED: REMARK    1  A    between atoms: C_3  and  C_4
DOCKED: REMARK    2  A    between atoms: C_4  and  C_5
DOCKED: REMARK    3  A    between atoms: C_5  and  C_6
DOCKED: REMARK    4  A    between atoms: C_6  and  C_7
DOCKED: REMARK    5  A    between atoms: C_7  and  C_8
DOCKED: REMARK    6  A    between atoms: C_8  and  C_9
DOCKED: REMARK    7  A    between atoms: C_9  and  C_10
DOCKED: REMARK                            x       y       z     vdW  Elec       q    Type
DOCKED: REMARK                         _______ _______ _______ _____ _____    ______ ____
DOCKED: USER                              x       y       z     vdW  Elec       q    Type
DOCKED: USER                           _______ _______ _______ _____ _____    ______ ____
DOCKED: ROOT
DOCKED: ATOM      1  C   UNL     1      24.769 -16.129  -0.730 -0.35 -0.00    +0.000 C 
DOCKED: ENDROOT
DOCKED: BRANCH   1   2
DOCKED: ATOM      2  C   UNL     1      25.846 -15.611  -1.696 -0.48 -0.00    +0.000 C 
DOCKED: BRANCH   2   3
DOCKED: ATOM      3  C   UNL     1      25.797 -16.366  -3.028 -0.41 -0.00    +0.000 C 
DOCKED: BRANCH   3   6
DOCKED: ATOM      4  O   UNL     1      27.405 -14.586  -5.951 -0.64 -0.00    +0.000 OA
DOCKED: ATOM      5  N   UNL     1      27.212 -15.450  -4.927 -0.46 -0.00    +0.000 N 
DOCKED: ATOM      6  C   UNL     1      25.998 -15.420  -4.174 -0.59 -0.00    +0.000 C 
DOCKED: ATOM      7  O   UNL     1      25.108 -14.571  -4.448 -1.02 -0.00    +0.000 OA
DOCKED: ATOM      8  H   UNL     1      27.913 -16.103  -4.699 -0.03 -0.00    +0.000 HD
DOCKED: ENDBRANCH   3   6
DOCKED: ENDBRANCH   2   3
DOCKED: ENDBRANCH   1   2
DOCKED: BRANCH   1   9
DOCKED: ATOM      9  C   UNL     1      24.603 -17.659  -0.780 -0.73 -0.00    +0.000 C 
DOCKED: BRANCH   9  10
DOCKED: ATOM     10  C   UNL     1      23.292 -18.151  -1.420 -0.75 -0.00    +0.000 C 
DOCKED: BRANCH  10  11
DOCKED: ATOM     11  C   UNL     1      22.641 -19.302  -0.641 -0.74 -0.00    +0.000 C 
DOCKED: BRANCH  11  12
DOCKED: ATOM     12  C   UNL     1      21.202 -18.994  -0.359 -0.85 -0.00    +0.000 C 
DOCKED: ATOM     13  N   UNL     1      20.364 -19.972   0.258 -0.72 -0.00    +0.000 N 
DOCKED: ATOM     14  O   UNL     1      19.058 -19.704   0.499 -0.84 -0.00    +0.000 OA
DOCKED: ATOM     15  O   UNL     1      20.721 -17.881  -0.706 -2.30 -0.00    +0.000 OA
DOCKED: ATOM     16  H   UNL     1      20.737 -20.847   0.511 -0.31 -0.00    +0.000 HD
DOCKED: ENDBRANCH  11  12
DOCKED: ENDBRANCH  10  11
DOCKED: ENDBRANCH   9  10
DOCKED: ENDBRANCH   1   9
DOCKED: TORSDOF 7
DOCKED: TER
DOCKED: ENDMDL
________________________________________________________________________________


	BEGINNING GENETIC ALGORITHM DOCKING 18 of 100
Run: 18 Seed: 1179592777 15036648 [ Run 18 of 100 GA/GALS ]
Beginning LAMARCKIAN GENETIC ALGORITHM (LGA), with a maximum of 2500000 energy evaluations.

Final-Value: -12.112


	FINAL GENETIC ALGORITHM DOCKED STATE
	_______________________________________________


Detailed state:  trans 23.500 -17.278 -2.031 quatxyzw 0.631734 -0.691348 0.103749 0.334943 center 0.010 0.634 0.018 ntor 7 -63.5616 -165.2403 -38.3124 7.2099 180.0000 -116.8439 -153.1651
State:	 23.500 -17.278  -2.031   0.670 -0.734  0.110 140.862    -63.56 -165.24  -38.31    7.21  180.00 -116.84 -153.17

DOCKED: MODEL       18
DOCKED: USER    Run = 18
DOCKED: USER    DPF = ligand_dock.biased.dpf
DOCKED: USER  
DOCKED: USER    Estimated Free Energy of Binding    =   -9.59 kcal/mol  [=(1)+(2)+(3)-(4)]
DOCKED: USER    Estimated Inhibition Constant, Ki   =   93.73 nM (nanomolar)  [Temperature = 298.15 K]
DOCKED: USER    
DOCKED: USER    (1) Final Intermolecular Energy     =  -11.68 kcal/mol
DOCKED: USER        vdW + Hbond + desolv Energy     =  -11.68 kcal/mol
DOCKED: USER        Electrostatic Energy            =   +0.00 kcal/mol
DOCKED: USER    (2) Final Total Internal Energy     =   -0.44 kcal/mol
DOCKED: USER    (3) Torsional Free Energy           =   +2.09 kcal/mol
DOCKED: USER    (4) Unbound System's Energy  [=(2)] =   -0.44 kcal/mol
DOCKED: USER    
DOCKED: USER    
DOCKED: USER    NEWDPF move ligand.pdbqt
DOCKED: USER    NEWDPF about 0.010000 0.634000 0.018000
DOCKED: USER    NEWDPF tran0 23.499809 -17.277913 -2.031028
DOCKED: USER    NEWDPF quaternion0 0.631734 -0.691348 0.103749 0.334943
DOCKED: USER    NEWDPF axisangle0 0.670461 -0.733729 0.110109 140.861796
DOCKED: USER    NEWDPF quat0 0.670461 -0.733729 0.110109 140.861796
DOCKED: USER    NEWDPF dihe0 -63.56 -165.24 -38.31 7.21 180.00 -116.84 -153.17 
DOCKED: USER  keepresnum = 1 
DOCKED: USER  
DOCKED: REMARK  Name = 
DOCKED: REMARK  7 active torsions:
DOCKED: REMARK  status: ('A' for Active; 'I' for Inactive)
DOCKED: REMARK    1  A    between atoms: C_3  and  C_4
DOCKED: REMARK    2  A    between atoms: C_4  and  C_5
DOCKED: REMARK    3  A    between atoms: C_5  and  C_6
DOCKED: REMARK    4  A    between atoms: C_6  and  C_7
DOCKED: REMARK    5  A    between atoms: C_7  and  C_8
DOCKED: REMARK    6  A    between atoms: C_8  and  C_9
DOCKED: REMARK    7  A    between atoms: C_9  and  C_10
DOCKED: REMARK                            x       y       z     vdW  Elec       q    Type
DOCKED: REMARK                         _______ _______ _______ _____ _____    ______ ____
DOCKED: USER                              x       y       z     vdW  Elec       q    Type
DOCKED: USER                           _______ _______ _______ _____ _____    ______ ____
DOCKED: ROOT
DOCKED: ATOM      1  C   UNL     1      25.469 -17.992  -1.333 -0.48 -0.00    +0.000 C 
DOCKED: ENDROOT
DOCKED: BRANCH   1   2
DOCKED: ATOM      2  C   UNL     1      24.180 -18.774  -1.038 -0.69 -0.00    +0.000 C 
DOCKED: BRANCH   2   3
DOCKED: ATOM      3  C   UNL     1      23.147 -17.886  -0.340 -0.79 -0.00    +0.000 C 
DOCKED: BRANCH   3   6
DOCKED: ATOM      4  O   UNL     1      20.255 -19.742  -1.918 -2.36 -0.00    +0.000 OA
DOCKED: ATOM      5  N   UNL     1      21.497 -19.457  -1.462 -0.70 -0.00    +0.000 N 
DOCKED: ATOM      6  C   UNL     1      21.765 -18.206  -0.826 -0.81 -0.00    +0.000 C 
DOCKED: ATOM      7  O   UNL     1      20.847 -17.351  -0.706 -1.92 +0.00    +0.000 OA
DOCKED: ATOM      8  H   UNL     1      22.221 -20.115  -1.570 -0.40 -0.00    +0.000 HD
DOCKED: ENDBRANCH   3   6
DOCKED: ENDBRANCH   2   3
DOCKED: ENDBRANCH   1   2
DOCKED: BRANCH   1   9
DOCKED: ATOM      9  C   UNL     1      25.477 -16.588  -0.703 -0.54 -0.00    +0.000 C 
DOCKED: BRANCH   9  10
DOCKED: ATOM     10  C   UNL     1      26.854 -16.100  -0.217 -0.40 -0.00    +0.000 C 
DOCKED: BRANCH  10  11
DOCKED: ATOM     11  C   UNL     1      26.800 -14.714   0.440 -0.19 -0.00    +0.000 C 
DOCKED: BRANCH  11  12
DOCKED: ATOM     12  C   UNL     1      28.179 -14.141   0.565 -0.22 -0.00    +0.000 C 
DOCKED: ATOM     13  N   UNL     1      29.039 -14.557   1.628 -0.18 -0.00    +0.000 N 
DOCKED: ATOM     14  O   UNL     1      30.279 -14.029   1.755 -0.14 -0.00    +0.000 OA
DOCKED: ATOM     15  O   UNL     1      28.565 -13.258  -0.247 -0.10 -0.00    +0.000 OA
DOCKED: ATOM     16  H   UNL     1      28.728 -15.233   2.273 -1.76 -0.00    +0.000 HD
DOCKED: ENDBRANCH  11  12
DOCKED: ENDBRANCH  10  11
DOCKED: ENDBRANCH   9  10
DOCKED: ENDBRANCH   1   9
DOCKED: TORSDOF 7
DOCKED: TER
DOCKED: ENDMDL
________________________________________________________________________________


	BEGINNING GENETIC ALGORITHM DOCKING 19 of 100
Run: 19 Seed: 2111002226 839270456 [ Run 19 of 100 GA/GALS ]
Beginning LAMARCKIAN GENETIC ALGORITHM (LGA), with a maximum of 2500000 energy evaluations.

Final-Value: -11.773


	FINAL GENETIC ALGORITHM DOCKED STATE
	_______________________________________________


Detailed state:  trans 24.680 -15.329 -1.740 quatxyzw -0.139217 0.365913 0.011754 -0.920102 center 0.010 0.634 0.018 ntor 7 -1.4393 151.9535 -78.9656 65.9137 -92.3767 -8.0265 148.7933
State:	 24.680 -15.329  -1.740  -0.355  0.934  0.030 -46.118     -1.44  151.95  -78.97   65.91  -92.38   -8.03  148.79

DOCKED: MODEL       19
DOCKED: USER    Run = 19
DOCKED: USER    DPF = ligand_dock.biased.dpf
DOCKED: USER  
DOCKED: USER    Estimated Free Energy of Binding    =   -9.16 kcal/mol  [=(1)+(2)+(3)-(4)]
DOCKED: USER    Estimated Inhibition Constant, Ki   =  193.79 nM (nanomolar)  [Temperature = 298.15 K]
DOCKED: USER    
DOCKED: USER    (1) Final Intermolecular Energy     =  -11.25 kcal/mol
DOCKED: USER        vdW + Hbond + desolv Energy     =  -11.25 kcal/mol
DOCKED: USER        Electrostatic Energy            =   +0.00 kcal/mol
DOCKED: USER    (2) Final Total Internal Energy     =   -0.53 kcal/mol
DOCKED: USER    (3) Torsional Free Energy           =   +2.09 kcal/mol
DOCKED: USER    (4) Unbound System's Energy  [=(2)] =   -0.53 kcal/mol
DOCKED: USER    
DOCKED: USER    
DOCKED: USER    NEWDPF move ligand.pdbqt
DOCKED: USER    NEWDPF about 0.010000 0.634000 0.018000
DOCKED: USER    NEWDPF tran0 24.679552 -15.328972 -1.739760
DOCKED: USER    NEWDPF quaternion0 -0.139217 0.365913 0.011754 -0.920102
DOCKED: USER    NEWDPF axisangle0 -0.355438 0.934218 0.030009 -46.117997
DOCKED: USER    NEWDPF quat0 -0.355438 0.934218 0.030009 -46.117997
DOCKED: USER    NEWDPF dihe0 -1.44 151.95 -78.97 65.91 -92.38 -8.03 148.79 
DOCKED: USER  keepresnum = 1 
DOCKED: USER  
DOCKED: REMARK  Name = 
DOCKED: REMARK  7 active torsions:
DOCKED: REMARK  status: ('A' for Active; 'I' for Inactive)
DOCKED: REMARK    1  A    between atoms: C_3  and  C_4
DOCKED: REMARK    2  A    between atoms: C_4  and  C_5
DOCKED: REMARK    3  A    between atoms: C_5  and  C_6
DOCKED: REMARK    4  A    between atoms: C_6  and  C_7
DOCKED: REMARK    5  A    between atoms: C_7  and  C_8
DOCKED: REMARK    6  A    between atoms: C_8  and  C_9
DOCKED: REMARK    7  A    between atoms: C_9  and  C_10
DOCKED: REMARK                            x       y       z     vdW  Elec       q    Type
DOCKED: REMARK                         _______ _______ _______ _____ _____    ______ ____
DOCKED: USER                              x       y       z     vdW  Elec       q    Type
DOCKED: USER                           _______ _______ _______ _____ _____    ______ ____
DOCKED: ROOT
DOCKED: ATOM      1  C   UNL     1      25.593 -17.276  -1.239 -0.62 -0.00    +0.000 C 
DOCKED: ENDROOT
DOCKED: BRANCH   1   2
DOCKED: ATOM      2  C   UNL     1      25.142 -16.944  -2.670 -0.40 -0.00    +0.000 C 
DOCKED: BRANCH   2   3
DOCKED: ATOM      3  C   UNL     1      25.314 -15.452  -2.967 -0.51 -0.00    +0.000 C 
DOCKED: BRANCH   3   6
DOCKED: ATOM      4  O   UNL     1      27.616 -15.216  -5.958 -0.98 +0.00    +0.000 OA
DOCKED: ATOM      5  N   UNL     1      26.504 -15.406  -5.210 -0.54 +0.00    +0.000 N 
DOCKED: ATOM      6  C   UNL     1      26.543 -15.221  -3.794 -0.51 -0.00    +0.000 C 
DOCKED: ATOM      7  O   UNL     1      27.624 -14.899  -3.231 -0.26 -0.00    +0.000 OA
DOCKED: ATOM      8  H   UNL     1      25.662 -15.674  -5.644 -0.09 +0.00    +0.000 HD
DOCKED: ENDBRANCH   3   6
DOCKED: ENDBRANCH   2   3
DOCKED: ENDBRANCH   1   2
DOCKED: BRANCH   1   9
DOCKED: ATOM      9  C   UNL     1      24.432 -17.279  -0.228 -0.41 -0.00    +0.000 C 
DOCKED: BRANCH   9  10
DOCKED: ATOM     10  C   UNL     1      23.688 -18.621  -0.096 -0.66 -0.00    +0.000 C 
DOCKED: BRANCH  10  11
DOCKED: ATOM     11  C   UNL     1      22.865 -18.974  -1.341 -0.78 -0.00    +0.000 C 
DOCKED: BRANCH  11  12
DOCKED: ATOM     12  C   UNL     1      21.402 -18.794  -1.070 -0.82 -0.00    +0.000 C 
DOCKED: ATOM     13  N   UNL     1      20.497 -19.886  -1.241 -0.73 -0.00    +0.000 N 
DOCKED: ATOM     14  O   UNL     1      19.173 -19.722  -1.013 -1.62 -0.00    +0.000 OA
DOCKED: ATOM     15  O   UNL     1      20.965 -17.662  -0.728 -2.12 -0.00    +0.000 OA
DOCKED: ATOM     16  H   UNL     1      20.839 -20.764  -1.527 -0.20 -0.00    +0.000 HD
DOCKED: ENDBRANCH  11  12
DOCKED: ENDBRANCH  10  11
DOCKED: ENDBRANCH   9  10
DOCKED: ENDBRANCH   1   9
DOCKED: TORSDOF 7
DOCKED: TER
DOCKED: ENDMDL
________________________________________________________________________________


	BEGINNING GENETIC ALGORITHM DOCKING 20 of 100
Run: 20 Seed: 1808932195 965197766 [ Run 20 of 100 GA/GALS ]
Beginning LAMARCKIAN GENETIC ALGORITHM (LGA), with a maximum of 2500000 energy evaluations.

Final-Value: -12.561


	FINAL GENETIC ALGORITHM DOCKED STATE
	_______________________________________________


Detailed state:  trans 25.039 -18.210 -2.264 quatxyzw -0.211156 0.509890 -0.820490 -0.149071 center 0.010 0.634 0.018 ntor 7 108.2346 -158.9721 -64.5533 17.6465 -45.5513 -179.6833 24.2134
State:	 25.039 -18.210  -2.264  -0.214  0.516 -0.830 -162.854    108.23 -158.97  -64.55   17.65  -45.55 -179.68   24.21

DOCKED: MODEL       20
DOCKED: USER    Run = 20
DOCKED: USER    DPF = ligand_dock.biased.dpf
DOCKED: USER  
DOCKED: USER    Estimated Free Energy of Binding    =   -9.93 kcal/mol  [=(1)+(2)+(3)-(4)]
DOCKED: USER    Estimated Inhibition Constant, Ki   =   52.34 nM (nanomolar)  [Temperature = 298.15 K]
DOCKED: USER    
DOCKED: USER    (1) Final Intermolecular Energy     =  -12.02 kcal/mol
DOCKED: USER        vdW + Hbond + desolv Energy     =  -12.02 kcal/mol
DOCKED: USER        Electrostatic Energy            =   +0.00 kcal/mol
DOCKED: USER    (2) Final Total Internal Energy     =   -0.54 kcal/mol
DOCKED: USER    (3) Torsional Free Energy           =   +2.09 kcal/mol
DOCKED: USER    (4) Unbound System's Energy  [=(2)] =   -0.54 kcal/mol
DOCKED: USER    
DOCKED: USER    
DOCKED: USER    NEWDPF move ligand.pdbqt
DOCKED: USER    NEWDPF about 0.010000 0.634000 0.018000
DOCKED: USER    NEWDPF tran0 25.038921 -18.210246 -2.263839
DOCKED: USER    NEWDPF quaternion0 -0.211156 0.509890 -0.820490 -0.149071
DOCKED: USER    NEWDPF axisangle0 -0.213542 0.515651 -0.829761 -162.853826
DOCKED: USER    NEWDPF quat0 -0.213542 0.515651 -0.829761 -162.853826
DOCKED: USER    NEWDPF dihe0 108.23 -158.97 -64.55 17.65 -45.55 -179.68 24.21 
DOCKED: USER  keepresnum = 1 
DOCKED: USER  
DOCKED: REMARK  Name = 
DOCKED: REMARK  7 active torsions:
DOCKED: REMARK  status: ('A' for Active; 'I' for Inactive)
DOCKED: REMARK    1  A    between atoms: C_3  and  C_4
DOCKED: REMARK    2  A    between atoms: C_4  and  C_5
DOCKED: REMARK    3  A    between atoms: C_5  and  C_6
DOCKED: REMARK    4  A    between atoms: C_6  and  C_7
DOCKED: REMARK    5  A    between atoms: C_7  and  C_8
DOCKED: REMARK    6  A    between atoms: C_8  and  C_9
DOCKED: REMARK    7  A    between atoms: C_9  and  C_10
DOCKED: REMARK                            x       y       z     vdW  Elec       q    Type
DOCKED: REMARK                         _______ _______ _______ _____ _____    ______ ____
DOCKED: USER                              x       y       z     vdW  Elec       q    Type
DOCKED: USER                           _______ _______ _______ _____ _____    ______ ____
DOCKED: ROOT
DOCKED: ATOM      1  C   UNL     1      24.777 -17.859  -0.099 -0.64 -0.00    +0.000 C 
DOCKED: ENDROOT
DOCKED: BRANCH   1   2
DOCKED: ATOM      2  C   UNL     1      23.668 -17.524  -1.108 -0.74 -0.00    +0.000 C 
DOCKED: BRANCH   2   3
DOCKED: ATOM      3  C   UNL     1      22.898 -18.783  -1.514 -0.71 -0.00    +0.000 C 
DOCKED: BRANCH   3   6
DOCKED: ATOM      4  O   UNL     1      19.321 -19.746  -0.753 -1.60 -0.00    +0.000 OA
DOCKED: ATOM      5  N   UNL     1      20.619 -19.835  -1.127 -0.78 -0.00    +0.000 N 
DOCKED: ATOM      6  C   UNL     1      21.466 -18.686  -1.080 -0.81 -0.00    +0.000 C 
DOCKED: ATOM      7  O   UNL     1      21.000 -17.575  -0.708 -2.10 -0.00    +0.000 OA
DOCKED: ATOM      8  H   UNL     1      20.981 -20.697  -1.435 -0.20 -0.00    +0.000 HD
DOCKED: ENDBRANCH   3   6
DOCKED: ENDBRANCH   2   3
DOCKED: ENDBRANCH   1   2
DOCKED: BRANCH   1   9
DOCKED: ATOM      9  C   UNL     1      26.064 -17.046  -0.329 -0.55 -0.00    +0.000 C 
DOCKED: BRANCH   9  10
DOCKED: ATOM     10  C   UNL     1      26.418 -16.791  -1.805 -0.49 -0.00    +0.000 C 
DOCKED: BRANCH  10  11
DOCKED: ATOM     11  C   UNL     1      26.454 -15.300  -2.164 -0.40 -0.00    +0.000 C 
DOCKED: BRANCH  11  12
DOCKED: ATOM     12  C   UNL     1      26.192 -15.108  -3.627 -0.53 -0.00    +0.000 C 
DOCKED: ATOM     13  N   UNL     1      27.196 -15.439  -4.588 -0.44 -0.00    +0.000 N 
DOCKED: ATOM     14  O   UNL     1      26.970 -15.251  -5.910 -1.04 +0.00    +0.000 OA
DOCKED: ATOM     15  O   UNL     1      25.096 -14.613  -4.006 -0.97 -0.00    +0.000 OA
DOCKED: ATOM     16  H   UNL     1      28.058 -15.807  -4.288 -0.02 -0.00    +0.000 HD
DOCKED: ENDBRANCH  11  12
DOCKED: ENDBRANCH  10  11
DOCKED: ENDBRANCH   9  10
DOCKED: ENDBRANCH   1   9
DOCKED: TORSDOF 7
DOCKED: TER
DOCKED: ENDMDL
________________________________________________________________________________


	BEGINNING GENETIC ALGORITHM DOCKING 21 of 100
Run: 21 Seed: 2138209419 1566776678 [ Run 21 of 100 GA/GALS ]
Beginning LAMARCKIAN GENETIC ALGORITHM (LGA), with a maximum of 2500000 energy evaluations.

Final-Value: -12.343


	FINAL GENETIC ALGORITHM DOCKED STATE
	_______________________________________________


Detailed state:  trans 27.054 -16.932 -1.777 quatxyzw -0.676201 -0.573350 0.375466 0.270272 center 0.010 0.634 0.018 ntor 7 174.0718 122.2259 111.0641 11.5129 5.1985 175.8722 -173.6183
State:	 27.054 -16.932  -1.777  -0.702 -0.596  0.390 148.639    174.07  122.23  111.06   11.51    5.20  175.87 -173.62

DOCKED: MODEL       21
DOCKED: USER    Run = 21
DOCKED: USER    DPF = ligand_dock.biased.dpf
DOCKED: USER  
DOCKED: USER    Estimated Free Energy of Binding    =   -9.84 kcal/mol  [=(1)+(2)+(3)-(4)]
DOCKED: USER    Estimated Inhibition Constant, Ki   =   61.70 nM (nanomolar)  [Temperature = 298.15 K]
DOCKED: USER    
DOCKED: USER    (1) Final Intermolecular Energy     =  -11.92 kcal/mol
DOCKED: USER        vdW + Hbond + desolv Energy     =  -11.92 kcal/mol
DOCKED: USER        Electrostatic Energy            =   +0.00 kcal/mol
DOCKED: USER    (2) Final Total Internal Energy     =   -0.42 kcal/mol
DOCKED: USER    (3) Torsional Free Energy           =   +2.09 kcal/mol
DOCKED: USER    (4) Unbound System's Energy  [=(2)] =   -0.42 kcal/mol
DOCKED: USER    
DOCKED: USER    
DOCKED: USER    NEWDPF move ligand.pdbqt
DOCKED: USER    NEWDPF about 0.010000 0.634000 0.018000
DOCKED: USER    NEWDPF tran0 27.054100 -16.931913 -1.777331
DOCKED: USER    NEWDPF quaternion0 -0.676201 -0.573350 0.375466 0.270272
DOCKED: USER    NEWDPF axisangle0 -0.702339 -0.595513 0.389980 148.639065
DOCKED: USER    NEWDPF quat0 -0.702339 -0.595513 0.389980 148.639065
DOCKED: USER    NEWDPF dihe0 174.07 122.23 111.06 11.51 5.20 175.87 -173.62 
DOCKED: USER  keepresnum = 1 
DOCKED: USER  
DOCKED: REMARK  Name = 
DOCKED: REMARK  7 active torsions:
DOCKED: REMARK  status: ('A' for Active; 'I' for Inactive)
DOCKED: REMARK    1  A    between atoms: C_3  and  C_4
DOCKED: REMARK    2  A    between atoms: C_4  and  C_5
DOCKED: REMARK    3  A    between atoms: C_5  and  C_6
DOCKED: REMARK    4  A    between atoms: C_6  and  C_7
DOCKED: REMARK    5  A    between atoms: C_7  and  C_8
DOCKED: REMARK    6  A    between atoms: C_8  and  C_9
DOCKED: REMARK    7  A    between atoms: C_9  and  C_10
DOCKED: REMARK                            x       y       z     vdW  Elec       q    Type
DOCKED: REMARK                         _______ _______ _______ _____ _____    ______ ____
DOCKED: USER                              x       y       z     vdW  Elec       q    Type
DOCKED: USER                           _______ _______ _______ _____ _____    ______ ____
DOCKED: ROOT
DOCKED: ATOM      1  C   UNL     1      24.933 -16.593  -2.292 -0.52 -0.00    +0.000 C 
DOCKED: ENDROOT
DOCKED: BRANCH   1   2
DOCKED: ATOM      2  C   UNL     1      25.922 -15.426  -2.148 -0.47 -0.00    +0.000 C 
DOCKED: BRANCH   2   3
DOCKED: ATOM      3  C   UNL     1      25.843 -14.488  -3.356 -0.49 -0.00    +0.000 C 
DOCKED: BRANCH   3   6
DOCKED: ATOM      4  O   UNL     1      28.128 -15.480  -6.202 -0.75 +0.00    +0.000 OA
DOCKED: ATOM      5  N   UNL     1      27.666 -14.877  -5.081 -0.40 -0.00    +0.000 N 
DOCKED: ATOM      6  C   UNL     1      26.359 -15.173  -4.587 -0.56 -0.00    +0.000 C 
DOCKED: ATOM      7  O   UNL     1      25.619 -15.984  -5.207 -1.08 +0.00    +0.000 OA
DOCKED: ATOM      8  H   UNL     1      28.234 -14.230  -4.604 +0.00 -0.00    +0.000 HD
DOCKED: ENDBRANCH   3   6
DOCKED: ENDBRANCH   2   3
DOCKED: ENDBRANCH   1   2
DOCKED: BRANCH   1   9
DOCKED: ATOM      9  C   UNL     1      24.748 -17.387  -0.986 -0.70 -0.00    +0.000 C 
DOCKED: BRANCH   9  10
DOCKED: ATOM     10  C   UNL     1      23.292 -17.515  -0.503 -0.74 -0.00    +0.000 C 
DOCKED: BRANCH  10  11
DOCKED: ATOM     11  C   UNL     1      22.777 -18.960  -0.532 -0.80 -0.00    +0.000 C 
DOCKED: BRANCH  11  12
DOCKED: ATOM     12  C   UNL     1      21.279 -18.982  -0.507 -0.86 -0.00    +0.000 C 
DOCKED: ATOM     13  N   UNL     1      20.583 -20.100   0.046 -0.72 -0.00    +0.000 N 
DOCKED: ATOM     14  O   UNL     1      19.229 -20.131   0.055 -1.13 -0.00    +0.000 OA
DOCKED: ATOM     15  O   UNL     1      20.632 -18.026  -1.015 -2.20 -0.00    +0.000 OA
DOCKED: ATOM     16  H   UNL     1      21.091 -20.854   0.424 -0.50 -0.00    +0.000 HD
DOCKED: ENDBRANCH  11  12
DOCKED: ENDBRANCH  10  11
DOCKED: ENDBRANCH   9  10
DOCKED: ENDBRANCH   1   9
DOCKED: TORSDOF 7
DOCKED: TER
DOCKED: ENDMDL
________________________________________________________________________________


	BEGINNING GENETIC ALGORITHM DOCKING 22 of 100
Run: 22 Seed: 1023681766 1847341546 [ Run 22 of 100 GA/GALS ]
Beginning LAMARCKIAN GENETIC ALGORITHM (LGA), with a maximum of 2500000 energy evaluations.

Final-Value: -11.561


	FINAL GENETIC ALGORITHM DOCKED STATE
	_______________________________________________


Detailed state:  trans 26.592 -15.406 -3.172 quatxyzw 0.476371 0.693825 -0.342113 0.417895 center 0.010 0.634 0.018 ntor 7 -172.6489 110.3593 164.1813 90.2911 -85.4399 170.1748 -174.4500
State:	 26.592 -15.406  -3.172   0.524  0.764 -0.377 130.596   -172.65  110.36  164.18   90.29  -85.44  170.17 -174.45

DOCKED: MODEL       22
DOCKED: USER    Run = 22
DOCKED: USER    DPF = ligand_dock.biased.dpf
DOCKED: USER  
DOCKED: USER    Estimated Free Energy of Binding    =   -8.75 kcal/mol  [=(1)+(2)+(3)-(4)]
DOCKED: USER    Estimated Inhibition Constant, Ki   =  383.27 nM (nanomolar)  [Temperature = 298.15 K]
DOCKED: USER    
DOCKED: USER    (1) Final Intermolecular Energy     =  -10.84 kcal/mol
DOCKED: USER        vdW + Hbond + desolv Energy     =  -10.84 kcal/mol
DOCKED: USER        Electrostatic Energy            =   +0.00 kcal/mol
DOCKED: USER    (2) Final Total Internal Energy     =   -0.72 kcal/mol
DOCKED: USER    (3) Torsional Free Energy           =   +2.09 kcal/mol
DOCKED: USER    (4) Unbound System's Energy  [=(2)] =   -0.72 kcal/mol
DOCKED: USER    
DOCKED: USER    
DOCKED: USER    NEWDPF move ligand.pdbqt
DOCKED: USER    NEWDPF about 0.010000 0.634000 0.018000
DOCKED: USER    NEWDPF tran0 26.592100 -15.406193 -3.172315
DOCKED: USER    NEWDPF quaternion0 0.476371 0.693825 -0.342113 0.417895
DOCKED: USER    NEWDPF axisangle0 0.524352 0.763708 -0.376571 130.596433
DOCKED: USER    NEWDPF quat0 0.524352 0.763708 -0.376571 130.596433
DOCKED: USER    NEWDPF dihe0 -172.65 110.36 164.18 90.29 -85.44 170.17 -174.45 
DOCKED: USER  keepresnum = 1 
DOCKED: USER  
DOCKED: REMARK  Name = 
DOCKED: REMARK  7 active torsions:
DOCKED: REMARK  status: ('A' for Active; 'I' for Inactive)
DOCKED: REMARK    1  A    between atoms: C_3  and  C_4
DOCKED: REMARK    2  A    between atoms: C_4  and  C_5
DOCKED: REMARK    3  A    between atoms: C_5  and  C_6
DOCKED: REMARK    4  A    between atoms: C_6  and  C_7
DOCKED: REMARK    5  A    between atoms: C_7  and  C_8
DOCKED: REMARK    6  A    between atoms: C_8  and  C_9
DOCKED: REMARK    7  A    between atoms: C_9  and  C_10
DOCKED: REMARK                            x       y       z     vdW  Elec       q    Type
DOCKED: REMARK                         _______ _______ _______ _____ _____    ______ ____
DOCKED: USER                              x       y       z     vdW  Elec       q    Type
DOCKED: USER                           _______ _______ _______ _____ _____    ______ ____
DOCKED: ROOT
DOCKED: ATOM      1  C   UNL     1      25.304 -15.638  -1.394 -0.43 -0.00    +0.000 C 
DOCKED: ENDROOT
DOCKED: BRANCH   1   2
DOCKED: ATOM      2  C   UNL     1      26.550 -14.739  -1.372 -0.34 -0.00    +0.000 C 
DOCKED: BRANCH   2   3
DOCKED: ATOM      3  C   UNL     1      26.694 -13.970  -2.688 -0.30 -0.00    +0.000 C 
DOCKED: BRANCH   3   6
DOCKED: ATOM      4  O   UNL     1      25.507 -16.143  -5.546 -0.95 +0.00    +0.000 OA
DOCKED: ATOM      5  N   UNL     1      26.296 -15.616  -4.581 -0.56 -0.00    +0.000 N 
DOCKED: ATOM      6  C   UNL     1      25.810 -14.565  -3.743 -0.54 -0.00    +0.000 C 
DOCKED: ATOM      7  O   UNL     1      24.648 -14.108  -3.915 -1.07 -0.00    +0.000 OA
DOCKED: ATOM      8  H   UNL     1      27.210 -15.958  -4.455 -0.03 -0.00    +0.000 HD
DOCKED: ENDBRANCH   3   6
DOCKED: ENDBRANCH   2   3
DOCKED: ENDBRANCH   1   2
DOCKED: BRANCH   1   9
DOCKED: ATOM      9  C   UNL     1      25.635 -17.118  -1.655 -0.59 -0.00    +0.000 C 
DOCKED: BRANCH   9  10
DOCKED: ATOM     10  C   UNL     1      25.122 -18.098  -0.584 -0.71 -0.00    +0.000 C 
DOCKED: BRANCH  10  11
DOCKED: ATOM     11  C   UNL     1      23.954 -18.964  -1.076 -0.71 -0.00    +0.000 C 
DOCKED: BRANCH  11  12
DOCKED: ATOM     12  C   UNL     1      22.663 -18.212  -0.965 -0.81 -0.00    +0.000 C 
DOCKED: ATOM     13  N   UNL     1      21.416 -18.905  -1.041 -0.78 -0.00    +0.000 N 
DOCKED: ATOM     14  O   UNL     1      20.247 -18.227  -0.959 -2.11 -0.00    +0.000 OA
DOCKED: ATOM     15  O   UNL     1      22.679 -16.957  -0.844 -0.78 -0.00    +0.000 OA
DOCKED: ATOM     16  H   UNL     1      21.406 -19.883  -1.155 -0.13 -0.00    +0.000 HD
DOCKED: ENDBRANCH  11  12
DOCKED: ENDBRANCH  10  11
DOCKED: ENDBRANCH   9  10
DOCKED: ENDBRANCH   1   9
DOCKED: TORSDOF 7
DOCKED: TER
DOCKED: ENDMDL
________________________________________________________________________________


	BEGINNING GENETIC ALGORITHM DOCKING 23 of 100
Run: 23 Seed: 562957274 1669037168 [ Run 23 of 100 GA/GALS ]
Beginning LAMARCKIAN GENETIC ALGORITHM (LGA), with a maximum of 2500000 energy evaluations.

Final-Value: -13.021


	FINAL GENETIC ALGORITHM DOCKED STATE
	_______________________________________________


Detailed state:  trans 27.126 -16.524 0.119 quatxyzw -0.751390 -0.554483 -0.049485 0.354279 center 0.010 0.634 0.018 ntor 7 65.9464 41.1101 -14.6438 28.0769 -98.7351 -119.2232 136.3156
State:	 27.126 -16.524   0.119  -0.804 -0.593 -0.053 138.501     65.95   41.11  -14.64   28.08  -98.74 -119.22  136.32

DOCKED: MODEL       23
DOCKED: USER    Run = 23
DOCKED: USER    DPF = ligand_dock.biased.dpf
DOCKED: USER  
DOCKED: USER    Estimated Free Energy of Binding    =  -10.54 kcal/mol  [=(1)+(2)+(3)-(4)]
DOCKED: USER    Estimated Inhibition Constant, Ki   =   18.66 nM (nanomolar)  [Temperature = 298.15 K]
DOCKED: USER    
DOCKED: USER    (1) Final Intermolecular Energy     =  -12.63 kcal/mol
DOCKED: USER        vdW + Hbond + desolv Energy     =  -12.63 kcal/mol
DOCKED: USER        Electrostatic Energy            =   +0.00 kcal/mol
DOCKED: USER    (2) Final Total Internal Energy     =   -0.39 kcal/mol
DOCKED: USER    (3) Torsional Free Energy           =   +2.09 kcal/mol
DOCKED: USER    (4) Unbound System's Energy  [=(2)] =   -0.39 kcal/mol
DOCKED: USER    
DOCKED: USER    
DOCKED: USER    NEWDPF move ligand.pdbqt
DOCKED: USER    NEWDPF about 0.010000 0.634000 0.018000
DOCKED: USER    NEWDPF tran0 27.125790 -16.524327 0.119183
DOCKED: USER    NEWDPF quaternion0 -0.751390 -0.554483 -0.049485 0.354279
DOCKED: USER    NEWDPF axisangle0 -0.803505 -0.592941 -0.052917 138.501495
DOCKED: USER    NEWDPF quat0 -0.803505 -0.592941 -0.052917 138.501495
DOCKED: USER    NEWDPF dihe0 65.95 41.11 -14.64 28.08 -98.74 -119.22 136.32 
DOCKED: USER  keepresnum = 1 
DOCKED: USER  
DOCKED: REMARK  Name = 
DOCKED: REMARK  7 active torsions:
DOCKED: REMARK  status: ('A' for Active; 'I' for Inactive)
DOCKED: REMARK    1  A    between atoms: C_3  and  C_4
DOCKED: REMARK    2  A    between atoms: C_4  and  C_5
DOCKED: REMARK    3  A    between atoms: C_5  and  C_6
DOCKED: REMARK    4  A    between atoms: C_6  and  C_7
DOCKED: REMARK    5  A    between atoms: C_7  and  C_8
DOCKED: REMARK    6  A    between atoms: C_8  and  C_9
DOCKED: REMARK    7  A    between atoms: C_9  and  C_10
DOCKED: REMARK                            x       y       z     vdW  Elec       q    Type
DOCKED: REMARK                         _______ _______ _______ _____ _____    ______ ____
DOCKED: USER                              x       y       z     vdW  Elec       q    Type
DOCKED: USER                           _______ _______ _______ _____ _____    ______ ____
DOCKED: ROOT
DOCKED: ATOM      1  C   UNL     1      25.835 -16.032  -1.604 -0.52 -0.00    +0.000 C 
DOCKED: ENDROOT
DOCKED: BRANCH   1   2
DOCKED: ATOM      2  C   UNL     1      26.086 -15.023  -0.472 -0.33 -0.00    +0.000 C 
DOCKED: BRANCH   2   3
DOCKED: ATOM      3  C   UNL     1      27.430 -15.288   0.212 -0.32 -0.00    +0.000 C 
DOCKED: BRANCH   3   6
DOCKED: ATOM      4  O   UNL     1      28.936 -13.283   3.042 -0.23 -0.00    +0.000 OA
DOCKED: ATOM      5  N   UNL     1      28.598 -14.329   2.252 -0.25 -0.00    +0.000 N 
DOCKED: ATOM      6  C   UNL     1      27.819 -14.124   1.072 -0.27 -0.00    +0.000 C 
DOCKED: ATOM      7  O   UNL     1      27.425 -12.965   0.772 -0.23 -0.00    +0.000 OA
DOCKED: ATOM      8  H   UNL     1      28.889 -15.238   2.494 -1.95 -0.00    +0.000 HD
DOCKED: ENDBRANCH   3   6
DOCKED: ENDBRANCH   2   3
DOCKED: ENDBRANCH   1   2
DOCKED: BRANCH   1   9
DOCKED: ATOM      9  C   UNL     1      25.128 -17.311  -1.122 -0.67 -0.00    +0.000 C 
DOCKED: BRANCH   9  10
DOCKED: ATOM     10  C   UNL     1      23.627 -17.151  -0.822 -0.70 -0.00    +0.000 C 
DOCKED: BRANCH  10  11
DOCKED: ATOM     11  C   UNL     1      22.966 -18.457  -0.361 -0.82 -0.00    +0.000 C 
DOCKED: BRANCH  11  12
DOCKED: ATOM     12  C   UNL     1      21.565 -18.547  -0.884 -0.82 -0.00    +0.000 C 
DOCKED: ATOM     13  N   UNL     1      21.143 -19.696  -1.622 -0.66 -0.00    +0.000 N 
DOCKED: ATOM     14  O   UNL     1      19.883 -19.774  -2.111 -2.32 -0.00    +0.000 OA
DOCKED: ATOM     15  O   UNL     1      20.769 -17.586  -0.707 -2.13 +0.00    +0.000 OA
DOCKED: ATOM     16  H   UNL     1      21.773 -20.437  -1.775 -0.41 -0.00    +0.000 HD
DOCKED: ENDBRANCH  11  12
DOCKED: ENDBRANCH  10  11
DOCKED: ENDBRANCH   9  10
DOCKED: ENDBRANCH   1   9
DOCKED: TORSDOF 7
DOCKED: TER
DOCKED: ENDMDL
________________________________________________________________________________


	BEGINNING GENETIC ALGORITHM DOCKING 24 of 100
Run: 24 Seed: 2032831690 987093775 [ Run 24 of 100 GA/GALS ]
Beginning LAMARCKIAN GENETIC ALGORITHM (LGA), with a maximum of 2500000 energy evaluations.

Final-Value: -12.516


	FINAL GENETIC ALGORITHM DOCKED STATE
	_______________________________________________


Detailed state:  trans 23.832 -18.294 -2.531 quatxyzw -0.613500 0.358687 -0.701956 0.047116 center 0.010 0.634 0.018 ntor 7 73.3365 106.7151 2.6261 -139.3675 -85.7522 -159.9807 144.4311
State:	 23.832 -18.294  -2.531  -0.614  0.359 -0.703 174.599     73.34  106.72    2.63 -139.37  -85.75 -159.98  144.43

DOCKED: MODEL       24
DOCKED: USER    Run = 24
DOCKED: USER    DPF = ligand_dock.biased.dpf
DOCKED: USER  
DOCKED: USER    Estimated Free Energy of Binding    =  -10.11 kcal/mol  [=(1)+(2)+(3)-(4)]
DOCKED: USER    Estimated Inhibition Constant, Ki   =   38.56 nM (nanomolar)  [Temperature = 298.15 K]
DOCKED: USER    
DOCKED: USER    (1) Final Intermolecular Energy     =  -12.20 kcal/mol
DOCKED: USER        vdW + Hbond + desolv Energy     =  -12.20 kcal/mol
DOCKED: USER        Electrostatic Energy            =   +0.00 kcal/mol
DOCKED: USER    (2) Final Total Internal Energy     =   -0.31 kcal/mol
DOCKED: USER    (3) Torsional Free Energy           =   +2.09 kcal/mol
DOCKED: USER    (4) Unbound System's Energy  [=(2)] =   -0.31 kcal/mol
DOCKED: USER    
DOCKED: USER    
DOCKED: USER    NEWDPF move ligand.pdbqt
DOCKED: USER    NEWDPF about 0.010000 0.634000 0.018000
DOCKED: USER    NEWDPF tran0 23.831727 -18.294433 -2.531392
DOCKED: USER    NEWDPF quaternion0 -0.613500 0.358687 -0.701956 0.047116
DOCKED: USER    NEWDPF axisangle0 -0.614182 0.359086 -0.702736 174.598945
DOCKED: USER    NEWDPF quat0 -0.614182 0.359086 -0.702736 174.598945
DOCKED: USER    NEWDPF dihe0 73.34 106.72 2.63 -139.37 -85.75 -159.98 144.43 
DOCKED: USER  keepresnum = 1 
DOCKED: USER  
DOCKED: REMARK  Name = 
DOCKED: REMARK  7 active torsions:
DOCKED: REMARK  status: ('A' for Active; 'I' for Inactive)
DOCKED: REMARK    1  A    between atoms: C_3  and  C_4
DOCKED: REMARK    2  A    between atoms: C_4  and  C_5
DOCKED: REMARK    3  A    between atoms: C_5  and  C_6
DOCKED: REMARK    4  A    between atoms: C_6  and  C_7
DOCKED: REMARK    5  A    between atoms: C_7  and  C_8
DOCKED: REMARK    6  A    between atoms: C_8  and  C_9
DOCKED: REMARK    7  A    between atoms: C_9  and  C_10
DOCKED: REMARK                            x       y       z     vdW  Elec       q    Type
DOCKED: REMARK                         _______ _______ _______ _____ _____    ______ ____
DOCKED: USER                              x       y       z     vdW  Elec       q    Type
DOCKED: USER                           _______ _______ _______ _____ _____    ______ ____
DOCKED: ROOT
DOCKED: ATOM      1  C   UNL     1      25.148 -17.169  -1.161 -0.66 -0.00    +0.000 C 
DOCKED: ENDROOT
DOCKED: BRANCH   1   2
DOCKED: ATOM      2  C   UNL     1      23.632 -17.258  -0.927 -0.72 -0.00    +0.000 C 
DOCKED: BRANCH   2   3
DOCKED: ATOM      3  C   UNL     1      23.109 -18.660  -1.253 -0.79 -0.00    +0.000 C 
DOCKED: BRANCH   3   6
DOCKED: ATOM      4  O   UNL     1      19.509 -19.738  -1.681 -2.11 -0.00    +0.000 OA
DOCKED: ATOM      5  N   UNL     1      20.857 -19.700  -1.800 -0.73 -0.00    +0.000 N 
DOCKED: ATOM      6  C   UNL     1      21.618 -18.711  -1.104 -0.79 -0.00    +0.000 C 
DOCKED: ATOM      7  O   UNL     1      21.032 -17.852  -0.391 -1.94 +0.00    +0.000 OA
DOCKED: ATOM      8  H   UNL     1      21.317 -20.358  -2.370 -0.54 -0.00    +0.000 HD
DOCKED: ENDBRANCH   3   6
DOCKED: ENDBRANCH   2   3
DOCKED: ENDBRANCH   1   2
DOCKED: BRANCH   1   9
DOCKED: ATOM      9  C   UNL     1      25.512 -16.471  -2.484 -0.56 -0.00    +0.000 C 
DOCKED: BRANCH   9  10
DOCKED: ATOM     10  C   UNL     1      25.529 -14.932  -2.424 -0.44 -0.00    +0.000 C 
DOCKED: BRANCH  10  11
DOCKED: ATOM     11  C   UNL     1      26.709 -14.317  -3.187 -0.36 -0.00    +0.000 C 
DOCKED: BRANCH  11  12
DOCKED: ATOM     12  C   UNL     1      26.824 -14.926  -4.552 -0.50 -0.00    +0.000 C 
DOCKED: ATOM     13  N   UNL     1      27.991 -14.702  -5.345 -0.37 -0.00    +0.000 N 
DOCKED: ATOM     14  O   UNL     1      28.091 -15.235  -6.585 -0.72 +0.00    +0.000 OA
DOCKED: ATOM     15  O   UNL     1      25.868 -15.604  -5.016 -0.99 -0.00    +0.000 OA
DOCKED: ATOM     16  H   UNL     1      28.728 -14.156  -4.988 +0.00 -0.00    +0.000 HD
DOCKED: ENDBRANCH  11  12
DOCKED: ENDBRANCH  10  11
DOCKED: ENDBRANCH   9  10
DOCKED: ENDBRANCH   1   9
DOCKED: TORSDOF 7
DOCKED: TER
DOCKED: ENDMDL
________________________________________________________________________________


	BEGINNING GENETIC ALGORITHM DOCKING 25 of 100
Run: 25 Seed: 1693980683 1519557722 [ Run 25 of 100 GA/GALS ]
Beginning LAMARCKIAN GENETIC ALGORITHM (LGA), with a maximum of 2500000 energy evaluations.

Final-Value: -11.919


	FINAL GENETIC ALGORITHM DOCKED STATE
	_______________________________________________


Detailed state:  trans 23.795 -18.651 -1.829 quatxyzw 0.746119 -0.429058 0.503556 0.075151 center 0.010 0.634 0.018 ntor 7 -179.1906 153.8539 32.8498 -163.0784 -121.7263 -159.0999 167.9418
State:	 23.795 -18.651  -1.829   0.748 -0.430  0.505 171.380   -179.19  153.85   32.85 -163.08 -121.73 -159.10  167.94

DOCKED: MODEL       25
DOCKED: USER    Run = 25
DOCKED: USER    DPF = ligand_dock.biased.dpf
DOCKED: USER  
DOCKED: USER    Estimated Free Energy of Binding    =   -9.25 kcal/mol  [=(1)+(2)+(3)-(4)]
DOCKED: USER    Estimated Inhibition Constant, Ki   =  165.62 nM (nanomolar)  [Temperature = 298.15 K]
DOCKED: USER    
DOCKED: USER    (1) Final Intermolecular Energy     =  -11.34 kcal/mol
DOCKED: USER        vdW + Hbond + desolv Energy     =  -11.34 kcal/mol
DOCKED: USER        Electrostatic Energy            =   +0.00 kcal/mol
DOCKED: USER    (2) Final Total Internal Energy     =   -0.58 kcal/mol
DOCKED: USER    (3) Torsional Free Energy           =   +2.09 kcal/mol
DOCKED: USER    (4) Unbound System's Energy  [=(2)] =   -0.58 kcal/mol
DOCKED: USER    
DOCKED: USER    
DOCKED: USER    NEWDPF move ligand.pdbqt
DOCKED: USER    NEWDPF about 0.010000 0.634000 0.018000
DOCKED: USER    NEWDPF tran0 23.794816 -18.651070 -1.829039
DOCKED: USER    NEWDPF quaternion0 0.746119 -0.429058 0.503556 0.075151
DOCKED: USER    NEWDPF axisangle0 0.748234 -0.430275 0.504984 171.380221
DOCKED: USER    NEWDPF quat0 0.748234 -0.430275 0.504984 171.380221
DOCKED: USER    NEWDPF dihe0 -179.19 153.85 32.85 -163.08 -121.73 -159.10 167.94 
DOCKED: USER  keepresnum = 1 
DOCKED: USER  
DOCKED: REMARK  Name = 
DOCKED: REMARK  7 active torsions:
DOCKED: REMARK  status: ('A' for Active; 'I' for Inactive)
DOCKED: REMARK    1  A    between atoms: C_3  and  C_4
DOCKED: REMARK    2  A    between atoms: C_4  and  C_5
DOCKED: REMARK    3  A    between atoms: C_5  and  C_6
DOCKED: REMARK    4  A    between atoms: C_6  and  C_7
DOCKED: REMARK    5  A    between atoms: C_7  and  C_8
DOCKED: REMARK    6  A    between atoms: C_8  and  C_9
DOCKED: REMARK    7  A    between atoms: C_9  and  C_10
DOCKED: REMARK                            x       y       z     vdW  Elec       q    Type
DOCKED: REMARK                         _______ _______ _______ _____ _____    ______ ____
DOCKED: USER                              x       y       z     vdW  Elec       q    Type
DOCKED: USER                           _______ _______ _______ _____ _____    ______ ____
DOCKED: ROOT
DOCKED: ATOM      1  C   UNL     1      25.408 -17.833  -0.562 -0.69 -0.00    +0.000 C 
DOCKED: ENDROOT
DOCKED: BRANCH   1   2
DOCKED: ATOM      2  C   UNL     1      24.088 -18.337   0.042 -0.66 -0.00    +0.000 C 
DOCKED: BRANCH   2   3
DOCKED: ATOM      3  C   UNL     1      23.180 -18.927  -1.040 -0.81 -0.00    +0.000 C 
DOCKED: BRANCH   3   6
DOCKED: ATOM      4  O   UNL     1      19.654 -19.428   0.233 -0.96 -0.00    +0.000 OA
DOCKED: ATOM      5  N   UNL     1      20.959 -19.654  -0.045 -0.72 -0.00    +0.000 N 
DOCKED: ATOM      6  C   UNL     1      21.739 -18.664  -0.717 -0.86 -0.00    +0.000 C 
DOCKED: ATOM      7  O   UNL     1      21.206 -17.580  -1.076 -1.78 -0.00    +0.000 OA
DOCKED: ATOM      8  H   UNL     1      21.374 -20.508   0.218 -0.49 -0.00    +0.000 HD
DOCKED: ENDBRANCH   3   6
DOCKED: ENDBRANCH   2   3
DOCKED: ENDBRANCH   1   2
DOCKED: BRANCH   1   9
DOCKED: ATOM      9  C   UNL     1      25.215 -16.642  -1.517 -0.61 -0.00    +0.000 C 
DOCKED: BRANCH   9  10
DOCKED: ATOM     10  C   UNL     1      25.670 -15.281  -0.961 -0.39 -0.00    +0.000 C 
DOCKED: BRANCH  10  11
DOCKED: ATOM     11  C   UNL     1      26.390 -14.418  -2.006 -0.33 -0.00    +0.000 C 
DOCKED: BRANCH  11  12
DOCKED: ATOM     12  C   UNL     1      25.971 -14.814  -3.389 -0.51 -0.00    +0.000 C 
DOCKED: ATOM     13  N   UNL     1      26.942 -15.267  -4.334 -0.45 -0.00    +0.000 N 
DOCKED: ATOM     14  O   UNL     1      26.570 -15.610  -5.591 -1.20 +0.00    +0.000 OA
DOCKED: ATOM     15  O   UNL     1      24.762 -14.706  -3.731 -0.87 -0.00    +0.000 OA
DOCKED: ATOM     16  H   UNL     1      27.888 -15.332  -4.071 -0.01 -0.00    +0.000 HD
DOCKED: ENDBRANCH  11  12
DOCKED: ENDBRANCH  10  11
DOCKED: ENDBRANCH   9  10
DOCKED: ENDBRANCH   1   9
DOCKED: TORSDOF 7
DOCKED: TER
DOCKED: ENDMDL
________________________________________________________________________________


	BEGINNING GENETIC ALGORITHM DOCKING 26 of 100
Run: 26 Seed: 635511231 11586373 [ Run 26 of 100 GA/GALS ]
Beginning LAMARCKIAN GENETIC ALGORITHM (LGA), with a maximum of 2500000 energy evaluations.

Final-Value: -12.685


	FINAL GENETIC ALGORITHM DOCKED STATE
	_______________________________________________


Detailed state:  trans 24.861 -18.520 -2.301 quatxyzw 0.316968 -0.383603 0.862998 0.087263 center 0.010 0.634 0.018 ntor 7 82.2659 23.0174 -39.9622 -130.4588 -49.7669 -71.5559 -100.3784
State:	 24.861 -18.520  -2.301   0.318 -0.385  0.866 169.988     82.27   23.02  -39.96 -130.46  -49.77  -71.56 -100.38

DOCKED: MODEL       26
DOCKED: USER    Run = 26
DOCKED: USER    DPF = ligand_dock.biased.dpf
DOCKED: USER  
DOCKED: USER    Estimated Free Energy of Binding    =  -10.18 kcal/mol  [=(1)+(2)+(3)-(4)]
DOCKED: USER    Estimated Inhibition Constant, Ki   =   34.66 nM (nanomolar)  [Temperature = 298.15 K]
DOCKED: USER    
DOCKED: USER    (1) Final Intermolecular Energy     =  -12.27 kcal/mol
DOCKED: USER        vdW + Hbond + desolv Energy     =  -12.27 kcal/mol
DOCKED: USER        Electrostatic Energy            =   +0.00 kcal/mol
DOCKED: USER    (2) Final Total Internal Energy     =   -0.42 kcal/mol
DOCKED: USER    (3) Torsional Free Energy           =   +2.09 kcal/mol
DOCKED: USER    (4) Unbound System's Energy  [=(2)] =   -0.42 kcal/mol
DOCKED: USER    
DOCKED: USER    
DOCKED: USER    NEWDPF move ligand.pdbqt
DOCKED: USER    NEWDPF about 0.010000 0.634000 0.018000
DOCKED: USER    NEWDPF tran0 24.860801 -18.520264 -2.301346
DOCKED: USER    NEWDPF quaternion0 0.316968 -0.383603 0.862998 0.087263
DOCKED: USER    NEWDPF axisangle0 0.318182 -0.385072 0.866303 169.987685
DOCKED: USER    NEWDPF quat0 0.318182 -0.385072 0.866303 169.987685
DOCKED: USER    NEWDPF dihe0 82.27 23.02 -39.96 -130.46 -49.77 -71.56 -100.38 
DOCKED: USER  keepresnum = 1 
DOCKED: USER  
DOCKED: REMARK  Name = 
DOCKED: REMARK  7 active torsions:
DOCKED: REMARK  status: ('A' for Active; 'I' for Inactive)
DOCKED: REMARK    1  A    between atoms: C_3  and  C_4
DOCKED: REMARK    2  A    between atoms: C_4  and  C_5
DOCKED: REMARK    3  A    between atoms: C_5  and  C_6
DOCKED: REMARK    4  A    between atoms: C_6  and  C_7
DOCKED: REMARK    5  A    between atoms: C_7  and  C_8
DOCKED: REMARK    6  A    between atoms: C_8  and  C_9
DOCKED: REMARK    7  A    between atoms: C_9  and  C_10
DOCKED: REMARK                            x       y       z     vdW  Elec       q    Type
DOCKED: REMARK                         _______ _______ _______ _____ _____    ______ ____
DOCKED: USER                              x       y       z     vdW  Elec       q    Type
DOCKED: USER                           _______ _______ _______ _____ _____    ______ ____
DOCKED: ROOT
DOCKED: ATOM      1  C   UNL     1      24.948 -17.526  -0.332 -0.64 -0.00    +0.000 C 
DOCKED: ENDROOT
DOCKED: BRANCH   1   2
DOCKED: ATOM      2  C   UNL     1      23.660 -17.537  -1.170 -0.74 -0.00    +0.000 C 
DOCKED: BRANCH   2   3
DOCKED: ATOM      3  C   UNL     1      22.982 -18.909  -1.115 -0.81 -0.00    +0.000 C 
DOCKED: BRANCH   3   6
DOCKED: ATOM      4  O   UNL     1      19.294 -19.735  -1.237 -1.76 -0.00    +0.000 OA
DOCKED: ATOM      5  N   UNL     1      20.639 -19.874  -1.285 -0.75 -0.00    +0.000 N 
DOCKED: ATOM      6  C   UNL     1      21.492 -18.755  -1.040 -0.82 -0.00    +0.000 C 
DOCKED: ATOM      7  O   UNL     1      20.993 -17.623  -0.798 -2.08 -0.00    +0.000 OA
DOCKED: ATOM      8  H   UNL     1      21.033 -20.753  -1.492 -0.20 -0.00    +0.000 HD
DOCKED: ENDBRANCH   3   6
DOCKED: ENDBRANCH   2   3
DOCKED: ENDBRANCH   1   2
DOCKED: BRANCH   1   9
DOCKED: ATOM      9  C   UNL     1      26.112 -16.799  -1.028 -0.55 -0.00    +0.000 C 
DOCKED: BRANCH   9  10
DOCKED: ATOM     10  C   UNL     1      27.509 -17.120  -0.467 -0.44 -0.00    +0.000 C 
DOCKED: BRANCH  10  11
DOCKED: ATOM     11  C   UNL     1      28.359 -15.866  -0.225 -0.27 -0.00    +0.000 C 
DOCKED: BRANCH  11  12
DOCKED: ATOM     12  C   UNL     1      27.652 -14.926   0.704 -0.29 -0.00    +0.000 C 
DOCKED: ATOM     13  N   UNL     1      28.119 -14.748   2.042 -0.22 -0.00    +0.000 N 
DOCKED: ATOM     14  O   UNL     1      27.473 -13.913   2.890 -0.43 -0.00    +0.000 OA
DOCKED: ATOM     15  O   UNL     1      26.617 -14.322   0.312 -0.36 -0.00    +0.000 OA
DOCKED: ATOM     16  H   UNL     1      28.916 -15.236   2.351 -1.91 -0.00    +0.000 HD
DOCKED: ENDBRANCH  11  12
DOCKED: ENDBRANCH  10  11
DOCKED: ENDBRANCH   9  10
DOCKED: ENDBRANCH   1   9
DOCKED: TORSDOF 7
DOCKED: TER
DOCKED: ENDMDL
________________________________________________________________________________


	BEGINNING GENETIC ALGORITHM DOCKING 27 of 100
Run: 27 Seed: 883111238 897075832 [ Run 27 of 100 GA/GALS ]
Beginning LAMARCKIAN GENETIC ALGORITHM (LGA), with a maximum of 2500000 energy evaluations.

Final-Value: -12.296


	FINAL GENETIC ALGORITHM DOCKED STATE
	_______________________________________________


Detailed state:  trans 25.372 -17.110 -3.062 quatxyzw 0.513325 0.463289 -0.633870 0.346510 center 0.010 0.634 0.018 ntor 7 -125.7556 116.5295 -23.6134 40.4070 -96.9193 137.6045 -96.5733
State:	 25.372 -17.110  -3.062   0.547  0.494 -0.676 139.452   -125.76  116.53  -23.61   40.41  -96.92  137.60  -96.57

DOCKED: MODEL       27
DOCKED: USER    Run = 27
DOCKED: USER    DPF = ligand_dock.biased.dpf
DOCKED: USER  
DOCKED: USER    Estimated Free Energy of Binding    =   -9.69 kcal/mol  [=(1)+(2)+(3)-(4)]
DOCKED: USER    Estimated Inhibition Constant, Ki   =   78.34 nM (nanomolar)  [Temperature = 298.15 K]
DOCKED: USER    
DOCKED: USER    (1) Final Intermolecular Energy     =  -11.78 kcal/mol
DOCKED: USER        vdW + Hbond + desolv Energy     =  -11.78 kcal/mol
DOCKED: USER        Electrostatic Energy            =   +0.00 kcal/mol
DOCKED: USER    (2) Final Total Internal Energy     =   -0.51 kcal/mol
DOCKED: USER    (3) Torsional Free Energy           =   +2.09 kcal/mol
DOCKED: USER    (4) Unbound System's Energy  [=(2)] =   -0.51 kcal/mol
DOCKED: USER    
DOCKED: USER    
DOCKED: USER    NEWDPF move ligand.pdbqt
DOCKED: USER    NEWDPF about 0.010000 0.634000 0.018000
DOCKED: USER    NEWDPF tran0 25.371875 -17.110309 -3.061811
DOCKED: USER    NEWDPF quaternion0 0.513325 0.463289 -0.633870 0.346510
DOCKED: USER    NEWDPF axisangle0 0.547228 0.493888 -0.675734 139.451946
DOCKED: USER    NEWDPF quat0 0.547228 0.493888 -0.675734 139.451946
DOCKED: USER    NEWDPF dihe0 -125.76 116.53 -23.61 40.41 -96.92 137.60 -96.57 
DOCKED: USER  keepresnum = 1 
DOCKED: USER  
DOCKED: REMARK  Name = 
DOCKED: REMARK  7 active torsions:
DOCKED: REMARK  status: ('A' for Active; 'I' for Inactive)
DOCKED: REMARK    1  A    between atoms: C_3  and  C_4
DOCKED: REMARK    2  A    between atoms: C_4  and  C_5
DOCKED: REMARK    3  A    between atoms: C_5  and  C_6
DOCKED: REMARK    4  A    between atoms: C_6  and  C_7
DOCKED: REMARK    5  A    between atoms: C_7  and  C_8
DOCKED: REMARK    6  A    between atoms: C_8  and  C_9
DOCKED: REMARK    7  A    between atoms: C_9  and  C_10
DOCKED: REMARK                            x       y       z     vdW  Elec       q    Type
DOCKED: REMARK                         _______ _______ _______ _____ _____    ______ ____
DOCKED: USER                              x       y       z     vdW  Elec       q    Type
DOCKED: USER                           _______ _______ _______ _____ _____    ______ ____
DOCKED: ROOT
DOCKED: ATOM      1  C   UNL     1      24.751 -16.072  -1.215 -0.41 -0.00    +0.000 C 
DOCKED: ENDROOT
DOCKED: BRANCH   1   2
DOCKED: ATOM      2  C   UNL     1      25.808 -15.474  -2.156 -0.49 -0.00    +0.000 C 
DOCKED: BRANCH   2   3
DOCKED: ATOM      3  C   UNL     1      25.582 -15.938  -3.598 -0.48 -0.00    +0.000 C 
DOCKED: BRANCH   3   6
DOCKED: ATOM      4  O   UNL     1      26.646 -12.699  -5.236 -0.30 -0.00    +0.000 OA
DOCKED: ATOM      5  N   UNL     1      26.094 -13.569  -4.358 -0.39 -0.00    +0.000 N 
DOCKED: ATOM      6  C   UNL     1      26.212 -14.978  -4.562 -0.55 -0.00    +0.000 C 
DOCKED: ATOM      7  O   UNL     1      26.816 -15.418  -5.578 -1.17 +0.00    +0.000 OA
DOCKED: ATOM      8  H   UNL     1      25.606 -13.228  -3.573 -0.02 -0.00    +0.000 HD
DOCKED: ENDBRANCH   3   6
DOCKED: ENDBRANCH   2   3
DOCKED: ENDBRANCH   1   2
DOCKED: BRANCH   1   9
DOCKED: ATOM      9  C   UNL     1      25.179 -17.420  -0.609 -0.66 -0.00    +0.000 C 
DOCKED: BRANCH   9  10
DOCKED: ATOM     10  C   UNL     1      24.024 -18.307  -0.110 -0.71 -0.00    +0.000 C 
DOCKED: BRANCH  10  11
DOCKED: ATOM     11  C   UNL     1      23.266 -19.000  -1.251 -0.79 -0.00    +0.000 C 
DOCKED: BRANCH  11  12
DOCKED: ATOM     12  C   UNL     1      21.788 -18.832  -1.074 -0.83 -0.00    +0.000 C 
DOCKED: ATOM     13  N   UNL     1      20.880 -19.739  -1.702 -0.73 -0.00    +0.000 N 
DOCKED: ATOM     14  O   UNL     1      19.542 -19.581  -1.559 -2.02 -0.00    +0.000 OA
DOCKED: ATOM     15  O   UNL     1      21.345 -17.863  -0.401 -1.73 -0.00    +0.000 OA
DOCKED: ATOM     16  H   UNL     1      21.228 -20.484  -2.243 -0.50 -0.00    +0.000 HD
DOCKED: ENDBRANCH  11  12
DOCKED: ENDBRANCH  10  11
DOCKED: ENDBRANCH   9  10
DOCKED: ENDBRANCH   1   9
DOCKED: TORSDOF 7
DOCKED: TER
DOCKED: ENDMDL
________________________________________________________________________________


	BEGINNING GENETIC ALGORITHM DOCKING 28 of 100
Run: 28 Seed: 1816510846 1687696362 [ Run 28 of 100 GA/GALS ]
Beginning LAMARCKIAN GENETIC ALGORITHM (LGA), with a maximum of 2500000 energy evaluations.

Final-Value: -12.496


	FINAL GENETIC ALGORITHM DOCKED STATE
	_______________________________________________


Detailed state:  trans 24.296 -17.531 -2.139 quatxyzw 0.455527 -0.740078 0.479208 0.123043 center 0.010 0.634 0.018 ntor 7 145.8647 19.5442 -17.8151 -149.6538 -83.8562 -82.2797 66.9529
State:	 24.296 -17.531  -2.139   0.459 -0.746  0.483 165.865    145.86   19.54  -17.82 -149.65  -83.86  -82.28   66.95

DOCKED: MODEL       28
DOCKED: USER    Run = 28
DOCKED: USER    DPF = ligand_dock.biased.dpf
DOCKED: USER  
DOCKED: USER    Estimated Free Energy of Binding    =   -9.80 kcal/mol  [=(1)+(2)+(3)-(4)]
DOCKED: USER    Estimated Inhibition Constant, Ki   =   65.12 nM (nanomolar)  [Temperature = 298.15 K]
DOCKED: USER    
DOCKED: USER    (1) Final Intermolecular Energy     =  -11.89 kcal/mol
DOCKED: USER        vdW + Hbond + desolv Energy     =  -11.89 kcal/mol
DOCKED: USER        Electrostatic Energy            =   +0.00 kcal/mol
DOCKED: USER    (2) Final Total Internal Energy     =   -0.60 kcal/mol
DOCKED: USER    (3) Torsional Free Energy           =   +2.09 kcal/mol
DOCKED: USER    (4) Unbound System's Energy  [=(2)] =   -0.60 kcal/mol
DOCKED: USER    
DOCKED: USER    
DOCKED: USER    NEWDPF move ligand.pdbqt
DOCKED: USER    NEWDPF about 0.010000 0.634000 0.018000
DOCKED: USER    NEWDPF tran0 24.295979 -17.531324 -2.138522
DOCKED: USER    NEWDPF quaternion0 0.455527 -0.740078 0.479208 0.123043
DOCKED: USER    NEWDPF axisangle0 0.459015 -0.745745 0.482877 165.864526
DOCKED: USER    NEWDPF quat0 0.459015 -0.745745 0.482877 165.864526
DOCKED: USER    NEWDPF dihe0 145.86 19.54 -17.82 -149.65 -83.86 -82.28 66.95 
DOCKED: USER  keepresnum = 1 
DOCKED: USER  
DOCKED: REMARK  Name = 
DOCKED: REMARK  7 active torsions:
DOCKED: REMARK  status: ('A' for Active; 'I' for Inactive)
DOCKED: REMARK    1  A    between atoms: C_3  and  C_4
DOCKED: REMARK    2  A    between atoms: C_4  and  C_5
DOCKED: REMARK    3  A    between atoms: C_5  and  C_6
DOCKED: REMARK    4  A    between atoms: C_6  and  C_7
DOCKED: REMARK    5  A    between atoms: C_7  and  C_8
DOCKED: REMARK    6  A    between atoms: C_8  and  C_9
DOCKED: REMARK    7  A    between atoms: C_9  and  C_10
DOCKED: REMARK                            x       y       z     vdW  Elec       q    Type
DOCKED: REMARK                         _______ _______ _______ _____ _____    ______ ____
DOCKED: USER                              x       y       z     vdW  Elec       q    Type
DOCKED: USER                           _______ _______ _______ _____ _____    ______ ____
DOCKED: ROOT
DOCKED: ATOM      1  C   UNL     1      25.474 -18.446  -0.510 -0.64 -0.00    +0.000 C 
DOCKED: ENDROOT
DOCKED: BRANCH   1   2
DOCKED: ATOM      2  C   UNL     1      23.983 -18.118  -0.337 -0.77 -0.00    +0.000 C 
DOCKED: BRANCH   2   3
DOCKED: ATOM      3  C   UNL     1      23.193 -18.478  -1.599 -0.66 -0.00    +0.000 C 
DOCKED: BRANCH   3   6
DOCKED: ATOM      4  O   UNL     1      19.628 -19.735  -1.460 -2.15 -0.00    +0.000 OA
DOCKED: ATOM      5  N   UNL     1      20.957 -19.676  -1.715 -0.72 -0.00    +0.000 N 
DOCKED: ATOM      6  C   UNL     1      21.725 -18.547  -1.297 -0.52 -0.00    +0.000 C 
DOCKED: ATOM      7  O   UNL     1      21.163 -17.587  -0.705 -1.96 -0.00    +0.000 OA
DOCKED: ATOM      8  H   UNL     1      21.396 -20.417  -2.193 -0.52 -0.00    +0.000 HD
DOCKED: ENDBRANCH   3   6
DOCKED: ENDBRANCH   2   3
DOCKED: ENDBRANCH   1   2
DOCKED: BRANCH   1   9
DOCKED: ATOM      9  C   UNL     1      26.337 -17.199  -0.770 -0.57 -0.00    +0.000 C 
DOCKED: BRANCH   9  10
DOCKED: ATOM     10  C   UNL     1      25.587 -15.858  -0.678 -0.41 -0.00    +0.000 C 
DOCKED: BRANCH  10  11
DOCKED: ATOM     11  C   UNL     1      26.079 -14.826  -1.701 -0.38 -0.00    +0.000 C 
DOCKED: BRANCH  11  12
DOCKED: ATOM     12  C   UNL     1      26.402 -15.494  -3.003 -0.47 -0.00    +0.000 C 
DOCKED: ATOM     13  N   UNL     1      25.518 -15.364  -4.119 -0.59 -0.00    +0.000 N 
DOCKED: ATOM     14  O   UNL     1      25.798 -15.981  -5.292 -1.11 +0.00    +0.000 OA
DOCKED: ATOM     15  O   UNL     1      27.438 -16.206  -3.100 -0.34 -0.00    +0.000 OA
DOCKED: ATOM     16  H   UNL     1      24.701 -14.823  -4.034 -0.09 -0.00    +0.000 HD
DOCKED: ENDBRANCH  11  12
DOCKED: ENDBRANCH  10  11
DOCKED: ENDBRANCH   9  10
DOCKED: ENDBRANCH   1   9
DOCKED: TORSDOF 7
DOCKED: TER
DOCKED: ENDMDL
________________________________________________________________________________


	BEGINNING GENETIC ALGORITHM DOCKING 29 of 100
Run: 29 Seed: 1685733567 1415581643 [ Run 29 of 100 GA/GALS ]
Beginning LAMARCKIAN GENETIC ALGORITHM (LGA), with a maximum of 2500000 energy evaluations.

Final-Value: -12.970


	FINAL GENETIC ALGORITHM DOCKED STATE
	_______________________________________________


Detailed state:  trans 24.667 -18.641 -2.110 quatxyzw 0.679311 -0.320257 0.634933 0.181198 center 0.010 0.634 0.018 ntor 7 177.1553 -169.7899 6.0754 176.8913 179.9819 -128.5097 -163.7867
State:	 24.667 -18.641  -2.110   0.691 -0.326  0.646 159.121    177.16 -169.79    6.08  176.89  179.98 -128.51 -163.79

DOCKED: MODEL       29
DOCKED: USER    Run = 29
DOCKED: USER    DPF = ligand_dock.biased.dpf
DOCKED: USER  
DOCKED: USER    Estimated Free Energy of Binding    =  -10.22 kcal/mol  [=(1)+(2)+(3)-(4)]
DOCKED: USER    Estimated Inhibition Constant, Ki   =   32.22 nM (nanomolar)  [Temperature = 298.15 K]
DOCKED: USER    
DOCKED: USER    (1) Final Intermolecular Energy     =  -12.31 kcal/mol
DOCKED: USER        vdW + Hbond + desolv Energy     =  -12.31 kcal/mol
DOCKED: USER        Electrostatic Energy            =   +0.00 kcal/mol
DOCKED: USER    (2) Final Total Internal Energy     =   -0.66 kcal/mol
DOCKED: USER    (3) Torsional Free Energy           =   +2.09 kcal/mol
DOCKED: USER    (4) Unbound System's Energy  [=(2)] =   -0.66 kcal/mol
DOCKED: USER    
DOCKED: USER    
DOCKED: USER    NEWDPF move ligand.pdbqt
DOCKED: USER    NEWDPF about 0.010000 0.634000 0.018000
DOCKED: USER    NEWDPF tran0 24.666814 -18.641131 -2.110102
DOCKED: USER    NEWDPF quaternion0 0.679311 -0.320257 0.634933 0.181198
DOCKED: USER    NEWDPF axisangle0 0.690745 -0.325647 0.645620 159.120857
DOCKED: USER    NEWDPF quat0 0.690745 -0.325647 0.645620 159.120857
DOCKED: USER    NEWDPF dihe0 177.16 -169.79 6.08 176.89 179.98 -128.51 -163.79 
DOCKED: USER  keepresnum = 1 
DOCKED: USER  
DOCKED: REMARK  Name = 
DOCKED: REMARK  7 active torsions:
DOCKED: REMARK  status: ('A' for Active; 'I' for Inactive)
DOCKED: REMARK    1  A    between atoms: C_3  and  C_4
DOCKED: REMARK    2  A    between atoms: C_4  and  C_5
DOCKED: REMARK    3  A    between atoms: C_5  and  C_6
DOCKED: REMARK    4  A    between atoms: C_6  and  C_7
DOCKED: REMARK    5  A    between atoms: C_7  and  C_8
DOCKED: REMARK    6  A    between atoms: C_8  and  C_9
DOCKED: REMARK    7  A    between atoms: C_9  and  C_10
DOCKED: REMARK                            x       y       z     vdW  Elec       q    Type
DOCKED: REMARK                         _______ _______ _______ _____ _____    ______ ____
DOCKED: USER                              x       y       z     vdW  Elec       q    Type
DOCKED: USER                           _______ _______ _______ _____ _____    ______ ____
DOCKED: ROOT
DOCKED: ATOM      1  C   UNL     1      25.528 -17.499  -0.428 -0.64 -0.00    +0.000 C 
DOCKED: ENDROOT
DOCKED: BRANCH   1   2
DOCKED: ATOM      2  C   UNL     1      24.190 -18.243  -0.293 -0.75 -0.00    +0.000 C 
DOCKED: BRANCH   2   3
DOCKED: ATOM      3  C   UNL     1      23.208 -17.806  -1.383 -0.67 -0.00    +0.000 C 
DOCKED: BRANCH   3   6
DOCKED: ATOM      4  O   UNL     1      20.221 -20.109  -1.662 -2.23 -0.00    +0.000 OA
DOCKED: ATOM      5  N   UNL     1      21.448 -19.573  -1.863 -0.44 -0.00    +0.000 N 
DOCKED: ATOM      6  C   UNL     1      21.856 -18.408  -1.143 -0.68 -0.00    +0.000 C 
DOCKED: ATOM      7  O   UNL     1      21.063 -17.861  -0.330 -1.90 +0.00    +0.000 OA
DOCKED: ATOM      8  H   UNL     1      22.063 -19.988  -2.510 -0.59 -0.00    +0.000 HD
DOCKED: ENDBRANCH   3   6
DOCKED: ENDBRANCH   2   3
DOCKED: ENDBRANCH   1   2
DOCKED: BRANCH   1   9
DOCKED: ATOM      9  C   UNL     1      25.492 -16.386  -1.491 -0.57 -0.00    +0.000 C 
DOCKED: BRANCH   9  10
DOCKED: ATOM     10  C   UNL     1      26.123 -15.050  -1.057 -0.39 -0.00    +0.000 C 
DOCKED: BRANCH  10  11
DOCKED: ATOM     11  C   UNL     1      26.282 -14.059  -2.217 -0.28 -0.00    +0.000 C 
DOCKED: BRANCH  11  12
DOCKED: ATOM     12  C   UNL     1      25.676 -14.617  -3.469 -0.53 -0.00    +0.000 C 
DOCKED: ATOM     13  N   UNL     1      26.429 -15.499  -4.304 -0.52 -0.00    +0.000 N 
DOCKED: ATOM     14  O   UNL     1      25.891 -15.992  -5.444 -1.12 +0.00    +0.000 OA
DOCKED: ATOM     15  O   UNL     1      24.510 -14.275  -3.805 -0.97 -0.00    +0.000 OA
DOCKED: ATOM     16  H   UNL     1      27.346 -15.749  -4.049 -0.02 -0.00    +0.000 HD
DOCKED: ENDBRANCH  11  12
DOCKED: ENDBRANCH  10  11
DOCKED: ENDBRANCH   9  10
DOCKED: ENDBRANCH   1   9
DOCKED: TORSDOF 7
DOCKED: TER
DOCKED: ENDMDL
________________________________________________________________________________


	BEGINNING GENETIC ALGORITHM DOCKING 30 of 100
Run: 30 Seed: 1738595767 1467400963 [ Run 30 of 100 GA/GALS ]
Beginning LAMARCKIAN GENETIC ALGORITHM (LGA), with a maximum of 2500000 energy evaluations.

Final-Value: -12.993


	FINAL GENETIC ALGORITHM DOCKED STATE
	_______________________________________________


Detailed state:  trans 25.859 -14.649 -0.184 quatxyzw -0.186947 0.064037 0.037638 0.979558 center 0.010 0.634 0.018 ntor 7 51.8060 0.2578 117.4783 -74.3416 -47.5328 167.1620 179.9753
State:	 25.859 -14.649  -0.184  -0.929  0.318  0.187 23.210     51.81    0.26  117.48  -74.34  -47.53  167.16  179.98

DOCKED: MODEL       30
DOCKED: USER    Run = 30
DOCKED: USER    DPF = ligand_dock.biased.dpf
DOCKED: USER  
DOCKED: USER    Estimated Free Energy of Binding    =  -10.41 kcal/mol  [=(1)+(2)+(3)-(4)]
DOCKED: USER    Estimated Inhibition Constant, Ki   =   23.42 nM (nanomolar)  [Temperature = 298.15 K]
DOCKED: USER    
DOCKED: USER    (1) Final Intermolecular Energy     =  -12.50 kcal/mol
DOCKED: USER        vdW + Hbond + desolv Energy     =  -12.50 kcal/mol
DOCKED: USER        Electrostatic Energy            =   +0.00 kcal/mol
DOCKED: USER    (2) Final Total Internal Energy     =   -0.49 kcal/mol
DOCKED: USER    (3) Torsional Free Energy           =   +2.09 kcal/mol
DOCKED: USER    (4) Unbound System's Energy  [=(2)] =   -0.49 kcal/mol
DOCKED: USER    
DOCKED: USER    
DOCKED: USER    NEWDPF move ligand.pdbqt
DOCKED: USER    NEWDPF about 0.010000 0.634000 0.018000
DOCKED: USER    NEWDPF tran0 25.859035 -14.649179 -0.183506
DOCKED: USER    NEWDPF quaternion0 -0.186947 0.064037 0.037638 0.979558
DOCKED: USER    NEWDPF axisangle0 -0.929332 0.318333 0.187102 23.209918
DOCKED: USER    NEWDPF quat0 -0.929332 0.318333 0.187102 23.209918
DOCKED: USER    NEWDPF dihe0 51.81 0.26 117.48 -74.34 -47.53 167.16 179.98 
DOCKED: USER  keepresnum = 1 
DOCKED: USER  
DOCKED: REMARK  Name = 
DOCKED: REMARK  7 active torsions:
DOCKED: REMARK  status: ('A' for Active; 'I' for Inactive)
DOCKED: REMARK    1  A    between atoms: C_3  and  C_4
DOCKED: REMARK    2  A    between atoms: C_4  and  C_5
DOCKED: REMARK    3  A    between atoms: C_5  and  C_6
DOCKED: REMARK    4  A    between atoms: C_6  and  C_7
DOCKED: REMARK    5  A    between atoms: C_7  and  C_8
DOCKED: REMARK    6  A    between atoms: C_8  and  C_9
DOCKED: REMARK    7  A    between atoms: C_9  and  C_10
DOCKED: REMARK                            x       y       z     vdW  Elec       q    Type
DOCKED: REMARK                         _______ _______ _______ _____ _____    ______ ____
DOCKED: USER                              x       y       z     vdW  Elec       q    Type
DOCKED: USER                           _______ _______ _______ _____ _____    ______ ____
DOCKED: ROOT
DOCKED: ATOM      1  C   UNL     1      26.173 -16.812  -0.502 -0.53 -0.00    +0.000 C 
DOCKED: ENDROOT
DOCKED: BRANCH   1   2
DOCKED: ATOM      2  C   UNL     1      26.982 -15.759  -1.276 -0.38 -0.00    +0.000 C 
DOCKED: BRANCH   2   3
DOCKED: ATOM      3  C   UNL     1      28.090 -15.167  -0.401 -0.25 -0.00    +0.000 C 
DOCKED: BRANCH   3   6
DOCKED: ATOM      4  O   UNL     1      27.527 -14.065   3.172 -0.47 -0.00    +0.000 OA
DOCKED: ATOM      5  N   UNL     1      28.065 -14.674   2.090 -0.25 -0.00    +0.000 N 
DOCKED: ATOM      6  C   UNL     1      27.503 -14.475   0.792 -0.29 -0.00    +0.000 C 
DOCKED: ATOM      7  O   UNL     1      26.485 -13.744   0.652 -0.37 -0.00    +0.000 OA
DOCKED: ATOM      8  H   UNL     1      28.849 -15.259   2.198 -1.79 -0.00    +0.000 HD
DOCKED: ENDBRANCH   3   6
DOCKED: ENDBRANCH   2   3
DOCKED: ENDBRANCH   1   2
DOCKED: BRANCH   1   9
DOCKED: ATOM      9  C   UNL     1      24.662 -16.736  -0.786 -0.59 -0.00    +0.000 C 
DOCKED: BRANCH   9  10
DOCKED: ATOM     10  C   UNL     1      24.054 -18.001  -1.419 -0.75 -0.00    +0.000 C 
DOCKED: BRANCH  10  11
DOCKED: ATOM     11  C   UNL     1      23.216 -18.821  -0.430 -0.77 -0.00    +0.000 C 
DOCKED: BRANCH  11  12
DOCKED: ATOM     12  C   UNL     1      21.770 -18.796  -0.824 -0.85 -0.00    +0.000 C 
DOCKED: ATOM     13  N   UNL     1      21.267 -19.734  -1.777 -0.53 -0.00    +0.000 N 
DOCKED: ATOM     14  O   UNL     1      19.965 -19.704  -2.149 -2.27 -0.00    +0.000 OA
DOCKED: ATOM     15  O   UNL     1      21.006 -17.917  -0.341 -1.93 +0.00    +0.000 OA
DOCKED: ATOM     16  H   UNL     1      21.870 -20.407  -2.167 -0.48 -0.00    +0.000 HD
DOCKED: ENDBRANCH  11  12
DOCKED: ENDBRANCH  10  11
DOCKED: ENDBRANCH   9  10
DOCKED: ENDBRANCH   1   9
DOCKED: TORSDOF 7
DOCKED: TER
DOCKED: ENDMDL
________________________________________________________________________________


	BEGINNING GENETIC ALGORITHM DOCKING 31 of 100
Run: 31 Seed: 1340695762 1038027662 [ Run 31 of 100 GA/GALS ]
Beginning LAMARCKIAN GENETIC ALGORITHM (LGA), with a maximum of 2500000 energy evaluations.

Final-Value: -11.630


	FINAL GENETIC ALGORITHM DOCKED STATE
	_______________________________________________


Detailed state:  trans 24.798 -16.114 0.459 quatxyzw 0.462209 -0.124875 0.138723 -0.866906 center 0.010 0.634 0.018 ntor 7 -162.6452 177.6359 -72.2004 21.9374 79.3131 -91.5753 -49.9476
State:	 24.798 -16.114   0.459   0.927 -0.251  0.278 -59.798   -162.65  177.64  -72.20   21.94   79.31  -91.58  -49.95

DOCKED: MODEL       31
DOCKED: USER    Run = 31
DOCKED: USER    DPF = ligand_dock.biased.dpf
DOCKED: USER  
DOCKED: USER    Estimated Free Energy of Binding    =   -9.01 kcal/mol  [=(1)+(2)+(3)-(4)]
DOCKED: USER    Estimated Inhibition Constant, Ki   =  248.05 nM (nanomolar)  [Temperature = 298.15 K]
DOCKED: USER    
DOCKED: USER    (1) Final Intermolecular Energy     =  -11.10 kcal/mol
DOCKED: USER        vdW + Hbond + desolv Energy     =  -11.10 kcal/mol
DOCKED: USER        Electrostatic Energy            =   +0.00 kcal/mol
DOCKED: USER    (2) Final Total Internal Energy     =   -0.53 kcal/mol
DOCKED: USER    (3) Torsional Free Energy           =   +2.09 kcal/mol
DOCKED: USER    (4) Unbound System's Energy  [=(2)] =   -0.53 kcal/mol
DOCKED: USER    
DOCKED: USER    
DOCKED: USER    NEWDPF move ligand.pdbqt
DOCKED: USER    NEWDPF about 0.010000 0.634000 0.018000
DOCKED: USER    NEWDPF tran0 24.797859 -16.114211 0.459066
DOCKED: USER    NEWDPF quaternion0 0.462209 -0.124875 0.138723 -0.866906
DOCKED: USER    NEWDPF axisangle0 0.927250 -0.250515 0.278296 -59.797950
DOCKED: USER    NEWDPF quat0 0.927250 -0.250515 0.278296 -59.797950
DOCKED: USER    NEWDPF dihe0 -162.65 177.64 -72.20 21.94 79.31 -91.58 -49.95 
DOCKED: USER  keepresnum = 1 
DOCKED: USER  
DOCKED: REMARK  Name = 
DOCKED: REMARK  7 active torsions:
DOCKED: REMARK  status: ('A' for Active; 'I' for Inactive)
DOCKED: REMARK    1  A    between atoms: C_3  and  C_4
DOCKED: REMARK    2  A    between atoms: C_4  and  C_5
DOCKED: REMARK    3  A    between atoms: C_5  and  C_6
DOCKED: REMARK    4  A    between atoms: C_6  and  C_7
DOCKED: REMARK    5  A    between atoms: C_7  and  C_8
DOCKED: REMARK    6  A    between atoms: C_8  and  C_9
DOCKED: REMARK    7  A    between atoms: C_9  and  C_10
DOCKED: REMARK                            x       y       z     vdW  Elec       q    Type
DOCKED: REMARK                         _______ _______ _______ _____ _____    ______ ____
DOCKED: USER                              x       y       z     vdW  Elec       q    Type
DOCKED: USER                           _______ _______ _______ _____ _____    ______ ____
DOCKED: ROOT
DOCKED: ATOM      1  C   UNL     1      25.961 -17.551  -0.749 -0.63 -0.00    +0.000 C 
DOCKED: ENDROOT
DOCKED: BRANCH   1   2
DOCKED: ATOM      2  C   UNL     1      26.377 -16.076  -0.633 -0.45 -0.00    +0.000 C 
DOCKED: BRANCH   2   3
DOCKED: ATOM      3  C   UNL     1      27.215 -15.646  -1.840 -0.34 -0.00    +0.000 C 
DOCKED: BRANCH   3   6
DOCKED: ATOM      4  O   UNL     1      24.760 -14.415  -4.440 -1.04 -0.00    +0.000 OA
DOCKED: ATOM      5  N   UNL     1      25.458 -15.244  -3.630 -0.55 -0.00    +0.000 N 
DOCKED: ATOM      6  C   UNL     1      26.430 -14.722  -2.722 -0.39 -0.00    +0.000 C 
DOCKED: ATOM      7  O   UNL     1      26.657 -13.483  -2.688 -0.27 -0.00    +0.000 OA
DOCKED: ATOM      8  H   UNL     1      25.296 -16.215  -3.666 -0.05 -0.00    +0.000 HD
DOCKED: ENDBRANCH   3   6
DOCKED: ENDBRANCH   2   3
DOCKED: ENDBRANCH   1   2
DOCKED: BRANCH   1   9
DOCKED: ATOM      9  C   UNL     1      24.581 -17.736  -1.404 -0.71 -0.00    +0.000 C 
DOCKED: BRANCH   9  10
DOCKED: ATOM     10  C   UNL     1      23.477 -18.252  -0.463 -0.81 -0.00    +0.000 C 
DOCKED: BRANCH  10  11
DOCKED: ATOM     11  C   UNL     1      22.377 -19.027  -1.199 -0.78 -0.00    +0.000 C 
DOCKED: BRANCH  11  12
DOCKED: ATOM     12  C   UNL     1      21.069 -18.888  -0.480 -0.84 -0.00    +0.000 C 
DOCKED: ATOM     13  N   UNL     1      20.632 -19.904   0.424 -0.69 -0.00    +0.000 N 
DOCKED: ATOM     14  O   UNL     1      19.443 -19.791   1.062 -0.77 -0.00    +0.000 OA
DOCKED: ATOM     15  O   UNL     1      20.335 -17.888  -0.707 -2.24 +0.00    +0.000 OA
DOCKED: ATOM     16  H   UNL     1      21.198 -20.693   0.584 -0.56 -0.00    +0.000 HD
DOCKED: ENDBRANCH  11  12
DOCKED: ENDBRANCH  10  11
DOCKED: ENDBRANCH   9  10
DOCKED: ENDBRANCH   1   9
DOCKED: TORSDOF 7
DOCKED: TER
DOCKED: ENDMDL
________________________________________________________________________________


	BEGINNING GENETIC ALGORITHM DOCKING 32 of 100
Run: 32 Seed: 577377071 1476330096 [ Run 32 of 100 GA/GALS ]
Beginning LAMARCKIAN GENETIC ALGORITHM (LGA), with a maximum of 2500000 energy evaluations.

Final-Value: -12.608


	FINAL GENETIC ALGORITHM DOCKED STATE
	_______________________________________________


Detailed state:  trans 23.991 -17.938 -2.018 quatxyzw 0.651439 -0.562496 0.426689 0.277782 center 0.010 0.634 0.018 ntor 7 161.8531 -144.2646 21.4181 -37.3562 -121.6966 138.1524 -64.4041
State:	 23.991 -17.938  -2.018   0.678 -0.586  0.444 147.744    161.85 -144.26   21.42  -37.36 -121.70  138.15  -64.40

DOCKED: MODEL       32
DOCKED: USER    Run = 32
DOCKED: USER    DPF = ligand_dock.biased.dpf
DOCKED: USER  
DOCKED: USER    Estimated Free Energy of Binding    =   -9.94 kcal/mol  [=(1)+(2)+(3)-(4)]
DOCKED: USER    Estimated Inhibition Constant, Ki   =   51.87 nM (nanomolar)  [Temperature = 298.15 K]
DOCKED: USER    
DOCKED: USER    (1) Final Intermolecular Energy     =  -12.03 kcal/mol
DOCKED: USER        vdW + Hbond + desolv Energy     =  -12.03 kcal/mol
DOCKED: USER        Electrostatic Energy            =   +0.00 kcal/mol
DOCKED: USER    (2) Final Total Internal Energy     =   -0.58 kcal/mol
DOCKED: USER    (3) Torsional Free Energy           =   +2.09 kcal/mol
DOCKED: USER    (4) Unbound System's Energy  [=(2)] =   -0.58 kcal/mol
DOCKED: USER    
DOCKED: USER    
DOCKED: USER    NEWDPF move ligand.pdbqt
DOCKED: USER    NEWDPF about 0.010000 0.634000 0.018000
DOCKED: USER    NEWDPF tran0 23.991315 -17.937602 -2.018173
DOCKED: USER    NEWDPF quaternion0 0.651439 -0.562496 0.426689 0.277782
DOCKED: USER    NEWDPF axisangle0 0.678127 -0.585540 0.444169 147.744230
DOCKED: USER    NEWDPF quat0 0.678127 -0.585540 0.444169 147.744230
DOCKED: USER    NEWDPF dihe0 161.85 -144.26 21.42 -37.36 -121.70 138.15 -64.40 
DOCKED: USER  keepresnum = 1 
DOCKED: USER  
DOCKED: REMARK  Name = 
DOCKED: REMARK  7 active torsions:
DOCKED: REMARK  status: ('A' for Active; 'I' for Inactive)
DOCKED: REMARK    1  A    between atoms: C_3  and  C_4
DOCKED: REMARK    2  A    between atoms: C_4  and  C_5
DOCKED: REMARK    3  A    between atoms: C_5  and  C_6
DOCKED: REMARK    4  A    between atoms: C_6  and  C_7
DOCKED: REMARK    5  A    between atoms: C_7  and  C_8
DOCKED: REMARK    6  A    between atoms: C_8  and  C_9
DOCKED: REMARK    7  A    between atoms: C_9  and  C_10
DOCKED: REMARK                            x       y       z     vdW  Elec       q    Type
DOCKED: REMARK                         _______ _______ _______ _____ _____    ______ ____
DOCKED: USER                              x       y       z     vdW  Elec       q    Type
DOCKED: USER                           _______ _______ _______ _____ _____    ______ ____
DOCKED: ROOT
DOCKED: ATOM      1  C   UNL     1      25.424 -18.013  -0.339 -0.69 -0.00    +0.000 C 
DOCKED: ENDROOT
DOCKED: BRANCH   1   2
DOCKED: ATOM      2  C   UNL     1      24.016 -18.618  -0.223 -0.67 -0.00    +0.000 C 
DOCKED: BRANCH   2   3
DOCKED: ATOM      3  C   UNL     1      23.260 -18.507  -1.550 -0.72 -0.00    +0.000 C 
DOCKED: BRANCH   3   6
DOCKED: ATOM      4  O   UNL     1      19.685 -19.735  -1.638 -2.22 -0.00    +0.000 OA
DOCKED: ATOM      5  N   UNL     1      21.024 -19.676  -1.829 -0.67 -0.00    +0.000 N 
DOCKED: ATOM      6  C   UNL     1      21.780 -18.578  -1.318 -0.54 -0.00    +0.000 C 
DOCKED: ATOM      7  O   UNL     1      21.199 -17.644  -0.704 -1.94 -0.00    +0.000 OA
DOCKED: ATOM      8  H   UNL     1      21.479 -20.395  -2.324 -0.55 -0.00    +0.000 HD
DOCKED: ENDBRANCH   3   6
DOCKED: ENDBRANCH   2   3
DOCKED: ENDBRANCH   1   2
DOCKED: BRANCH   1   9
DOCKED: ATOM      9  C   UNL     1      25.406 -16.493  -0.582 -0.43 -0.00    +0.000 C 
DOCKED: BRANCH   9  10
DOCKED: ATOM     10  C   UNL     1      26.200 -16.021  -1.814 -0.48 -0.00    +0.000 C 
DOCKED: BRANCH  10  11
DOCKED: ATOM     11  C   UNL     1      25.466 -16.283  -3.135 -0.43 -0.00    +0.000 C 
DOCKED: BRANCH  11  12
DOCKED: ATOM     12  C   UNL     1      25.841 -15.250  -4.155 -0.61 -0.00    +0.000 C 
DOCKED: ATOM     13  N   UNL     1      25.606 -13.865  -3.897 -0.47 -0.00    +0.000 N 
DOCKED: ATOM     14  O   UNL     1      25.928 -12.930  -4.823 -0.39 -0.00    +0.000 OA
DOCKED: ATOM     15  O   UNL     1      26.329 -15.612  -5.260 -1.20 +0.00    +0.000 OA
DOCKED: ATOM     16  H   UNL     1      25.207 -13.587  -3.041 -0.02 -0.00    +0.000 HD
DOCKED: ENDBRANCH  11  12
DOCKED: ENDBRANCH  10  11
DOCKED: ENDBRANCH   9  10
DOCKED: ENDBRANCH   1   9
DOCKED: TORSDOF 7
DOCKED: TER
DOCKED: ENDMDL
________________________________________________________________________________


	BEGINNING GENETIC ALGORITHM DOCKING 33 of 100
Run: 33 Seed: 768767297 944231863 [ Run 33 of 100 GA/GALS ]
Beginning LAMARCKIAN GENETIC ALGORITHM (LGA), with a maximum of 2500000 energy evaluations.

Final-Value: -12.919


	FINAL GENETIC ALGORITHM DOCKED STATE
	_______________________________________________


Detailed state:  trans 24.770 -15.554 -3.239 quatxyzw 0.441433 0.267881 -0.190893 0.834827 center 0.010 0.634 0.018 ntor 7 178.1196 -3.7070 38.2060 -126.6295 -87.6451 177.9498 164.9594
State:	 24.770 -15.554  -3.239   0.802  0.487 -0.347 66.804    178.12   -3.71   38.21 -126.63  -87.65  177.95  164.96

DOCKED: MODEL       33
DOCKED: USER    Run = 33
DOCKED: USER    DPF = ligand_dock.biased.dpf
DOCKED: USER  
DOCKED: USER    Estimated Free Energy of Binding    =  -10.32 kcal/mol  [=(1)+(2)+(3)-(4)]
DOCKED: USER    Estimated Inhibition Constant, Ki   =   27.23 nM (nanomolar)  [Temperature = 298.15 K]
DOCKED: USER    
DOCKED: USER    (1) Final Intermolecular Energy     =  -12.41 kcal/mol
DOCKED: USER        vdW + Hbond + desolv Energy     =  -12.41 kcal/mol
DOCKED: USER        Electrostatic Energy            =   +0.00 kcal/mol
DOCKED: USER    (2) Final Total Internal Energy     =   -0.51 kcal/mol
DOCKED: USER    (3) Torsional Free Energy           =   +2.09 kcal/mol
DOCKED: USER    (4) Unbound System's Energy  [=(2)] =   -0.51 kcal/mol
DOCKED: USER    
DOCKED: USER    
DOCKED: USER    NEWDPF move ligand.pdbqt
DOCKED: USER    NEWDPF about 0.010000 0.634000 0.018000
DOCKED: USER    NEWDPF tran0 24.769610 -15.554445 -3.238610
DOCKED: USER    NEWDPF quaternion0 0.441433 0.267881 -0.190893 0.834827
DOCKED: USER    NEWDPF axisangle0 0.801859 0.486604 -0.346756 66.804297
DOCKED: USER    NEWDPF quat0 0.801859 0.486604 -0.346756 66.804297
DOCKED: USER    NEWDPF dihe0 178.12 -3.71 38.21 -126.63 -87.65 177.95 164.96 
DOCKED: USER  keepresnum = 1 
DOCKED: USER  
DOCKED: REMARK  Name = 
DOCKED: REMARK  7 active torsions:
DOCKED: REMARK  status: ('A' for Active; 'I' for Inactive)
DOCKED: REMARK    1  A    between atoms: C_3  and  C_4
DOCKED: REMARK    2  A    between atoms: C_4  and  C_5
DOCKED: REMARK    3  A    between atoms: C_5  and  C_6
DOCKED: REMARK    4  A    between atoms: C_6  and  C_7
DOCKED: REMARK    5  A    between atoms: C_7  and  C_8
DOCKED: REMARK    6  A    between atoms: C_8  and  C_9
DOCKED: REMARK    7  A    between atoms: C_9  and  C_10
DOCKED: REMARK                            x       y       z     vdW  Elec       q    Type
DOCKED: REMARK                         _______ _______ _______ _____ _____    ______ ____
DOCKED: USER                              x       y       z     vdW  Elec       q    Type
DOCKED: USER                           _______ _______ _______ _____ _____    ______ ____
DOCKED: ROOT
DOCKED: ATOM      1  C   UNL     1      25.050 -16.136  -1.127 -0.51 -0.00    +0.000 C 
DOCKED: ENDROOT
DOCKED: BRANCH   1   2
DOCKED: ATOM      2  C   UNL     1      26.212 -16.171  -2.132 -0.49 -0.00    +0.000 C 
DOCKED: BRANCH   2   3
DOCKED: ATOM      3  C   UNL     1      26.129 -14.994  -3.107 -0.48 -0.00    +0.000 C 
DOCKED: BRANCH   3   6
DOCKED: ATOM      4  O   UNL     1      28.183 -15.566  -6.231 -0.71 +0.00    +0.000 OA
DOCKED: ATOM      5  N   UNL     1      27.836 -15.190  -4.977 -0.40 -0.00    +0.000 N 
DOCKED: ATOM      6  C   UNL     1      26.515 -15.430  -4.489 -0.51 -0.00    +0.000 C 
DOCKED: ATOM      7  O   UNL     1      25.657 -15.975  -5.235 -1.08 +0.00    +0.000 OA
DOCKED: ATOM      8  H   UNL     1      28.498 -14.748  -4.398 +0.00 -0.00    +0.000 HD
DOCKED: ENDBRANCH   3   6
DOCKED: ENDBRANCH   2   3
DOCKED: ENDBRANCH   1   2
DOCKED: BRANCH   1   9
DOCKED: ATOM      9  C   UNL     1      23.906 -17.095  -1.498 -0.61 -0.00    +0.000 C 
DOCKED: BRANCH   9  10
DOCKED: ATOM     10  C   UNL     1      23.850 -18.393  -0.670 -0.80 -0.00    +0.000 C 
DOCKED: BRANCH  10  11
DOCKED: ATOM     11  C   UNL     1      22.570 -18.513   0.167 -0.69 -0.00    +0.000 C 
DOCKED: BRANCH  11  12
DOCKED: ATOM     12  C   UNL     1      21.363 -18.522  -0.722 -0.85 -0.00    +0.000 C 
DOCKED: ATOM     13  N   UNL     1      20.954 -19.729  -1.369 -0.76 -0.00    +0.000 N 
DOCKED: ATOM     14  O   UNL     1      19.874 -19.738  -2.186 -2.32 -0.00    +0.000 OA
DOCKED: ATOM     15  O   UNL     1      20.732 -17.451  -0.929 -2.03 -0.00    +0.000 OA
DOCKED: ATOM     16  H   UNL     1      21.460 -20.560  -1.220 -0.15 -0.00    +0.000 HD
DOCKED: ENDBRANCH  11  12
DOCKED: ENDBRANCH  10  11
DOCKED: ENDBRANCH   9  10
DOCKED: ENDBRANCH   1   9
DOCKED: TORSDOF 7
DOCKED: TER
DOCKED: ENDMDL
________________________________________________________________________________


	BEGINNING GENETIC ALGORITHM DOCKING 34 of 100
Run: 34 Seed: 2092704378 1742807387 [ Run 34 of 100 GA/GALS ]
Beginning LAMARCKIAN GENETIC ALGORITHM (LGA), with a maximum of 2500000 energy evaluations.

Final-Value: -11.900


	FINAL GENETIC ALGORITHM DOCKED STATE
	_______________________________________________


Detailed state:  trans 24.643 -18.665 -2.340 quatxyzw 0.656688 -0.309034 0.586158 0.360107 center 0.010 0.634 0.018 ntor 7 -179.8861 -4.7431 43.4359 40.8776 178.7177 -36.8774 -16.3898
State:	 24.643 -18.665  -2.340   0.704 -0.331  0.628 137.786   -179.89   -4.74   43.44   40.88  178.72  -36.88  -16.39

DOCKED: MODEL       34
DOCKED: USER    Run = 34
DOCKED: USER    DPF = ligand_dock.biased.dpf
DOCKED: USER  
DOCKED: USER    Estimated Free Energy of Binding    =   -9.39 kcal/mol  [=(1)+(2)+(3)-(4)]
DOCKED: USER    Estimated Inhibition Constant, Ki   =  130.06 nM (nanomolar)  [Temperature = 298.15 K]
DOCKED: USER    
DOCKED: USER    (1) Final Intermolecular Energy     =  -11.48 kcal/mol
DOCKED: USER        vdW + Hbond + desolv Energy     =  -11.48 kcal/mol
DOCKED: USER        Electrostatic Energy            =   +0.00 kcal/mol
DOCKED: USER    (2) Final Total Internal Energy     =   -0.42 kcal/mol
DOCKED: USER    (3) Torsional Free Energy           =   +2.09 kcal/mol
DOCKED: USER    (4) Unbound System's Energy  [=(2)] =   -0.42 kcal/mol
DOCKED: USER    
DOCKED: USER    
DOCKED: USER    NEWDPF move ligand.pdbqt
DOCKED: USER    NEWDPF about 0.010000 0.634000 0.018000
DOCKED: USER    NEWDPF tran0 24.642714 -18.665260 -2.340004
DOCKED: USER    NEWDPF quaternion0 0.656688 -0.309034 0.586158 0.360107
DOCKED: USER    NEWDPF axisangle0 0.703913 -0.331257 0.628311 137.786435
DOCKED: USER    NEWDPF quat0 0.703913 -0.331257 0.628311 137.786435
DOCKED: USER    NEWDPF dihe0 -179.89 -4.74 43.44 40.88 178.72 -36.88 -16.39 
DOCKED: USER  keepresnum = 1 
DOCKED: USER  
DOCKED: REMARK  Name = 
DOCKED: REMARK  7 active torsions:
DOCKED: REMARK  status: ('A' for Active; 'I' for Inactive)
DOCKED: REMARK    1  A    between atoms: C_3  and  C_4
DOCKED: REMARK    2  A    between atoms: C_4  and  C_5
DOCKED: REMARK    3  A    between atoms: C_5  and  C_6
DOCKED: REMARK    4  A    between atoms: C_6  and  C_7
DOCKED: REMARK    5  A    between atoms: C_7  and  C_8
DOCKED: REMARK    6  A    between atoms: C_8  and  C_9
DOCKED: REMARK    7  A    between atoms: C_9  and  C_10
DOCKED: REMARK                            x       y       z     vdW  Elec       q    Type
DOCKED: REMARK                         _______ _______ _______ _____ _____    ______ ____
DOCKED: USER                              x       y       z     vdW  Elec       q    Type
DOCKED: USER                           _______ _______ _______ _____ _____    ______ ____
DOCKED: ROOT
DOCKED: ATOM      1  C   UNL     1      25.108 -17.860  -0.337 -0.70 -0.00    +0.000 C 
DOCKED: ENDROOT
DOCKED: BRANCH   1   2
DOCKED: ATOM      2  C   UNL     1      23.997 -18.900  -0.547 -0.63 -0.00    +0.000 C 
DOCKED: BRANCH   2   3
DOCKED: ATOM      3  C   UNL     1      22.971 -18.407  -1.571 -0.59 -0.00    +0.000 C 
DOCKED: BRANCH   3   6
DOCKED: ATOM      4  O   UNL     1      19.613 -20.084  -1.107 -1.74 -0.00    +0.000 OA
DOCKED: ATOM      5  N   UNL     1      20.879 -19.845  -1.525 -0.64 -0.00    +0.000 N 
DOCKED: ATOM      6  C   UNL     1      21.577 -18.678  -1.090 -0.80 -0.00    +0.000 C 
DOCKED: ATOM      7  O   UNL     1      21.007 -17.850  -0.328 -1.90 +0.00    +0.000 OA
DOCKED: ATOM      8  H   UNL     1      21.320 -20.480  -2.134 -0.49 -0.00    +0.000 HD
DOCKED: ENDBRANCH   3   6
DOCKED: ENDBRANCH   2   3
DOCKED: ENDBRANCH   1   2
DOCKED: BRANCH   1   9
DOCKED: ATOM      9  C   UNL     1      24.842 -16.539  -1.080 -0.59 -0.00    +0.000 C 
DOCKED: BRANCH   9  10
DOCKED: ATOM     10  C   UNL     1      25.135 -16.571  -2.591 -0.52 -0.00    +0.000 C 
DOCKED: BRANCH  10  11
DOCKED: ATOM     11  C   UNL     1      26.507 -15.985  -2.948 -0.44 -0.00    +0.000 C 
DOCKED: BRANCH  11  12
DOCKED: ATOM     12  C   UNL     1      26.381 -15.007  -4.076 -0.53 -0.00    +0.000 C 
DOCKED: ATOM     13  N   UNL     1      25.944 -13.669  -3.825 -0.40 -0.00    +0.000 N 
DOCKED: ATOM     14  O   UNL     1      25.812 -12.787  -4.843 -0.38 -0.00    +0.000 OA
DOCKED: ATOM     15  O   UNL     1      26.622 -15.379  -5.256 -1.11 +0.00    +0.000 OA
DOCKED: ATOM     16  H   UNL     1      25.738 -13.387  -2.905 -0.02 -0.00    +0.000 HD
DOCKED: ENDBRANCH  11  12
DOCKED: ENDBRANCH  10  11
DOCKED: ENDBRANCH   9  10
DOCKED: ENDBRANCH   1   9
DOCKED: TORSDOF 7
DOCKED: TER
DOCKED: ENDMDL
________________________________________________________________________________


	BEGINNING GENETIC ALGORITHM DOCKING 35 of 100
Run: 35 Seed: 913979839 1062687487 [ Run 35 of 100 GA/GALS ]
Beginning LAMARCKIAN GENETIC ALGORITHM (LGA), with a maximum of 2500000 energy evaluations.

Final-Value: -13.272


	FINAL GENETIC ALGORITHM DOCKED STATE
	_______________________________________________


Detailed state:  trans 27.375 -16.214 -1.097 quatxyzw 0.620676 0.708549 -0.248092 -0.226209 center 0.010 0.634 0.018 ntor 7 -178.2370 128.2350 -163.6413 21.4296 -34.4285 117.7944 -171.9933
State:	 27.375 -16.214  -1.097   0.637  0.727 -0.255 -153.852   -178.24  128.24 -163.64   21.43  -34.43  117.79 -171.99

DOCKED: MODEL       35
DOCKED: USER    Run = 35
DOCKED: USER    DPF = ligand_dock.biased.dpf
DOCKED: USER  
DOCKED: USER    Estimated Free Energy of Binding    =  -10.58 kcal/mol  [=(1)+(2)+(3)-(4)]
DOCKED: USER    Estimated Inhibition Constant, Ki   =   17.72 nM (nanomolar)  [Temperature = 298.15 K]
DOCKED: USER    
DOCKED: USER    (1) Final Intermolecular Energy     =  -12.66 kcal/mol
DOCKED: USER        vdW + Hbond + desolv Energy     =  -12.66 kcal/mol
DOCKED: USER        Electrostatic Energy            =   +0.00 kcal/mol
DOCKED: USER    (2) Final Total Internal Energy     =   -0.61 kcal/mol
DOCKED: USER    (3) Torsional Free Energy           =   +2.09 kcal/mol
DOCKED: USER    (4) Unbound System's Energy  [=(2)] =   -0.61 kcal/mol
DOCKED: USER    
DOCKED: USER    
DOCKED: USER    NEWDPF move ligand.pdbqt
DOCKED: USER    NEWDPF about 0.010000 0.634000 0.018000
DOCKED: USER    NEWDPF tran0 27.375017 -16.213678 -1.097493
DOCKED: USER    NEWDPF quaternion0 0.620676 0.708549 -0.248092 -0.226209
DOCKED: USER    NEWDPF axisangle0 0.637193 0.727404 -0.254694 -153.852068
DOCKED: USER    NEWDPF quat0 0.637193 0.727404 -0.254694 -153.852068
DOCKED: USER    NEWDPF dihe0 -178.24 128.24 -163.64 21.43 -34.43 117.79 -171.99 
DOCKED: USER  keepresnum = 1 
DOCKED: USER  
DOCKED: REMARK  Name = 
DOCKED: REMARK  7 active torsions:
DOCKED: REMARK  status: ('A' for Active; 'I' for Inactive)
DOCKED: REMARK    1  A    between atoms: C_3  and  C_4
DOCKED: REMARK    2  A    between atoms: C_4  and  C_5
DOCKED: REMARK    3  A    between atoms: C_5  and  C_6
DOCKED: REMARK    4  A    between atoms: C_6  and  C_7
DOCKED: REMARK    5  A    between atoms: C_7  and  C_8
DOCKED: REMARK    6  A    between atoms: C_8  and  C_9
DOCKED: REMARK    7  A    between atoms: C_9  and  C_10
DOCKED: REMARK                            x       y       z     vdW  Elec       q    Type
DOCKED: REMARK                         _______ _______ _______ _____ _____    ______ ____
DOCKED: USER                              x       y       z     vdW  Elec       q    Type
DOCKED: USER                           _______ _______ _______ _____ _____    ______ ____
DOCKED: ROOT
DOCKED: ATOM      1  C   UNL     1      25.228 -16.346  -1.598 -0.59 -0.00    +0.000 C 
DOCKED: ENDROOT
DOCKED: BRANCH   1   2
DOCKED: ATOM      2  C   UNL     1      25.858 -15.036  -1.098 -0.39 -0.00    +0.000 C 
DOCKED: BRANCH   2   3
DOCKED: ATOM      3  C   UNL     1      26.359 -14.187  -2.270 -0.31 -0.00    +0.000 C 
DOCKED: BRANCH   3   6
DOCKED: ATOM      4  O   UNL     1      25.874 -15.984  -5.563 -1.13 +0.00    +0.000 OA
DOCKED: ATOM      5  N   UNL     1      26.424 -15.579  -4.393 -0.53 -0.00    +0.000 N 
DOCKED: ATOM      6  C   UNL     1      25.737 -14.648  -3.555 -0.53 -0.00    +0.000 C 
DOCKED: ATOM      7  O   UNL     1      24.623 -14.181  -3.913 -1.05 -0.00    +0.000 OA
DOCKED: ATOM      8  H   UNL     1      27.302 -15.928  -4.120 -0.02 -0.00    +0.000 HD
DOCKED: ENDBRANCH   3   6
DOCKED: ENDBRANCH   2   3
DOCKED: ENDBRANCH   1   2
DOCKED: BRANCH   1   9
DOCKED: ATOM      9  C   UNL     1      25.313 -17.485  -0.566 -0.66 -0.00    +0.000 C 
DOCKED: BRANCH   9  10
DOCKED: ATOM     10  C   UNL     1      23.971 -18.162  -0.232 -0.75 -0.00    +0.000 C 
DOCKED: BRANCH  10  11
DOCKED: ATOM     11  C   UNL     1      23.259 -18.721  -1.471 -0.77 -0.00    +0.000 C 
DOCKED: BRANCH  11  12
DOCKED: ATOM     12  C   UNL     1      21.774 -18.716  -1.266 -0.66 -0.00    +0.000 C 
DOCKED: ATOM     13  N   UNL     1      20.964 -19.743  -1.842 -0.67 -0.00    +0.000 N 
DOCKED: ATOM     14  O   UNL     1      19.620 -19.732  -1.674 -2.19 -0.00    +0.000 OA
DOCKED: ATOM     15  O   UNL     1      21.236 -17.779  -0.617 -1.88 -0.00    +0.000 OA
DOCKED: ATOM     16  H   UNL     1      21.385 -20.463  -2.364 -0.54 -0.00    +0.000 HD
DOCKED: ENDBRANCH  11  12
DOCKED: ENDBRANCH  10  11
DOCKED: ENDBRANCH   9  10
DOCKED: ENDBRANCH   1   9
DOCKED: TORSDOF 7
DOCKED: TER
DOCKED: ENDMDL
________________________________________________________________________________


	BEGINNING GENETIC ALGORITHM DOCKING 36 of 100
Run: 36 Seed: 2067368312 1830219939 [ Run 36 of 100 GA/GALS ]
Beginning LAMARCKIAN GENETIC ALGORITHM (LGA), with a maximum of 2500000 energy evaluations.

Final-Value: -11.790


	FINAL GENETIC ALGORITHM DOCKED STATE
	_______________________________________________


Detailed state:  trans 26.934 -17.267 -2.655 quatxyzw 0.787449 0.499421 -0.309887 0.185665 center 0.010 0.634 0.018 ntor 7 21.7889 61.5964 -17.4843 38.6951 161.5863 -135.5267 -160.0934
State:	 26.934 -17.267  -2.655   0.801  0.508 -0.315 158.600     21.79   61.60  -17.48   38.70  161.59 -135.53 -160.09

DOCKED: MODEL       36
DOCKED: USER    Run = 36
DOCKED: USER    DPF = ligand_dock.biased.dpf
DOCKED: USER  
DOCKED: USER    Estimated Free Energy of Binding    =   -9.28 kcal/mol  [=(1)+(2)+(3)-(4)]
DOCKED: USER    Estimated Inhibition Constant, Ki   =  158.43 nM (nanomolar)  [Temperature = 298.15 K]
DOCKED: USER    
DOCKED: USER    (1) Final Intermolecular Energy     =  -11.37 kcal/mol
DOCKED: USER        vdW + Hbond + desolv Energy     =  -11.37 kcal/mol
DOCKED: USER        Electrostatic Energy            =   +0.00 kcal/mol
DOCKED: USER    (2) Final Total Internal Energy     =   -0.42 kcal/mol
DOCKED: USER    (3) Torsional Free Energy           =   +2.09 kcal/mol
DOCKED: USER    (4) Unbound System's Energy  [=(2)] =   -0.42 kcal/mol
DOCKED: USER    
DOCKED: USER    
DOCKED: USER    NEWDPF move ligand.pdbqt
DOCKED: USER    NEWDPF about 0.010000 0.634000 0.018000
DOCKED: USER    NEWDPF tran0 26.934254 -17.266843 -2.655259
DOCKED: USER    NEWDPF quaternion0 0.787449 0.499421 -0.309887 0.185665
DOCKED: USER    NEWDPF axisangle0 0.801383 0.508258 -0.315371 158.600183
DOCKED: USER    NEWDPF quat0 0.801383 0.508258 -0.315371 158.600183
DOCKED: USER    NEWDPF dihe0 21.79 61.60 -17.48 38.70 161.59 -135.53 -160.09 
DOCKED: USER  keepresnum = 1 
DOCKED: USER  
DOCKED: REMARK  Name = 
DOCKED: REMARK  7 active torsions:
DOCKED: REMARK  status: ('A' for Active; 'I' for Inactive)
DOCKED: REMARK    1  A    between atoms: C_3  and  C_4
DOCKED: REMARK    2  A    between atoms: C_4  and  C_5
DOCKED: REMARK    3  A    between atoms: C_5  and  C_6
DOCKED: REMARK    4  A    between atoms: C_6  and  C_7
DOCKED: REMARK    5  A    between atoms: C_7  and  C_8
DOCKED: REMARK    6  A    between atoms: C_8  and  C_9
DOCKED: REMARK    7  A    between atoms: C_9  and  C_10
DOCKED: REMARK                            x       y       z     vdW  Elec       q    Type
DOCKED: REMARK                         _______ _______ _______ _____ _____    ______ ____
DOCKED: USER                              x       y       z     vdW  Elec       q    Type
DOCKED: USER                           _______ _______ _______ _____ _____    ______ ____
DOCKED: ROOT
DOCKED: ATOM      1  C   UNL     1      25.370 -15.925  -1.862 -0.54 -0.00    +0.000 C 
DOCKED: ENDROOT
DOCKED: BRANCH   1   2
DOCKED: ATOM      2  C   UNL     1      26.861 -15.669  -1.593 -0.38 -0.00    +0.000 C 
DOCKED: BRANCH   2   3
DOCKED: ATOM      3  C   UNL     1      27.416 -16.672  -0.578 -0.43 -0.00    +0.000 C 
DOCKED: BRANCH   3   6
DOCKED: ATOM      4  O   UNL     1      31.023 -16.056   0.377 -0.16 -0.00    +0.000 OA
DOCKED: ATOM      5  N   UNL     1      29.670 -16.062   0.420 -0.07 -0.00    +0.000 N 
DOCKED: ATOM      6  C   UNL     1      28.915 -16.686  -0.619 -0.27 -0.00    +0.000 C 
DOCKED: ATOM      7  O   UNL     1      29.507 -17.217  -1.596 -0.28 -0.00    +0.000 OA
DOCKED: ATOM      8  H   UNL     1      29.203 -15.632   1.173 -0.92 -0.00    +0.000 HD
DOCKED: ENDBRANCH   3   6
DOCKED: ENDBRANCH   2   3
DOCKED: ENDBRANCH   1   2
DOCKED: BRANCH   1   9
DOCKED: ATOM      9  C   UNL     1      24.875 -17.258  -1.274 -0.67 -0.00    +0.000 C 
DOCKED: BRANCH   9  10
DOCKED: ATOM     10  C   UNL     1      23.491 -17.200  -0.601 -0.68 -0.00    +0.000 C 
DOCKED: BRANCH  10  11
DOCKED: ATOM     11  C   UNL     1      22.862 -18.585  -0.405 -0.83 -0.00    +0.000 C 
DOCKED: BRANCH  11  12
DOCKED: ATOM     12  C   UNL     1      21.428 -18.574  -0.841 -0.84 -0.00    +0.000 C 
DOCKED: ATOM     13  N   UNL     1      20.841 -19.741  -1.421 -0.78 -0.00    +0.000 N 
DOCKED: ATOM     14  O   UNL     1      19.551 -19.730  -1.831 -2.17 -0.00    +0.000 OA
DOCKED: ATOM     15  O   UNL     1      20.749 -17.517  -0.731 -2.10 +0.00    +0.000 OA
DOCKED: ATOM     16  H   UNL     1      21.379 -20.559  -1.523 -0.26 -0.00    +0.000 HD
DOCKED: ENDBRANCH  11  12
DOCKED: ENDBRANCH  10  11
DOCKED: ENDBRANCH   9  10
DOCKED: ENDBRANCH   1   9
DOCKED: TORSDOF 7
DOCKED: TER
DOCKED: ENDMDL
________________________________________________________________________________


	BEGINNING GENETIC ALGORITHM DOCKING 37 of 100
Run: 37 Seed: 665133523 144738360 [ Run 37 of 100 GA/GALS ]
Beginning LAMARCKIAN GENETIC ALGORITHM (LGA), with a maximum of 2500000 energy evaluations.

Final-Value: -12.745


	FINAL GENETIC ALGORITHM DOCKED STATE
	_______________________________________________


Detailed state:  trans 24.316 -19.095 -2.413 quatxyzw 0.661238 -0.448813 0.580749 0.155116 center 0.010 0.634 0.018 ntor 7 -166.3816 -158.7630 3.6336 171.3303 179.9364 -113.0195 179.2348
State:	 24.316 -19.095  -2.413   0.669 -0.454  0.588 162.153   -166.38 -158.76    3.63  171.33  179.94 -113.02  179.23

DOCKED: MODEL       37
DOCKED: USER    Run = 37
DOCKED: USER    DPF = ligand_dock.biased.dpf
DOCKED: USER  
DOCKED: USER    Estimated Free Energy of Binding    =   -9.98 kcal/mol  [=(1)+(2)+(3)-(4)]
DOCKED: USER    Estimated Inhibition Constant, Ki   =   47.99 nM (nanomolar)  [Temperature = 298.15 K]
DOCKED: USER    
DOCKED: USER    (1) Final Intermolecular Energy     =  -12.07 kcal/mol
DOCKED: USER        vdW + Hbond + desolv Energy     =  -12.07 kcal/mol
DOCKED: USER        Electrostatic Energy            =   +0.00 kcal/mol
DOCKED: USER    (2) Final Total Internal Energy     =   -0.67 kcal/mol
DOCKED: USER    (3) Torsional Free Energy           =   +2.09 kcal/mol
DOCKED: USER    (4) Unbound System's Energy  [=(2)] =   -0.67 kcal/mol
DOCKED: USER    
DOCKED: USER    
DOCKED: USER    NEWDPF move ligand.pdbqt
DOCKED: USER    NEWDPF about 0.010000 0.634000 0.018000
DOCKED: USER    NEWDPF tran0 24.316199 -19.094616 -2.412762
DOCKED: USER    NEWDPF quaternion0 0.661238 -0.448813 0.580749 0.155116
DOCKED: USER    NEWDPF axisangle0 0.669340 -0.454312 0.587865 162.152992
DOCKED: USER    NEWDPF quat0 0.669340 -0.454312 0.587865 162.152992
DOCKED: USER    NEWDPF dihe0 -166.38 -158.76 3.63 171.33 179.94 -113.02 179.23 
DOCKED: USER  keepresnum = 1 
DOCKED: USER  
DOCKED: REMARK  Name = 
DOCKED: REMARK  7 active torsions:
DOCKED: REMARK  status: ('A' for Active; 'I' for Inactive)
DOCKED: REMARK    1  A    between atoms: C_3  and  C_4
DOCKED: REMARK    2  A    between atoms: C_4  and  C_5
DOCKED: REMARK    3  A    between atoms: C_5  and  C_6
DOCKED: REMARK    4  A    between atoms: C_6  and  C_7
DOCKED: REMARK    5  A    between atoms: C_7  and  C_8
DOCKED: REMARK    6  A    between atoms: C_8  and  C_9
DOCKED: REMARK    7  A    between atoms: C_9  and  C_10
DOCKED: REMARK                            x       y       z     vdW  Elec       q    Type
DOCKED: REMARK                         _______ _______ _______ _____ _____    ______ ____
DOCKED: USER                              x       y       z     vdW  Elec       q    Type
DOCKED: USER                           _______ _______ _______ _____ _____    ______ ____
DOCKED: ROOT
DOCKED: ATOM      1  C   UNL     1      25.553 -18.454  -0.699 -0.61 -0.00    +0.000 C 
DOCKED: ENDROOT
DOCKED: BRANCH   1   2
DOCKED: ATOM      2  C   UNL     1      24.109 -18.945  -0.510 -0.55 -0.00    +0.000 C 
DOCKED: BRANCH   2   3
DOCKED: ATOM      3  C   UNL     1      23.138 -18.143  -1.381 -0.73 -0.00    +0.000 C 
DOCKED: BRANCH   3   6
DOCKED: ATOM      4  O   UNL     1      19.889 -20.073  -1.516 -2.07 -0.00    +0.000 OA
DOCKED: ATOM      5  N   UNL     1      21.172 -19.707  -1.748 -0.61 -0.00    +0.000 N 
DOCKED: ATOM      6  C   UNL     1      21.723 -18.556  -1.106 -0.76 -0.00    +0.000 C 
DOCKED: ATOM      7  O   UNL     1      21.008 -17.860  -0.336 -1.94 +0.00    +0.000 OA
DOCKED: ATOM      8  H   UNL     1      21.728 -20.238  -2.362 -0.59 -0.00    +0.000 HD
DOCKED: ENDBRANCH   3   6
DOCKED: ENDBRANCH   2   3
DOCKED: ENDBRANCH   1   2
DOCKED: BRANCH   1   9
DOCKED: ATOM      9  C   UNL     1      25.646 -17.183  -1.561 -0.59 -0.00    +0.000 C 
DOCKED: BRANCH   9  10
DOCKED: ATOM     10  C   UNL     1      26.229 -15.951  -0.845 -0.45 -0.00    +0.000 C 
DOCKED: BRANCH  10  11
DOCKED: ATOM     11  C   UNL     1      26.175 -14.679  -1.701 -0.36 -0.00    +0.000 C 
DOCKED: BRANCH  11  12
DOCKED: ATOM     12  C   UNL     1      25.585 -14.979  -3.046 -0.52 -0.00    +0.000 C 
DOCKED: ATOM     13  N   UNL     1      26.342 -15.698  -4.021 -0.48 -0.00    +0.000 N 
DOCKED: ATOM     14  O   UNL     1      25.819 -15.956  -5.243 -1.11 +0.00    +0.000 OA
DOCKED: ATOM     15  O   UNL     1      24.431 -14.558  -3.330 -0.68 -0.00    +0.000 OA
DOCKED: ATOM     16  H   UNL     1      27.251 -16.009  -3.803 -0.02 -0.00    +0.000 HD
DOCKED: ENDBRANCH  11  12
DOCKED: ENDBRANCH  10  11
DOCKED: ENDBRANCH   9  10
DOCKED: ENDBRANCH   1   9
DOCKED: TORSDOF 7
DOCKED: TER
DOCKED: ENDMDL
________________________________________________________________________________


	BEGINNING GENETIC ALGORITHM DOCKING 38 of 100
Run: 38 Seed: 385750267 1489692115 [ Run 38 of 100 GA/GALS ]
Beginning LAMARCKIAN GENETIC ALGORITHM (LGA), with a maximum of 2500000 energy evaluations.

Final-Value: -12.950


	FINAL GENETIC ALGORITHM DOCKED STATE
	_______________________________________________


Detailed state:  trans 22.439 -17.662 -0.912 quatxyzw -0.652559 0.741881 0.150981 -0.031357 center 0.010 0.634 0.018 ntor 7 -40.3127 16.7442 -97.2271 170.2645 -141.1583 170.2346 163.9808
State:	 22.439 -17.662  -0.912  -0.653  0.742  0.151 -176.406    -40.31   16.74  -97.23  170.26 -141.16  170.23  163.98

DOCKED: MODEL       38
DOCKED: USER    Run = 38
DOCKED: USER    DPF = ligand_dock.biased.dpf
DOCKED: USER  
DOCKED: USER    Estimated Free Energy of Binding    =  -10.18 kcal/mol  [=(1)+(2)+(3)-(4)]
DOCKED: USER    Estimated Inhibition Constant, Ki   =   34.70 nM (nanomolar)  [Temperature = 298.15 K]
DOCKED: USER    
DOCKED: USER    (1) Final Intermolecular Energy     =  -12.26 kcal/mol
DOCKED: USER        vdW + Hbond + desolv Energy     =  -12.26 kcal/mol
DOCKED: USER        Electrostatic Energy            =   +0.00 kcal/mol
DOCKED: USER    (2) Final Total Internal Energy     =   -0.69 kcal/mol
DOCKED: USER    (3) Torsional Free Energy           =   +2.09 kcal/mol
DOCKED: USER    (4) Unbound System's Energy  [=(2)] =   -0.69 kcal/mol
DOCKED: USER    
DOCKED: USER    
DOCKED: USER    NEWDPF move ligand.pdbqt
DOCKED: USER    NEWDPF about 0.010000 0.634000 0.018000
DOCKED: USER    NEWDPF tran0 22.439184 -17.662464 -0.911893
DOCKED: USER    NEWDPF quaternion0 -0.652559 0.741881 0.150981 -0.031357
DOCKED: USER    NEWDPF axisangle0 -0.652880 0.742246 0.151055 -176.406198
DOCKED: USER    NEWDPF quat0 -0.652880 0.742246 0.151055 -176.406198
DOCKED: USER    NEWDPF dihe0 -40.31 16.74 -97.23 170.26 -141.16 170.23 163.98 
DOCKED: USER  keepresnum = 1 
DOCKED: USER  
DOCKED: REMARK  Name = 
DOCKED: REMARK  7 active torsions:
DOCKED: REMARK  status: ('A' for Active; 'I' for Inactive)
DOCKED: REMARK    1  A    between atoms: C_3  and  C_4
DOCKED: REMARK    2  A    between atoms: C_4  and  C_5
DOCKED: REMARK    3  A    between atoms: C_5  and  C_6
DOCKED: REMARK    4  A    between atoms: C_6  and  C_7
DOCKED: REMARK    5  A    between atoms: C_7  and  C_8
DOCKED: REMARK    6  A    between atoms: C_8  and  C_9
DOCKED: REMARK    7  A    between atoms: C_9  and  C_10
DOCKED: REMARK                            x       y       z     vdW  Elec       q    Type
DOCKED: REMARK                         _______ _______ _______ _____ _____    ______ ____
DOCKED: USER                              x       y       z     vdW  Elec       q    Type
DOCKED: USER                           _______ _______ _______ _____ _____    ______ ____
DOCKED: ROOT
DOCKED: ATOM      1  C   UNL     1      24.362 -18.227  -1.839 -0.54 -0.00    +0.000 C 
DOCKED: ENDROOT
DOCKED: BRANCH   1   2
DOCKED: ATOM      2  C   UNL     1      23.742 -19.058  -0.705 -0.71 -0.00    +0.000 C 
DOCKED: BRANCH   2   3
DOCKED: ATOM      3  C   UNL     1      22.650 -18.267   0.020 -0.78 -0.00    +0.000 C 
DOCKED: BRANCH   3   6
DOCKED: ATOM      4  O   UNL     1      19.752 -19.735  -1.916 -2.28 -0.00    +0.000 OA
DOCKED: ATOM      5  N   UNL     1      20.919 -19.635  -1.237 -0.79 -0.00    +0.000 N 
DOCKED: ATOM      6  C   UNL     1      21.347 -18.376  -0.715 -0.83 -0.00    +0.000 C 
DOCKED: ATOM      7  O   UNL     1      20.648 -17.345  -0.904 -1.92 +0.00    +0.000 OA
DOCKED: ATOM      8  H   UNL     1      21.476 -20.435  -1.103 -0.20 -0.00    +0.000 HD
DOCKED: ENDBRANCH   3   6
DOCKED: ENDBRANCH   2   3
DOCKED: ENDBRANCH   1   2
DOCKED: BRANCH   1   9
DOCKED: ATOM      9  C   UNL     1      24.706 -16.790  -1.412 -0.64 -0.00    +0.000 C 
DOCKED: BRANCH   9  10
DOCKED: ATOM     10  C   UNL     1      26.198 -16.533  -1.129 -0.52 -0.00    +0.000 C 
DOCKED: BRANCH  10  11
DOCKED: ATOM     11  C   UNL     1      26.868 -15.662  -2.200 -0.38 -0.00    +0.000 C 
DOCKED: BRANCH  11  12
DOCKED: ATOM     12  C   UNL     1      25.893 -15.327  -3.287 -0.55 -0.00    +0.000 C 
DOCKED: ATOM     13  N   UNL     1      25.277 -14.038  -3.331 -0.43 -0.00    +0.000 N 
DOCKED: ATOM     14  O   UNL     1      24.382 -13.737  -4.302 -1.11 -0.00    +0.000 OA
DOCKED: ATOM     15  O   UNL     1      25.585 -16.201  -4.142 -0.60 -0.00    +0.000 OA
DOCKED: ATOM     16  H   UNL     1      25.505 -13.364  -2.651 -0.01 -0.00    +0.000 HD
DOCKED: ENDBRANCH  11  12
DOCKED: ENDBRANCH  10  11
DOCKED: ENDBRANCH   9  10
DOCKED: ENDBRANCH   1   9
DOCKED: TORSDOF 7
DOCKED: TER
DOCKED: ENDMDL
________________________________________________________________________________


	BEGINNING GENETIC ALGORITHM DOCKING 39 of 100
Run: 39 Seed: 1527552819 1894653061 [ Run 39 of 100 GA/GALS ]
Beginning LAMARCKIAN GENETIC ALGORITHM (LGA), with a maximum of 2500000 energy evaluations.

Final-Value: -11.764


	FINAL GENETIC ALGORITHM DOCKED STATE
	_______________________________________________


Detailed state:  trans 23.823 -15.287 -2.091 quatxyzw 0.235520 -0.047748 -0.112983 0.964098 center 0.010 0.634 0.018 ntor 7 179.9204 -180.0000 12.6300 88.5231 -46.5296 -71.9464 -179.9511
State:	 23.823 -15.287  -2.091   0.887 -0.180 -0.425 30.799    179.92 -180.00   12.63   88.52  -46.53  -71.95 -179.95

DOCKED: MODEL       39
DOCKED: USER    Run = 39
DOCKED: USER    DPF = ligand_dock.biased.dpf
DOCKED: USER  
DOCKED: USER    Estimated Free Energy of Binding    =   -9.26 kcal/mol  [=(1)+(2)+(3)-(4)]
DOCKED: USER    Estimated Inhibition Constant, Ki   =  161.69 nM (nanomolar)  [Temperature = 298.15 K]
DOCKED: USER    
DOCKED: USER    (1) Final Intermolecular Energy     =  -11.35 kcal/mol
DOCKED: USER        vdW + Hbond + desolv Energy     =  -11.35 kcal/mol
DOCKED: USER        Electrostatic Energy            =   +0.00 kcal/mol
DOCKED: USER    (2) Final Total Internal Energy     =   -0.41 kcal/mol
DOCKED: USER    (3) Torsional Free Energy           =   +2.09 kcal/mol
DOCKED: USER    (4) Unbound System's Energy  [=(2)] =   -0.41 kcal/mol
DOCKED: USER    
DOCKED: USER    
DOCKED: USER    NEWDPF move ligand.pdbqt
DOCKED: USER    NEWDPF about 0.010000 0.634000 0.018000
DOCKED: USER    NEWDPF tran0 23.823315 -15.287240 -2.091158
DOCKED: USER    NEWDPF quaternion0 0.235520 -0.047748 -0.112983 0.964098
DOCKED: USER    NEWDPF axisangle0 0.886928 -0.179810 -0.425473 30.798823
DOCKED: USER    NEWDPF quat0 0.886928 -0.179810 -0.425473 30.798823
DOCKED: USER    NEWDPF dihe0 179.92 -180.00 12.63 88.52 -46.53 -71.95 -179.95 
DOCKED: USER  keepresnum = 1 
DOCKED: USER  
DOCKED: REMARK  Name = 
DOCKED: REMARK  7 active torsions:
DOCKED: REMARK  status: ('A' for Active; 'I' for Inactive)
DOCKED: REMARK    1  A    between atoms: C_3  and  C_4
DOCKED: REMARK    2  A    between atoms: C_4  and  C_5
DOCKED: REMARK    3  A    between atoms: C_5  and  C_6
DOCKED: REMARK    4  A    between atoms: C_6  and  C_7
DOCKED: REMARK    5  A    between atoms: C_7  and  C_8
DOCKED: REMARK    6  A    between atoms: C_8  and  C_9
DOCKED: REMARK    7  A    between atoms: C_9  and  C_10
DOCKED: REMARK                            x       y       z     vdW  Elec       q    Type
DOCKED: REMARK                         _______ _______ _______ _____ _____    ______ ____
DOCKED: USER                              x       y       z     vdW  Elec       q    Type
DOCKED: USER                           _______ _______ _______ _____ _____    ______ ____
DOCKED: ROOT
DOCKED: ATOM      1  C   UNL     1      24.819 -16.806  -0.834 -0.61 -0.00    +0.000 C 
DOCKED: ENDROOT
DOCKED: BRANCH   1   2
DOCKED: ATOM      2  C   UNL     1      25.189 -16.618  -2.314 -0.58 -0.00    +0.000 C 
DOCKED: BRANCH   2   3
DOCKED: ATOM      3  C   UNL     1      26.105 -15.405  -2.500 -0.47 -0.00    +0.000 C 
DOCKED: BRANCH   3   6
DOCKED: ATOM      4  O   UNL     1      27.384 -15.144  -6.049 -0.97 +0.00    +0.000 OA
DOCKED: ATOM      5  N   UNL     1      27.289 -15.493  -4.745 -0.44 -0.00    +0.000 N 
DOCKED: ATOM      6  C   UNL     1      26.195 -15.033  -3.950 -0.55 -0.00    +0.000 C 
DOCKED: ATOM      7  O   UNL     1      25.320 -14.280  -4.457 -0.87 -0.00    +0.000 OA
DOCKED: ATOM      8  H   UNL     1      27.980 -16.066  -4.341 -0.02 -0.00    +0.000 HD
DOCKED: ENDBRANCH   3   6
DOCKED: ENDBRANCH   2   3
DOCKED: ENDBRANCH   1   2
DOCKED: BRANCH   1   9
DOCKED: ATOM      9  C   UNL     1      23.355 -17.237  -0.632 -0.70 -0.00    +0.000 C 
DOCKED: BRANCH   9  10
DOCKED: ATOM     10  C   UNL     1      23.167 -18.604   0.050 -0.70 -0.00    +0.000 C 
DOCKED: BRANCH  10  11
DOCKED: ATOM     11  C   UNL     1      22.139 -19.493  -0.663 -0.63 -0.00    +0.000 C 
DOCKED: BRANCH  11  12
DOCKED: ATOM     12  C   UNL     1      20.752 -19.153  -0.211 -0.82 -0.00    +0.000 C 
DOCKED: ATOM     13  N   UNL     1      20.138 -19.890   0.848 -0.70 -0.00    +0.000 N 
DOCKED: ATOM     14  O   UNL     1      18.878 -19.598   1.249 -0.74 -0.00    +0.000 OA
DOCKED: ATOM     15  O   UNL     1      20.110 -18.239  -0.796 -2.04 -0.00    +0.000 OA
DOCKED: ATOM     16  H   UNL     1      20.634 -20.616   1.291 -0.52 -0.00    +0.000 HD
DOCKED: ENDBRANCH  11  12
DOCKED: ENDBRANCH  10  11
DOCKED: ENDBRANCH   9  10
DOCKED: ENDBRANCH   1   9
DOCKED: TORSDOF 7
DOCKED: TER
DOCKED: ENDMDL
________________________________________________________________________________


	BEGINNING GENETIC ALGORITHM DOCKING 40 of 100
Run: 40 Seed: 517323685 1392594868 [ Run 40 of 100 GA/GALS ]
Beginning LAMARCKIAN GENETIC ALGORITHM (LGA), with a maximum of 2500000 energy evaluations.

Final-Value: -11.704


	FINAL GENETIC ALGORITHM DOCKED STATE
	_______________________________________________


Detailed state:  trans 27.464 -16.647 0.578 quatxyzw 0.593184 0.358105 -0.175833 -0.699269 center 0.010 0.634 0.018 ntor 7 -166.6610 -180.0000 -70.4336 47.6497 29.5421 -19.3391 -148.9673
State:	 27.464 -16.647   0.578   0.830  0.501 -0.246 -91.263   -166.66 -180.00  -70.43   47.65   29.54  -19.34 -148.97

DOCKED: MODEL       40
DOCKED: USER    Run = 40
DOCKED: USER    DPF = ligand_dock.biased.dpf
DOCKED: USER  
DOCKED: USER    Estimated Free Energy of Binding    =   -9.01 kcal/mol  [=(1)+(2)+(3)-(4)]
DOCKED: USER    Estimated Inhibition Constant, Ki   =  248.59 nM (nanomolar)  [Temperature = 298.15 K]
DOCKED: USER    
DOCKED: USER    (1) Final Intermolecular Energy     =  -11.10 kcal/mol
DOCKED: USER        vdW + Hbond + desolv Energy     =  -11.10 kcal/mol
DOCKED: USER        Electrostatic Energy            =   +0.00 kcal/mol
DOCKED: USER    (2) Final Total Internal Energy     =   -0.61 kcal/mol
DOCKED: USER    (3) Torsional Free Energy           =   +2.09 kcal/mol
DOCKED: USER    (4) Unbound System's Energy  [=(2)] =   -0.61 kcal/mol
DOCKED: USER    
DOCKED: USER    
DOCKED: USER    NEWDPF move ligand.pdbqt
DOCKED: USER    NEWDPF about 0.010000 0.634000 0.018000
DOCKED: USER    NEWDPF tran0 27.463957 -16.647151 0.577818
DOCKED: USER    NEWDPF quaternion0 0.593184 0.358105 -0.175833 -0.699269
DOCKED: USER    NEWDPF axisangle0 0.829791 0.500945 -0.245969 -91.263231
DOCKED: USER    NEWDPF quat0 0.829791 0.500945 -0.245969 -91.263231
DOCKED: USER    NEWDPF dihe0 -166.66 -180.00 -70.43 47.65 29.54 -19.34 -148.97 
DOCKED: USER  keepresnum = 1 
DOCKED: USER  
DOCKED: REMARK  Name = 
DOCKED: REMARK  7 active torsions:
DOCKED: REMARK  status: ('A' for Active; 'I' for Inactive)
DOCKED: REMARK    1  A    between atoms: C_3  and  C_4
DOCKED: REMARK    2  A    between atoms: C_4  and  C_5
DOCKED: REMARK    3  A    between atoms: C_5  and  C_6
DOCKED: REMARK    4  A    between atoms: C_6  and  C_7
DOCKED: REMARK    5  A    between atoms: C_7  and  C_8
DOCKED: REMARK    6  A    between atoms: C_8  and  C_9
DOCKED: REMARK    7  A    between atoms: C_9  and  C_10
DOCKED: REMARK                            x       y       z     vdW  Elec       q    Type
DOCKED: REMARK                         _______ _______ _______ _____ _____    ______ ____
DOCKED: USER                              x       y       z     vdW  Elec       q    Type
DOCKED: USER                           _______ _______ _______ _____ _____    ______ ____
DOCKED: ROOT
DOCKED: ATOM      1  C   UNL     1      26.511 -17.479  -1.233 -0.51 -0.00    +0.000 C 
DOCKED: ENDROOT
DOCKED: BRANCH   1   2
DOCKED: ATOM      2  C   UNL     1      27.064 -16.045  -1.201 -0.40 -0.00    +0.000 C 
DOCKED: BRANCH   2   3
DOCKED: ATOM      3  C   UNL     1      27.435 -15.570  -2.608 -0.32 -0.00    +0.000 C 
DOCKED: BRANCH   3   6
DOCKED: ATOM      4  O   UNL     1      24.382 -13.894  -4.080 -1.16 -0.00    +0.000 OA
DOCKED: ATOM      5  N   UNL     1      25.231 -14.855  -3.647 -0.53 -0.00    +0.000 N 
DOCKED: ATOM      6  C   UNL     1      26.489 -14.502  -3.069 -0.39 -0.00    +0.000 C 
DOCKED: ATOM      7  O   UNL     1      26.823 -13.290  -2.979 -0.24 -0.00    +0.000 OA
DOCKED: ATOM      8  H   UNL     1      24.981 -15.803  -3.732 -0.04 -0.00    +0.000 HD
DOCKED: ENDBRANCH   3   6
DOCKED: ENDBRANCH   2   3
DOCKED: ENDBRANCH   1   2
DOCKED: BRANCH   1   9
DOCKED: ATOM      9  C   UNL     1      25.369 -17.704  -0.226 -0.63 -0.00    +0.000 C 
DOCKED: BRANCH   9  10
DOCKED: ATOM     10  C   UNL     1      24.324 -18.752  -0.650 -0.68 -0.00    +0.000 C 
DOCKED: BRANCH  10  11
DOCKED: ATOM     11  C   UNL     1      23.284 -18.195  -1.632 -0.61 -0.00    +0.000 C 
DOCKED: BRANCH  11  12
DOCKED: ATOM     12  C   UNL     1      21.898 -18.412  -1.103 -0.74 -0.00    +0.000 C 
DOCKED: ATOM     13  N   UNL     1      21.148 -19.562  -1.500 -0.73 -0.00    +0.000 N 
DOCKED: ATOM     14  O   UNL     1      19.889 -19.753  -1.038 -1.98 -0.00    +0.000 OA
DOCKED: ATOM     15  O   UNL     1      21.380 -17.555  -0.338 -1.60 -0.00    +0.000 OA
DOCKED: ATOM     16  H   UNL     1      21.548 -20.220  -2.113 -0.53 -0.00    +0.000 HD
DOCKED: ENDBRANCH  11  12
DOCKED: ENDBRANCH  10  11
DOCKED: ENDBRANCH   9  10
DOCKED: ENDBRANCH   1   9
DOCKED: TORSDOF 7
DOCKED: TER
DOCKED: ENDMDL
________________________________________________________________________________


	BEGINNING GENETIC ALGORITHM DOCKING 41 of 100
Run: 41 Seed: 1348616172 797183184 [ Run 41 of 100 GA/GALS ]
Beginning LAMARCKIAN GENETIC ALGORITHM (LGA), with a maximum of 2500000 energy evaluations.

Final-Value: -12.665


	FINAL GENETIC ALGORITHM DOCKED STATE
	_______________________________________________


Detailed state:  trans 25.286 -18.657 -0.245 quatxyzw 0.080307 0.354409 0.931591 -0.009087 center 0.010 0.634 0.018 ntor 7 2.6059 -40.9589 -60.6783 -60.2205 -53.7897 10.8981 -171.3884
State:	 25.286 -18.657  -0.245   0.080  0.354  0.932 -178.959      2.61  -40.96  -60.68  -60.22  -53.79   10.90 -171.39

DOCKED: MODEL       41
DOCKED: USER    Run = 41
DOCKED: USER    DPF = ligand_dock.biased.dpf
DOCKED: USER  
DOCKED: USER    Estimated Free Energy of Binding    =  -10.04 kcal/mol  [=(1)+(2)+(3)-(4)]
DOCKED: USER    Estimated Inhibition Constant, Ki   =   43.52 nM (nanomolar)  [Temperature = 298.15 K]
DOCKED: USER    
DOCKED: USER    (1) Final Intermolecular Energy     =  -12.13 kcal/mol
DOCKED: USER        vdW + Hbond + desolv Energy     =  -12.13 kcal/mol
DOCKED: USER        Electrostatic Energy            =   +0.00 kcal/mol
DOCKED: USER    (2) Final Total Internal Energy     =   -0.53 kcal/mol
DOCKED: USER    (3) Torsional Free Energy           =   +2.09 kcal/mol
DOCKED: USER    (4) Unbound System's Energy  [=(2)] =   -0.53 kcal/mol
DOCKED: USER    
DOCKED: USER    
DOCKED: USER    NEWDPF move ligand.pdbqt
DOCKED: USER    NEWDPF about 0.010000 0.634000 0.018000
DOCKED: USER    NEWDPF tran0 25.285905 -18.657312 -0.244595
DOCKED: USER    NEWDPF quaternion0 0.080307 0.354409 0.931591 -0.009087
DOCKED: USER    NEWDPF axisangle0 0.080311 0.354424 0.931630 -178.958741
DOCKED: USER    NEWDPF quat0 0.080311 0.354424 0.931630 -178.958741
DOCKED: USER    NEWDPF dihe0 2.61 -40.96 -60.68 -60.22 -53.79 10.90 -171.39 
DOCKED: USER  keepresnum = 1 
DOCKED: USER  
DOCKED: REMARK  Name = 
DOCKED: REMARK  7 active torsions:
DOCKED: REMARK  status: ('A' for Active; 'I' for Inactive)
DOCKED: REMARK    1  A    between atoms: C_3  and  C_4
DOCKED: REMARK    2  A    between atoms: C_4  and  C_5
DOCKED: REMARK    3  A    between atoms: C_5  and  C_6
DOCKED: REMARK    4  A    between atoms: C_6  and  C_7
DOCKED: REMARK    5  A    between atoms: C_7  and  C_8
DOCKED: REMARK    6  A    between atoms: C_8  and  C_9
DOCKED: REMARK    7  A    between atoms: C_9  and  C_10
DOCKED: REMARK                            x       y       z     vdW  Elec       q    Type
DOCKED: REMARK                         _______ _______ _______ _____ _____    ______ ____
DOCKED: USER                              x       y       z     vdW  Elec       q    Type
DOCKED: USER                           _______ _______ _______ _____ _____    ______ ____
DOCKED: ROOT
DOCKED: ATOM      1  C   UNL     1      24.791 -16.751  -1.243 -0.64 -0.00    +0.000 C 
DOCKED: ENDROOT
DOCKED: BRANCH   1   2
DOCKED: ATOM      2  C   UNL     1      24.029 -18.047  -1.562 -0.72 -0.00    +0.000 C 
DOCKED: BRANCH   2   3
DOCKED: ATOM      3  C   UNL     1      23.126 -18.453  -0.393 -0.82 -0.00    +0.000 C 
DOCKED: BRANCH   3   6
DOCKED: ATOM      4  O   UNL     1      19.879 -19.743  -1.841 -2.39 -0.00    +0.000 OA
DOCKED: ATOM      5  N   UNL     1      21.168 -19.695  -1.427 -0.70 -0.00    +0.000 N 
DOCKED: ATOM      6  C   UNL     1      21.694 -18.508  -0.832 -0.83 -0.00    +0.000 C 
DOCKED: ATOM      7  O   UNL     1      20.963 -17.488  -0.709 -2.07 +0.00    +0.000 OA
DOCKED: ATOM      8  H   UNL     1      21.746 -20.484  -1.537 -0.31 -0.00    +0.000 HD
DOCKED: ENDBRANCH   3   6
DOCKED: ENDBRANCH   2   3
DOCKED: ENDBRANCH   1   2
DOCKED: BRANCH   1   9
DOCKED: ATOM      9  C   UNL     1      26.288 -16.833  -1.593 -0.52 -0.00    +0.000 C 
DOCKED: BRANCH   9  10
DOCKED: ATOM     10  C   UNL     1      26.810 -15.698  -2.492 -0.40 -0.00    +0.000 C 
DOCKED: BRANCH  10  11
DOCKED: ATOM     11  C   UNL     1      25.952 -15.485  -3.747 -0.58 -0.00    +0.000 C 
DOCKED: BRANCH  11  12
DOCKED: ATOM     12  C   UNL     1      25.541 -14.048  -3.861 -0.51 -0.00    +0.000 C 
DOCKED: ATOM     13  N   UNL     1      26.491 -13.007  -3.631 -0.27 -0.00    +0.000 N 
DOCKED: ATOM     14  O   UNL     1      26.120 -11.707  -3.717 -0.24 -0.00    +0.000 OA
DOCKED: ATOM     15  O   UNL     1      24.342 -13.760  -4.123 -1.14 -0.00    +0.000 OA
DOCKED: ATOM     16  H   UNL     1      27.423 -13.234  -3.408 +0.00 -0.00    +0.000 HD
DOCKED: ENDBRANCH  11  12
DOCKED: ENDBRANCH  10  11
DOCKED: ENDBRANCH   9  10
DOCKED: ENDBRANCH   1   9
DOCKED: TORSDOF 7
DOCKED: TER
DOCKED: ENDMDL
________________________________________________________________________________


	BEGINNING GENETIC ALGORITHM DOCKING 42 of 100
Run: 42 Seed: 2039029323 1072500355 [ Run 42 of 100 GA/GALS ]
Beginning LAMARCKIAN GENETIC ALGORITHM (LGA), with a maximum of 2500000 energy evaluations.

Final-Value: -12.677


	FINAL GENETIC ALGORITHM DOCKED STATE
	_______________________________________________


Detailed state:  trans 24.013 -15.983 -2.412 quatxyzw -0.484613 0.744725 -0.359470 -0.285160 center 0.010 0.634 0.018 ntor 7 47.0305 -179.7315 9.3144 120.9628 10.1118 -180.0000 -102.0809
State:	 24.013 -15.983  -2.412  -0.506  0.777 -0.375 -146.863     47.03 -179.73    9.31  120.96   10.11 -180.00 -102.08

DOCKED: MODEL       42
DOCKED: USER    Run = 42
DOCKED: USER    DPF = ligand_dock.biased.dpf
DOCKED: USER  
DOCKED: USER    Estimated Free Energy of Binding    =  -10.03 kcal/mol  [=(1)+(2)+(3)-(4)]
DOCKED: USER    Estimated Inhibition Constant, Ki   =   44.22 nM (nanomolar)  [Temperature = 298.15 K]
DOCKED: USER    
DOCKED: USER    (1) Final Intermolecular Energy     =  -12.12 kcal/mol
DOCKED: USER        vdW + Hbond + desolv Energy     =  -12.12 kcal/mol
DOCKED: USER        Electrostatic Energy            =   +0.00 kcal/mol
DOCKED: USER    (2) Final Total Internal Energy     =   -0.56 kcal/mol
DOCKED: USER    (3) Torsional Free Energy           =   +2.09 kcal/mol
DOCKED: USER    (4) Unbound System's Energy  [=(2)] =   -0.56 kcal/mol
DOCKED: USER    
DOCKED: USER    
DOCKED: USER    NEWDPF move ligand.pdbqt
DOCKED: USER    NEWDPF about 0.010000 0.634000 0.018000
DOCKED: USER    NEWDPF tran0 24.012926 -15.982856 -2.411869
DOCKED: USER    NEWDPF quaternion0 -0.484613 0.744725 -0.359470 -0.285160
DOCKED: USER    NEWDPF axisangle0 -0.505605 0.776986 -0.375042 -146.863135
DOCKED: USER    NEWDPF quat0 -0.505605 0.776986 -0.375042 -146.863135
DOCKED: USER    NEWDPF dihe0 47.03 -179.73 9.31 120.96 10.11 -180.00 -102.08 
DOCKED: USER  keepresnum = 1 
DOCKED: USER  
DOCKED: REMARK  Name = 
DOCKED: REMARK  7 active torsions:
DOCKED: REMARK  status: ('A' for Active; 'I' for Inactive)
DOCKED: REMARK    1  A    between atoms: C_3  and  C_4
DOCKED: REMARK    2  A    between atoms: C_4  and  C_5
DOCKED: REMARK    3  A    between atoms: C_5  and  C_6
DOCKED: REMARK    4  A    between atoms: C_6  and  C_7
DOCKED: REMARK    5  A    between atoms: C_7  and  C_8
DOCKED: REMARK    6  A    between atoms: C_8  and  C_9
DOCKED: REMARK    7  A    between atoms: C_9  and  C_10
DOCKED: REMARK                            x       y       z     vdW  Elec       q    Type
DOCKED: REMARK                         _______ _______ _______ _____ _____    ______ ____
DOCKED: USER                              x       y       z     vdW  Elec       q    Type
DOCKED: USER                           _______ _______ _______ _____ _____    ______ ____
DOCKED: ROOT
DOCKED: ATOM      1  C   UNL     1      25.267 -17.121  -0.995 -0.64 -0.00    +0.000 C 
DOCKED: ENDROOT
DOCKED: BRANCH   1   2
DOCKED: ATOM      2  C   UNL     1      23.732 -17.177  -0.934 -0.70 -0.00    +0.000 C 
DOCKED: BRANCH   2   3
DOCKED: ATOM      3  C   UNL     1      23.243 -18.617  -0.756 -0.83 -0.00    +0.000 C 
DOCKED: BRANCH   3   6
DOCKED: ATOM      4  O   UNL     1      19.852 -19.733  -2.007 -2.34 -0.00    +0.000 OA
DOCKED: ATOM      5  N   UNL     1      21.192 -19.673  -1.818 -0.58 -0.00    +0.000 N 
DOCKED: ATOM      6  C   UNL     1      21.757 -18.693  -0.946 -0.83 -0.00    +0.000 C 
DOCKED: ATOM      7  O   UNL     1      21.009 -17.862  -0.363 -1.96 +0.00    +0.000 OA
DOCKED: ATOM      8  H   UNL     1      21.780 -20.308  -2.286 -0.56 -0.00    +0.000 HD
DOCKED: ENDBRANCH   3   6
DOCKED: ENDBRANCH   2   3
DOCKED: ENDBRANCH   1   2
DOCKED: BRANCH   1   9
DOCKED: ATOM      9  C   UNL     1      25.827 -15.710  -0.743 -0.43 -0.00    +0.000 C 
DOCKED: BRANCH   9  10
DOCKED: ATOM     10  C   UNL     1      27.291 -15.504  -1.174 -0.33 -0.00    +0.000 C 
DOCKED: BRANCH  10  11
DOCKED: ATOM     11  C   UNL     1      27.450 -14.431  -2.259 -0.24 -0.00    +0.000 C 
DOCKED: BRANCH  11  12
DOCKED: ATOM     12  C   UNL     1      26.519 -14.700  -3.402 -0.43 -0.00    +0.000 C 
DOCKED: ATOM     13  N   UNL     1      26.972 -15.433  -4.542 -0.46 -0.00    +0.000 N 
DOCKED: ATOM     14  O   UNL     1      26.140 -15.664  -5.585 -1.16 +0.00    +0.000 OA
DOCKED: ATOM     15  O   UNL     1      25.345 -14.243  -3.373 -0.61 -0.00    +0.000 OA
DOCKED: ATOM     16  H   UNL     1      27.896 -15.772  -4.571 -0.02 -0.00    +0.000 HD
DOCKED: ENDBRANCH  11  12
DOCKED: ENDBRANCH  10  11
DOCKED: ENDBRANCH   9  10
DOCKED: ENDBRANCH   1   9
DOCKED: TORSDOF 7
DOCKED: TER
DOCKED: ENDMDL
________________________________________________________________________________


	BEGINNING GENETIC ALGORITHM DOCKING 43 of 100
Run: 43 Seed: 1137543716 1533352465 [ Run 43 of 100 GA/GALS ]
Beginning LAMARCKIAN GENETIC ALGORITHM (LGA), with a maximum of 2500000 energy evaluations.

Final-Value: -12.385


	FINAL GENETIC ALGORITHM DOCKED STATE
	_______________________________________________


Detailed state:  trans 26.940 -15.876 0.091 quatxyzw -0.254666 0.186065 0.255525 0.913910 center 0.010 0.634 0.018 ntor 7 31.4641 102.3954 75.2220 17.3676 -178.5514 -26.1518 -111.9244
State:	 26.940 -15.876   0.091  -0.627  0.458  0.630 47.897     31.46  102.40   75.22   17.37 -178.55  -26.15 -111.92

DOCKED: MODEL       43
DOCKED: USER    Run = 43
DOCKED: USER    DPF = ligand_dock.biased.dpf
DOCKED: USER  
DOCKED: USER    Estimated Free Energy of Binding    =   -9.74 kcal/mol  [=(1)+(2)+(3)-(4)]
DOCKED: USER    Estimated Inhibition Constant, Ki   =   72.31 nM (nanomolar)  [Temperature = 298.15 K]
DOCKED: USER    
DOCKED: USER    (1) Final Intermolecular Energy     =  -11.83 kcal/mol
DOCKED: USER        vdW + Hbond + desolv Energy     =  -11.83 kcal/mol
DOCKED: USER        Electrostatic Energy            =   +0.00 kcal/mol
DOCKED: USER    (2) Final Total Internal Energy     =   -0.56 kcal/mol
DOCKED: USER    (3) Torsional Free Energy           =   +2.09 kcal/mol
DOCKED: USER    (4) Unbound System's Energy  [=(2)] =   -0.56 kcal/mol
DOCKED: USER    
DOCKED: USER    
DOCKED: USER    NEWDPF move ligand.pdbqt
DOCKED: USER    NEWDPF about 0.010000 0.634000 0.018000
DOCKED: USER    NEWDPF tran0 26.940162 -15.875514 0.091120
DOCKED: USER    NEWDPF quaternion0 -0.254666 0.186065 0.255525 0.913910
DOCKED: USER    NEWDPF axisangle0 -0.627385 0.458383 0.629502 47.897169
DOCKED: USER    NEWDPF quat0 -0.627385 0.458383 0.629502 47.897169
DOCKED: USER    NEWDPF dihe0 31.46 102.40 75.22 17.37 -178.55 -26.15 -111.92 
DOCKED: USER  keepresnum = 1 
DOCKED: USER  
DOCKED: REMARK  Name = 
DOCKED: REMARK  7 active torsions:
DOCKED: REMARK  status: ('A' for Active; 'I' for Inactive)
DOCKED: REMARK    1  A    between atoms: C_3  and  C_4
DOCKED: REMARK    2  A    between atoms: C_4  and  C_5
DOCKED: REMARK    3  A    between atoms: C_5  and  C_6
DOCKED: REMARK    4  A    between atoms: C_6  and  C_7
DOCKED: REMARK    5  A    between atoms: C_7  and  C_8
DOCKED: REMARK    6  A    between atoms: C_8  and  C_9
DOCKED: REMARK    7  A    between atoms: C_9  and  C_10
DOCKED: REMARK                            x       y       z     vdW  Elec       q    Type
DOCKED: REMARK                         _______ _______ _______ _____ _____    ______ ____
DOCKED: USER                              x       y       z     vdW  Elec       q    Type
DOCKED: USER                           _______ _______ _______ _____ _____    ______ ____
DOCKED: ROOT
DOCKED: ATOM      1  C   UNL     1      26.335 -17.872  -0.633 -0.61 -0.00    +0.000 C 
DOCKED: ENDROOT
DOCKED: BRANCH   1   2
DOCKED: ATOM      2  C   UNL     1      27.663 -17.229  -1.063 -0.42 -0.00    +0.000 C 
DOCKED: BRANCH   2   3
DOCKED: ATOM      3  C   UNL     1      27.433 -15.830  -1.640 -0.33 -0.00    +0.000 C 
DOCKED: BRANCH   3   6
DOCKED: ATOM      4  O   UNL     1      26.491 -15.610  -5.296 -1.19 +0.00    +0.000 OA
DOCKED: ATOM      5  N   UNL     1      26.401 -15.571  -3.946 -0.50 -0.00    +0.000 N 
DOCKED: ATOM      6  C   UNL     1      27.542 -15.855  -3.136 -0.31 -0.00    +0.000 C 
DOCKED: ATOM      7  O   UNL     1      28.637 -16.167  -3.677 -0.31 -0.00    +0.000 OA
DOCKED: ATOM      8  H   UNL     1      25.543 -15.345  -3.520 -0.03 -0.00    +0.000 HD
DOCKED: ENDBRANCH   3   6
DOCKED: ENDBRANCH   2   3
DOCKED: ENDBRANCH   1   2
DOCKED: BRANCH   1   9
DOCKED: ATOM      9  C   UNL     1      25.105 -17.064  -1.079 -0.65 -0.00    +0.000 C 
DOCKED: BRANCH   9  10
DOCKED: ATOM     10  C   UNL     1      23.757 -17.577  -0.538 -0.73 -0.00    +0.000 C 
DOCKED: BRANCH  10  11
DOCKED: ATOM     11  C   UNL     1      23.125 -18.653  -1.431 -0.77 -0.00    +0.000 C 
DOCKED: BRANCH  11  12
DOCKED: ATOM     12  C   UNL     1      21.639 -18.682  -1.241 -0.65 -0.00    +0.000 C 
DOCKED: ATOM     13  N   UNL     1      20.856 -19.714  -1.845 -0.72 -0.00    +0.000 N 
DOCKED: ATOM     14  O   UNL     1      19.511 -19.734  -1.690 -2.12 -0.00    +0.000 OA
DOCKED: ATOM     15  O   UNL     1      21.075 -17.770  -0.579 -1.96 -0.00    +0.000 OA
DOCKED: ATOM     16  H   UNL     1      21.296 -20.414  -2.378 -0.53 -0.00    +0.000 HD
DOCKED: ENDBRANCH  11  12
DOCKED: ENDBRANCH  10  11
DOCKED: ENDBRANCH   9  10
DOCKED: ENDBRANCH   1   9
DOCKED: TORSDOF 7
DOCKED: TER
DOCKED: ENDMDL
________________________________________________________________________________


	BEGINNING GENETIC ALGORITHM DOCKING 44 of 100
Run: 44 Seed: 845971730 2035569086 [ Run 44 of 100 GA/GALS ]
Beginning LAMARCKIAN GENETIC ALGORITHM (LGA), with a maximum of 2500000 energy evaluations.

Final-Value: -13.177


	FINAL GENETIC ALGORITHM DOCKED STATE
	_______________________________________________


Detailed state:  trans 23.639 -18.291 -2.230 quatxyzw 0.755379 -0.461692 0.445285 0.134032 center 0.010 0.634 0.018 ntor 7 114.5375 -175.1069 31.0768 -180.0000 -109.6496 -158.7866 -174.3040
State:	 23.639 -18.291  -2.230   0.762 -0.466  0.449 164.595    114.54 -175.11   31.08 -180.00 -109.65 -158.79 -174.30

DOCKED: MODEL       44
DOCKED: USER    Run = 44
DOCKED: USER    DPF = ligand_dock.biased.dpf
DOCKED: USER  
DOCKED: USER    Estimated Free Energy of Binding    =  -10.49 kcal/mol  [=(1)+(2)+(3)-(4)]
DOCKED: USER    Estimated Inhibition Constant, Ki   =   20.44 nM (nanomolar)  [Temperature = 298.15 K]
DOCKED: USER    
DOCKED: USER    (1) Final Intermolecular Energy     =  -12.58 kcal/mol
DOCKED: USER        vdW + Hbond + desolv Energy     =  -12.58 kcal/mol
DOCKED: USER        Electrostatic Energy            =   +0.00 kcal/mol
DOCKED: USER    (2) Final Total Internal Energy     =   -0.60 kcal/mol
DOCKED: USER    (3) Torsional Free Energy           =   +2.09 kcal/mol
DOCKED: USER    (4) Unbound System's Energy  [=(2)] =   -0.60 kcal/mol
DOCKED: USER    
DOCKED: USER    
DOCKED: USER    NEWDPF move ligand.pdbqt
DOCKED: USER    NEWDPF about 0.010000 0.634000 0.018000
DOCKED: USER    NEWDPF tran0 23.639324 -18.291479 -2.229736
DOCKED: USER    NEWDPF quaternion0 0.755379 -0.461692 0.445285 0.134032
DOCKED: USER    NEWDPF axisangle0 0.762257 -0.465896 0.449340 164.594673
DOCKED: USER    NEWDPF quat0 0.762257 -0.465896 0.449340 164.594673
DOCKED: USER    NEWDPF dihe0 114.54 -175.11 31.08 -180.00 -109.65 -158.79 -174.30 
DOCKED: USER  keepresnum = 1 
DOCKED: USER  
DOCKED: REMARK  Name = 
DOCKED: REMARK  7 active torsions:
DOCKED: REMARK  status: ('A' for Active; 'I' for Inactive)
DOCKED: REMARK    1  A    between atoms: C_3  and  C_4
DOCKED: REMARK    2  A    between atoms: C_4  and  C_5
DOCKED: REMARK    3  A    between atoms: C_5  and  C_6
DOCKED: REMARK    4  A    between atoms: C_6  and  C_7
DOCKED: REMARK    5  A    between atoms: C_7  and  C_8
DOCKED: REMARK    6  A    between atoms: C_8  and  C_9
DOCKED: REMARK    7  A    between atoms: C_9  and  C_10
DOCKED: REMARK                            x       y       z     vdW  Elec       q    Type
DOCKED: REMARK                         _______ _______ _______ _____ _____    ______ ____
DOCKED: USER                              x       y       z     vdW  Elec       q    Type
DOCKED: USER                           _______ _______ _______ _____ _____    ______ ____
DOCKED: ROOT
DOCKED: ATOM      1  C   UNL     1      25.298 -17.648  -0.921 -0.67 -0.00    +0.000 C 
DOCKED: ENDROOT
DOCKED: BRANCH   1   2
DOCKED: ATOM      2  C   UNL     1      24.023 -18.287  -0.348 -0.77 -0.00    +0.000 C 
DOCKED: BRANCH   2   3
DOCKED: ATOM      3  C   UNL     1      23.215 -18.980  -1.449 -0.77 -0.00    +0.000 C 
DOCKED: BRANCH   3   6
DOCKED: ATOM      4  O   UNL     1      19.507 -19.719  -1.543 -2.09 -0.00    +0.000 OA
DOCKED: ATOM      5  N   UNL     1      20.835 -19.791  -1.801 -0.67 -0.00    +0.000 N 
DOCKED: ATOM      6  C   UNL     1      21.748 -18.909  -1.146 -0.80 -0.00    +0.000 C 
DOCKED: ATOM      7  O   UNL     1      21.318 -18.042  -0.339 -1.70 -0.00    +0.000 OA
DOCKED: ATOM      8  H   UNL     1      21.172 -20.455  -2.444 -0.52 -0.00    +0.000 HD
DOCKED: ENDBRANCH   3   6
DOCKED: ENDBRANCH   2   3
DOCKED: ENDBRANCH   1   2
DOCKED: BRANCH   1   9
DOCKED: ATOM      9  C   UNL     1      25.028 -16.320  -1.651 -0.58 -0.00    +0.000 C 
DOCKED: BRANCH   9  10
DOCKED: ATOM     10  C   UNL     1      25.835 -15.116  -1.132 -0.40 -0.00    +0.000 C 
DOCKED: BRANCH  10  11
DOCKED: ATOM     11  C   UNL     1      26.342 -14.205  -2.258 -0.32 -0.00    +0.000 C 
DOCKED: BRANCH  11  12
DOCKED: ATOM     12  C   UNL     1      25.762 -14.629  -3.574 -0.53 -0.00    +0.000 C 
DOCKED: ATOM     13  N   UNL     1      26.440 -15.591  -4.384 -0.52 -0.00    +0.000 N 
DOCKED: ATOM     14  O   UNL     1      25.928 -15.964  -5.581 -1.13 +0.00    +0.000 OA
DOCKED: ATOM     15  O   UNL     1      24.692 -14.102  -3.984 -1.09 -0.00    +0.000 OA
DOCKED: ATOM     16  H   UNL     1      27.285 -15.986  -4.070 -0.02 -0.00    +0.000 HD
DOCKED: ENDBRANCH  11  12
DOCKED: ENDBRANCH  10  11
DOCKED: ENDBRANCH   9  10
DOCKED: ENDBRANCH   1   9
DOCKED: TORSDOF 7
DOCKED: TER
DOCKED: ENDMDL
________________________________________________________________________________


	BEGINNING GENETIC ALGORITHM DOCKING 45 of 100
Run: 45 Seed: 906203907 931711726 [ Run 45 of 100 GA/GALS ]
Beginning LAMARCKIAN GENETIC ALGORITHM (LGA), with a maximum of 2500000 energy evaluations.

Final-Value: -12.358


	FINAL GENETIC ALGORITHM DOCKED STATE
	_______________________________________________


Detailed state:  trans 22.784 -19.273 0.022 quatxyzw -0.105153 -0.184541 -0.961300 0.175473 center 0.010 0.634 0.018 ntor 7 143.0230 -163.7053 -20.5130 10.6028 -100.7647 140.9483 137.2047
State:	 22.784 -19.273   0.022  -0.107 -0.187 -0.976 159.788    143.02 -163.71  -20.51   10.60 -100.76  140.95  137.20

DOCKED: MODEL       45
DOCKED: USER    Run = 45
DOCKED: USER    DPF = ligand_dock.biased.dpf
DOCKED: USER  
DOCKED: USER    Estimated Free Energy of Binding    =   -9.83 kcal/mol  [=(1)+(2)+(3)-(4)]
DOCKED: USER    Estimated Inhibition Constant, Ki   =   62.65 nM (nanomolar)  [Temperature = 298.15 K]
DOCKED: USER    
DOCKED: USER    (1) Final Intermolecular Energy     =  -11.91 kcal/mol
DOCKED: USER        vdW + Hbond + desolv Energy     =  -11.91 kcal/mol
DOCKED: USER        Electrostatic Energy            =   +0.00 kcal/mol
DOCKED: USER    (2) Final Total Internal Energy     =   -0.44 kcal/mol
DOCKED: USER    (3) Torsional Free Energy           =   +2.09 kcal/mol
DOCKED: USER    (4) Unbound System's Energy  [=(2)] =   -0.44 kcal/mol
DOCKED: USER    
DOCKED: USER    
DOCKED: USER    NEWDPF move ligand.pdbqt
DOCKED: USER    NEWDPF about 0.010000 0.634000 0.018000
DOCKED: USER    NEWDPF tran0 22.783623 -19.272844 0.022207
DOCKED: USER    NEWDPF quaternion0 -0.105153 -0.184541 -0.961300 0.175473
DOCKED: USER    NEWDPF axisangle0 -0.106810 -0.187449 -0.976450 159.787633
DOCKED: USER    NEWDPF quat0 -0.106810 -0.187449 -0.976450 159.787633
DOCKED: USER    NEWDPF dihe0 143.02 -163.71 -20.51 10.60 -100.76 140.95 137.20 
DOCKED: USER  keepresnum = 1 
DOCKED: USER  
DOCKED: REMARK  Name = 
DOCKED: REMARK  7 active torsions:
DOCKED: REMARK  status: ('A' for Active; 'I' for Inactive)
DOCKED: REMARK    1  A    between atoms: C_3  and  C_4
DOCKED: REMARK    2  A    between atoms: C_4  and  C_5
DOCKED: REMARK    3  A    between atoms: C_5  and  C_6
DOCKED: REMARK    4  A    between atoms: C_6  and  C_7
DOCKED: REMARK    5  A    between atoms: C_7  and  C_8
DOCKED: REMARK    6  A    between atoms: C_8  and  C_9
DOCKED: REMARK    7  A    between atoms: C_9  and  C_10
DOCKED: REMARK                            x       y       z     vdW  Elec       q    Type
DOCKED: REMARK                         _______ _______ _______ _____ _____    ______ ____
DOCKED: USER                              x       y       z     vdW  Elec       q    Type
DOCKED: USER                           _______ _______ _______ _____ _____    ______ ____
DOCKED: ROOT
DOCKED: ATOM      1  C   UNL     1      23.086 -17.114  -0.333 -0.59 -0.00    +0.000 C 
DOCKED: ENDROOT
DOCKED: BRANCH   1   2
DOCKED: ATOM      2  C   UNL     1      21.986 -17.903  -1.061 -0.64 -0.00    +0.000 C 
DOCKED: BRANCH   2   3
DOCKED: ATOM      3  C   UNL     1      21.579 -19.143  -0.261 -0.80 -0.00    +0.000 C 
DOCKED: BRANCH   3   6
DOCKED: ATOM      4  O   UNL     1      18.028 -20.434  -0.123 -0.87 -0.00    +0.000 OA
DOCKED: ATOM      5  N   UNL     1      19.240 -19.976   0.269 -0.74 -0.00    +0.000 N 
DOCKED: ATOM      6  C   UNL     1      20.231 -19.631  -0.700 -0.87 -0.00    +0.000 C 
DOCKED: ATOM      7  O   UNL     1      19.989 -19.774  -1.928 -2.35 -0.00    +0.000 OA
DOCKED: ATOM      8  H   UNL     1      19.439 -19.880   1.228 -0.04 -0.00    +0.000 HD
DOCKED: ENDBRANCH   3   6
DOCKED: ENDBRANCH   2   3
DOCKED: ENDBRANCH   1   2
DOCKED: BRANCH   1   9
DOCKED: ATOM      9  C   UNL     1      24.503 -17.620  -0.657 -0.72 -0.00    +0.000 C 
DOCKED: BRANCH   9  10
DOCKED: ATOM     10  C   UNL     1      25.039 -17.210  -2.041 -0.60 -0.00    +0.000 C 
DOCKED: BRANCH  10  11
DOCKED: ATOM     11  C   UNL     1      25.568 -15.770  -2.076 -0.53 -0.00    +0.000 C 
DOCKED: BRANCH  11  12
DOCKED: ATOM     12  C   UNL     1      25.661 -15.282  -3.490 -0.57 -0.00    +0.000 C 
DOCKED: ATOM     13  N   UNL     1      26.753 -15.682  -4.320 -0.43 -0.00    +0.000 N 
DOCKED: ATOM     14  O   UNL     1      26.850 -15.230  -5.592 -1.15 +0.00    +0.000 OA
DOCKED: ATOM     15  O   UNL     1      24.793 -14.482  -3.933 -1.01 -0.00    +0.000 OA
DOCKED: ATOM     16  H   UNL     1      27.439 -16.292  -3.965 -0.02 -0.00    +0.000 HD
DOCKED: ENDBRANCH  11  12
DOCKED: ENDBRANCH  10  11
DOCKED: ENDBRANCH   9  10
DOCKED: ENDBRANCH   1   9
DOCKED: TORSDOF 7
DOCKED: TER
DOCKED: ENDMDL
________________________________________________________________________________


	BEGINNING GENETIC ALGORITHM DOCKING 46 of 100
Run: 46 Seed: 284616275 2035031722 [ Run 46 of 100 GA/GALS ]
Beginning LAMARCKIAN GENETIC ALGORITHM (LGA), with a maximum of 2500000 energy evaluations.

Final-Value: -12.204


	FINAL GENETIC ALGORITHM DOCKED STATE
	_______________________________________________


Detailed state:  trans 24.415 -16.402 -2.596 quatxyzw -0.392099 0.735648 -0.299799 -0.463898 center 0.010 0.634 0.018 ntor 7 20.7948 127.9465 -7.6284 -17.8368 78.5219 88.9954 -24.0515
State:	 24.415 -16.402  -2.596  -0.443  0.830 -0.338 -124.722     20.79  127.95   -7.63  -17.84   78.52   89.00  -24.05

DOCKED: MODEL       46
DOCKED: USER    Run = 46
DOCKED: USER    DPF = ligand_dock.biased.dpf
DOCKED: USER  
DOCKED: USER    Estimated Free Energy of Binding    =   -9.67 kcal/mol  [=(1)+(2)+(3)-(4)]
DOCKED: USER    Estimated Inhibition Constant, Ki   =   81.63 nM (nanomolar)  [Temperature = 298.15 K]
DOCKED: USER    
DOCKED: USER    (1) Final Intermolecular Energy     =  -11.76 kcal/mol
DOCKED: USER        vdW + Hbond + desolv Energy     =  -11.76 kcal/mol
DOCKED: USER        Electrostatic Energy            =   +0.00 kcal/mol
DOCKED: USER    (2) Final Total Internal Energy     =   -0.45 kcal/mol
DOCKED: USER    (3) Torsional Free Energy           =   +2.09 kcal/mol
DOCKED: USER    (4) Unbound System's Energy  [=(2)] =   -0.45 kcal/mol
DOCKED: USER    
DOCKED: USER    
DOCKED: USER    NEWDPF move ligand.pdbqt
DOCKED: USER    NEWDPF about 0.010000 0.634000 0.018000
DOCKED: USER    NEWDPF tran0 24.415420 -16.401633 -2.596076
DOCKED: USER    NEWDPF quaternion0 -0.392099 0.735648 -0.299799 -0.463898
DOCKED: USER    NEWDPF axisangle0 -0.442605 0.830406 -0.338416 -124.722136
DOCKED: USER    NEWDPF quat0 -0.442605 0.830406 -0.338416 -124.722136
DOCKED: USER    NEWDPF dihe0 20.79 127.95 -7.63 -17.84 78.52 89.00 -24.05 
DOCKED: USER  keepresnum = 1 
DOCKED: USER  
DOCKED: REMARK  Name = 
DOCKED: REMARK  7 active torsions:
DOCKED: REMARK  status: ('A' for Active; 'I' for Inactive)
DOCKED: REMARK    1  A    between atoms: C_3  and  C_4
DOCKED: REMARK    2  A    between atoms: C_4  and  C_5
DOCKED: REMARK    3  A    between atoms: C_5  and  C_6
DOCKED: REMARK    4  A    between atoms: C_6  and  C_7
DOCKED: REMARK    5  A    between atoms: C_7  and  C_8
DOCKED: REMARK    6  A    between atoms: C_8  and  C_9
DOCKED: REMARK    7  A    between atoms: C_9  and  C_10
DOCKED: REMARK                            x       y       z     vdW  Elec       q    Type
DOCKED: REMARK                         _______ _______ _______ _____ _____    ______ ____
DOCKED: USER                              x       y       z     vdW  Elec       q    Type
DOCKED: USER                           _______ _______ _______ _____ _____    ______ ____
DOCKED: ROOT
DOCKED: ATOM      1  C   UNL     1      25.325 -17.932  -1.290 -0.58 -0.00    +0.000 C 
DOCKED: ENDROOT
DOCKED: BRANCH   1   2
DOCKED: ATOM      2  C   UNL     1      23.840 -17.988  -1.680 -0.67 -0.00    +0.000 C 
DOCKED: BRANCH   2   3
DOCKED: ATOM      3  C   UNL     1      23.033 -18.787  -0.652 -0.82 -0.00    +0.000 C 
DOCKED: BRANCH   3   6
DOCKED: ATOM      4  O   UNL     1      19.565 -19.719  -1.839 -2.16 -0.00    +0.000 OA
DOCKED: ATOM      5  N   UNL     1      20.885 -19.802  -1.550 -0.68 -0.00    +0.000 N 
DOCKED: ATOM      6  C   UNL     1      21.567 -18.698  -0.952 -0.83 -0.00    +0.000 C 
DOCKED: ATOM      7  O   UNL     1      20.944 -17.629  -0.711 -2.12 -0.00    +0.000 OA
DOCKED: ATOM      8  H   UNL     1      21.379 -20.629  -1.753 -0.28 -0.00    +0.000 HD
DOCKED: ENDBRANCH   3   6
DOCKED: ENDBRANCH   2   3
DOCKED: ENDBRANCH   1   2
DOCKED: BRANCH   1   9
DOCKED: ATOM      9  C   UNL     1      25.688 -16.672  -0.485 -0.46 -0.00    +0.000 C 
DOCKED: BRANCH   9  10
DOCKED: ATOM     10  C   UNL     1      26.023 -15.432  -1.333 -0.44 -0.00    +0.000 C 
DOCKED: BRANCH  10  11
DOCKED: ATOM     11  C   UNL     1      25.325 -15.434  -2.700 -0.50 -0.00    +0.000 C 
DOCKED: BRANCH  11  12
DOCKED: ATOM     12  C   UNL     1      25.483 -14.104  -3.370 -0.44 -0.00    +0.000 C 
DOCKED: ATOM     13  N   UNL     1      24.446 -13.592  -4.210 -0.40 -0.00    +0.000 N 
DOCKED: ATOM     14  O   UNL     1      24.593 -12.398  -4.831 -0.50 -0.00    +0.000 OA
DOCKED: ATOM     15  O   UNL     1      26.554 -13.454  -3.225 -0.29 -0.00    +0.000 OA
DOCKED: ATOM     16  H   UNL     1      23.619 -14.110  -4.337 -0.59 -0.00    +0.000 HD
DOCKED: ENDBRANCH  11  12
DOCKED: ENDBRANCH  10  11
DOCKED: ENDBRANCH   9  10
DOCKED: ENDBRANCH   1   9
DOCKED: TORSDOF 7
DOCKED: TER
DOCKED: ENDMDL
________________________________________________________________________________


	BEGINNING GENETIC ALGORITHM DOCKING 47 of 100
Run: 47 Seed: 1686215076 1557443765 [ Run 47 of 100 GA/GALS ]
Beginning LAMARCKIAN GENETIC ALGORITHM (LGA), with a maximum of 2500000 energy evaluations.

Final-Value: -13.341


	FINAL GENETIC ALGORITHM DOCKED STATE
	_______________________________________________


Detailed state:  trans 24.860 -18.072 -2.669 quatxyzw -0.400429 0.472918 -0.772687 -0.137698 center 0.010 0.634 0.018 ntor 7 57.2066 -178.2052 -26.0488 -122.9145 -39.4506 -92.5953 122.3815
State:	 24.860 -18.072  -2.669  -0.404  0.477 -0.780 -164.171     57.21 -178.21  -26.05 -122.91  -39.45  -92.60  122.38

DOCKED: MODEL       47
DOCKED: USER    Run = 47
DOCKED: USER    DPF = ligand_dock.biased.dpf
DOCKED: USER  
DOCKED: USER    Estimated Free Energy of Binding    =  -10.64 kcal/mol  [=(1)+(2)+(3)-(4)]
DOCKED: USER    Estimated Inhibition Constant, Ki   =   15.87 nM (nanomolar)  [Temperature = 298.15 K]
DOCKED: USER    
DOCKED: USER    (1) Final Intermolecular Energy     =  -12.73 kcal/mol
DOCKED: USER        vdW + Hbond + desolv Energy     =  -12.73 kcal/mol
DOCKED: USER        Electrostatic Energy            =   +0.00 kcal/mol
DOCKED: USER    (2) Final Total Internal Energy     =   -0.61 kcal/mol
DOCKED: USER    (3) Torsional Free Energy           =   +2.09 kcal/mol
DOCKED: USER    (4) Unbound System's Energy  [=(2)] =   -0.61 kcal/mol
DOCKED: USER    
DOCKED: USER    
DOCKED: USER    NEWDPF move ligand.pdbqt
DOCKED: USER    NEWDPF about 0.010000 0.634000 0.018000
DOCKED: USER    NEWDPF tran0 24.859638 -18.071940 -2.669352
DOCKED: USER    NEWDPF quaternion0 -0.400429 0.472918 -0.772687 -0.137698
DOCKED: USER    NEWDPF axisangle0 -0.404280 0.477466 -0.780118 -164.170620
DOCKED: USER    NEWDPF quat0 -0.404280 0.477466 -0.780118 -164.170620
DOCKED: USER    NEWDPF dihe0 57.21 -178.21 -26.05 -122.91 -39.45 -92.60 122.38 
DOCKED: USER  keepresnum = 1 
DOCKED: USER  
DOCKED: REMARK  Name = 
DOCKED: REMARK  7 active torsions:
DOCKED: REMARK  status: ('A' for Active; 'I' for Inactive)
DOCKED: REMARK    1  A    between atoms: C_3  and  C_4
DOCKED: REMARK    2  A    between atoms: C_4  and  C_5
DOCKED: REMARK    3  A    between atoms: C_5  and  C_6
DOCKED: REMARK    4  A    between atoms: C_6  and  C_7
DOCKED: REMARK    5  A    between atoms: C_7  and  C_8
DOCKED: REMARK    6  A    between atoms: C_8  and  C_9
DOCKED: REMARK    7  A    between atoms: C_9  and  C_10
DOCKED: REMARK                            x       y       z     vdW  Elec       q    Type
DOCKED: REMARK                         _______ _______ _______ _____ _____    ______ ____
DOCKED: USER                              x       y       z     vdW  Elec       q    Type
DOCKED: USER                           _______ _______ _______ _____ _____    ______ ____
DOCKED: ROOT
DOCKED: ATOM      1  C   UNL     1      25.230 -17.550  -0.556 -0.67 -0.00    +0.000 C 
DOCKED: ENDROOT
DOCKED: BRANCH   1   2
DOCKED: ATOM      2  C   UNL     1      23.813 -17.537  -1.151 -0.74 -0.00    +0.000 C 
DOCKED: BRANCH   2   3
DOCKED: ATOM      3  C   UNL     1      23.182 -18.931  -1.091 -0.81 -0.00    +0.000 C 
DOCKED: BRANCH   3   6
DOCKED: ATOM      4  O   UNL     1      19.544 -19.660  -1.824 -2.07 -0.00    +0.000 OA
DOCKED: ATOM      5  N   UNL     1      20.894 -19.760  -1.818 -0.68 -0.00    +0.000 N 
DOCKED: ATOM      6  C   UNL     1      21.686 -18.829  -1.078 -0.83 -0.00    +0.000 C 
DOCKED: ATOM      7  O   UNL     1      21.129 -17.894  -0.442 -1.91 -0.00    +0.000 OA
DOCKED: ATOM      8  H   UNL     1      21.333 -20.478  -2.328 -0.53 -0.00    +0.000 HD
DOCKED: ENDBRANCH   3   6
DOCKED: ENDBRANCH   2   3
DOCKED: ENDBRANCH   1   2
DOCKED: BRANCH   1   9
DOCKED: ATOM      9  C   UNL     1      26.173 -16.538  -1.230 -0.52 -0.00    +0.000 C 
DOCKED: BRANCH   9  10
DOCKED: ATOM     10  C   UNL     1      25.737 -15.066  -1.117 -0.36 -0.00    +0.000 C 
DOCKED: BRANCH  10  11
DOCKED: ATOM     11  C   UNL     1      26.275 -14.193  -2.258 -0.32 -0.00    +0.000 C 
DOCKED: BRANCH  11  12
DOCKED: ATOM     12  C   UNL     1      25.696 -14.631  -3.569 -0.54 -0.00    +0.000 C 
DOCKED: ATOM     13  N   UNL     1      26.390 -15.578  -4.383 -0.53 -0.00    +0.000 N 
DOCKED: ATOM     14  O   UNL     1      25.878 -15.963  -5.576 -1.13 +0.00    +0.000 OA
DOCKED: ATOM     15  O   UNL     1      24.612 -14.129  -3.972 -1.09 -0.00    +0.000 OA
DOCKED: ATOM     16  H   UNL     1      27.246 -15.954  -4.075 -0.02 -0.00    +0.000 HD
DOCKED: ENDBRANCH  11  12
DOCKED: ENDBRANCH  10  11
DOCKED: ENDBRANCH   9  10
DOCKED: ENDBRANCH   1   9
DOCKED: TORSDOF 7
DOCKED: TER
DOCKED: ENDMDL
________________________________________________________________________________


	BEGINNING GENETIC ALGORITHM DOCKING 48 of 100
Run: 48 Seed: 597406795 1645130660 [ Run 48 of 100 GA/GALS ]
Beginning LAMARCKIAN GENETIC ALGORITHM (LGA), with a maximum of 2500000 energy evaluations.

Final-Value: -12.742


	FINAL GENETIC ALGORITHM DOCKED STATE
	_______________________________________________


Detailed state:  trans 24.910 -18.976 -2.042 quatxyzw 0.355575 -0.155143 0.921453 0.020538 center 0.010 0.634 0.018 ntor 7 13.5752 126.0490 -17.8586 -89.5354 -32.3267 -143.1123 128.7935
State:	 24.910 -18.976  -2.042   0.356 -0.155  0.922 177.646     13.58  126.05  -17.86  -89.54  -32.33 -143.11  128.79

DOCKED: MODEL       48
DOCKED: USER    Run = 48
DOCKED: USER    DPF = ligand_dock.biased.dpf
DOCKED: USER  
DOCKED: USER    Estimated Free Energy of Binding    =  -10.24 kcal/mol  [=(1)+(2)+(3)-(4)]
DOCKED: USER    Estimated Inhibition Constant, Ki   =   31.13 nM (nanomolar)  [Temperature = 298.15 K]
DOCKED: USER    
DOCKED: USER    (1) Final Intermolecular Energy     =  -12.33 kcal/mol
DOCKED: USER        vdW + Hbond + desolv Energy     =  -12.33 kcal/mol
DOCKED: USER        Electrostatic Energy            =   +0.00 kcal/mol
DOCKED: USER    (2) Final Total Internal Energy     =   -0.41 kcal/mol
DOCKED: USER    (3) Torsional Free Energy           =   +2.09 kcal/mol
DOCKED: USER    (4) Unbound System's Energy  [=(2)] =   -0.41 kcal/mol
DOCKED: USER    
DOCKED: USER    
DOCKED: USER    NEWDPF move ligand.pdbqt
DOCKED: USER    NEWDPF about 0.010000 0.634000 0.018000
DOCKED: USER    NEWDPF tran0 24.910093 -18.976334 -2.041505
DOCKED: USER    NEWDPF quaternion0 0.355575 -0.155143 0.921453 0.020538
DOCKED: USER    NEWDPF axisangle0 0.355650 -0.155175 0.921647 177.646306
DOCKED: USER    NEWDPF quat0 0.355650 -0.155175 0.921647 177.646306
DOCKED: USER    NEWDPF dihe0 13.58 126.05 -17.86 -89.54 -32.33 -143.11 128.79 
DOCKED: USER  keepresnum = 1 
DOCKED: USER  
DOCKED: REMARK  Name = 
DOCKED: REMARK  7 active torsions:
DOCKED: REMARK  status: ('A' for Active; 'I' for Inactive)
DOCKED: REMARK    1  A    between atoms: C_3  and  C_4
DOCKED: REMARK    2  A    between atoms: C_4  and  C_5
DOCKED: REMARK    3  A    between atoms: C_5  and  C_6
DOCKED: REMARK    4  A    between atoms: C_6  and  C_7
DOCKED: REMARK    5  A    between atoms: C_7  and  C_8
DOCKED: REMARK    6  A    between atoms: C_8  and  C_9
DOCKED: REMARK    7  A    between atoms: C_9  and  C_10
DOCKED: REMARK                            x       y       z     vdW  Elec       q    Type
DOCKED: REMARK                         _______ _______ _______ _____ _____    ______ ____
DOCKED: USER                              x       y       z     vdW  Elec       q    Type
DOCKED: USER                           _______ _______ _______ _____ _____    ______ ____
DOCKED: ROOT
DOCKED: ATOM      1  C   UNL     1      24.994 -17.164  -0.782 -0.65 -0.00    +0.000 C 
DOCKED: ENDROOT
DOCKED: BRANCH   1   2
DOCKED: ATOM      2  C   UNL     1      23.687 -17.620  -1.449 -0.71 -0.00    +0.000 C 
DOCKED: BRANCH   2   3
DOCKED: ATOM      3  C   UNL     1      22.874 -18.514  -0.507 -0.83 -0.00    +0.000 C 
DOCKED: BRANCH   3   6
DOCKED: ATOM      4  O   UNL     1      19.757 -19.820  -2.202 -2.12 -0.00    +0.000 OA
DOCKED: ATOM      5  N   UNL     1      21.034 -19.733  -1.761 -0.68 -0.00    +0.000 N 
DOCKED: ATOM      6  C   UNL     1      21.454 -18.616  -0.976 -0.82 -0.00    +0.000 C 
DOCKED: ATOM      7  O   UNL     1      20.639 -17.693  -0.708 -2.23 +0.00    +0.000 OA
DOCKED: ATOM      8  H   UNL     1      21.677 -20.444  -1.984 -0.47 -0.00    +0.000 HD
DOCKED: ENDBRANCH   3   6
DOCKED: ENDBRANCH   2   3
DOCKED: ENDBRANCH   1   2
DOCKED: BRANCH   1   9
DOCKED: ATOM      9  C   UNL     1      26.094 -16.811  -1.799 -0.53 -0.00    +0.000 C 
DOCKED: BRANCH   9  10
DOCKED: ATOM     10  C   UNL     1      25.813 -15.564  -2.656 -0.52 -0.00    +0.000 C 
DOCKED: BRANCH  10  11
DOCKED: ATOM     11  C   UNL     1      27.091 -14.904  -3.190 -0.35 -0.00    +0.000 C 
DOCKED: BRANCH  11  12
DOCKED: ATOM     12  C   UNL     1      27.356 -15.340  -4.599 -0.44 -0.00    +0.000 C 
DOCKED: ATOM     13  N   UNL     1      28.697 -15.446  -5.080 -0.33 -0.00    +0.000 N 
DOCKED: ATOM     14  O   UNL     1      28.939 -15.823  -6.358 -0.49 -0.00    +0.000 OA
DOCKED: ATOM     15  O   UNL     1      26.388 -15.574  -5.373 -1.19 +0.00    +0.000 OA
DOCKED: ATOM     16  H   UNL     1      29.450 -15.244  -4.480 +0.00 -0.00    +0.000 HD
DOCKED: ENDBRANCH  11  12
DOCKED: ENDBRANCH  10  11
DOCKED: ENDBRANCH   9  10
DOCKED: ENDBRANCH   1   9
DOCKED: TORSDOF 7
DOCKED: TER
DOCKED: ENDMDL
________________________________________________________________________________


	BEGINNING GENETIC ALGORITHM DOCKING 49 of 100
Run: 49 Seed: 1617718408 1375813821 [ Run 49 of 100 GA/GALS ]
Beginning LAMARCKIAN GENETIC ALGORITHM (LGA), with a maximum of 2500000 energy evaluations.

Final-Value: -12.134


	FINAL GENETIC ALGORITHM DOCKED STATE
	_______________________________________________


Detailed state:  trans 23.666 -18.168 -1.971 quatxyzw 0.650507 -0.584820 0.449831 0.180218 center 0.010 0.634 0.018 ntor 7 -102.0022 -70.9602 -34.6384 -89.6224 -178.8011 174.7703 -66.8311
State:	 23.666 -18.168  -1.971   0.661 -0.595  0.457 159.235   -102.00  -70.96  -34.64  -89.62 -178.80  174.77  -66.83

DOCKED: MODEL       49
DOCKED: USER    Run = 49
DOCKED: USER    DPF = ligand_dock.biased.dpf
DOCKED: USER  
DOCKED: USER    Estimated Free Energy of Binding    =   -9.41 kcal/mol  [=(1)+(2)+(3)-(4)]
DOCKED: USER    Estimated Inhibition Constant, Ki   =  125.89 nM (nanomolar)  [Temperature = 298.15 K]
DOCKED: USER    
DOCKED: USER    (1) Final Intermolecular Energy     =  -11.50 kcal/mol
DOCKED: USER        vdW + Hbond + desolv Energy     =  -11.50 kcal/mol
DOCKED: USER        Electrostatic Energy            =   +0.00 kcal/mol
DOCKED: USER    (2) Final Total Internal Energy     =   -0.63 kcal/mol
DOCKED: USER    (3) Torsional Free Energy           =   +2.09 kcal/mol
DOCKED: USER    (4) Unbound System's Energy  [=(2)] =   -0.63 kcal/mol
DOCKED: USER    
DOCKED: USER    
DOCKED: USER    NEWDPF move ligand.pdbqt
DOCKED: USER    NEWDPF about 0.010000 0.634000 0.018000
DOCKED: USER    NEWDPF tran0 23.666059 -18.168159 -1.970684
DOCKED: USER    NEWDPF quaternion0 0.650507 -0.584820 0.449831 0.180218
DOCKED: USER    NEWDPF axisangle0 0.661335 -0.594555 0.457319 159.235047
DOCKED: USER    NEWDPF quat0 0.661335 -0.594555 0.457319 159.235047
DOCKED: USER    NEWDPF dihe0 -102.00 -70.96 -34.64 -89.62 -178.80 174.77 -66.83 
DOCKED: USER  keepresnum = 1 
DOCKED: USER  
DOCKED: REMARK  Name = 
DOCKED: REMARK  7 active torsions:
DOCKED: REMARK  status: ('A' for Active; 'I' for Inactive)
DOCKED: REMARK    1  A    between atoms: C_3  and  C_4
DOCKED: REMARK    2  A    between atoms: C_4  and  C_5
DOCKED: REMARK    3  A    between atoms: C_5  and  C_6
DOCKED: REMARK    4  A    between atoms: C_6  and  C_7
DOCKED: REMARK    5  A    between atoms: C_7  and  C_8
DOCKED: REMARK    6  A    between atoms: C_8  and  C_9
DOCKED: REMARK    7  A    between atoms: C_9  and  C_10
DOCKED: REMARK                            x       y       z     vdW  Elec       q    Type
DOCKED: REMARK                         _______ _______ _______ _____ _____    ______ ____
DOCKED: USER                              x       y       z     vdW  Elec       q    Type
DOCKED: USER                           _______ _______ _______ _____ _____    ______ ____
DOCKED: ROOT
DOCKED: ATOM      1  C   UNL     1      25.238 -18.217  -0.421 -0.71 -0.00    +0.000 C 
DOCKED: ENDROOT
DOCKED: BRANCH   1   2
DOCKED: ATOM      2  C   UNL     1      23.787 -18.612  -0.106 -0.66 -0.00    +0.000 C 
DOCKED: BRANCH   2   3
DOCKED: ATOM      3  C   UNL     1      22.815 -17.504  -0.523 -0.76 -0.00    +0.000 C 
DOCKED: BRANCH   3   6
DOCKED: ATOM      4  O   UNL     1      20.289 -19.995  -1.831 -2.30 -0.00    +0.000 OA
DOCKED: ATOM      5  N   UNL     1      21.453 -19.465  -1.387 -0.72 -0.00    +0.000 N 
DOCKED: ATOM      6  C   UNL     1      21.520 -18.093  -0.995 -0.66 -0.00    +0.000 C 
DOCKED: ATOM      7  O   UNL     1      20.496 -17.362  -1.081 -1.96 -0.00    +0.000 OA
DOCKED: ATOM      8  H   UNL     1      22.258 -20.028  -1.336 -0.29 -0.00    +0.000 HD
DOCKED: ENDBRANCH   3   6
DOCKED: ENDBRANCH   2   3
DOCKED: ENDBRANCH   1   2
DOCKED: BRANCH   1   9
DOCKED: ATOM      9  C   UNL     1      25.378 -16.752  -0.870 -0.58 -0.00    +0.000 C 
DOCKED: BRANCH   9  10
DOCKED: ATOM     10  C   UNL     1      26.148 -16.545  -2.187 -0.49 -0.00    +0.000 C 
DOCKED: BRANCH  10  11
DOCKED: ATOM     11  C   UNL     1      25.263 -16.009  -3.320 -0.26 -0.00    +0.000 C 
DOCKED: BRANCH  11  12
DOCKED: ATOM     12  C   UNL     1      25.415 -14.523  -3.443 -0.52 -0.00    +0.000 C 
DOCKED: ATOM     13  N   UNL     1      26.498 -13.853  -2.796 -0.27 -0.00    +0.000 N 
DOCKED: ATOM     14  O   UNL     1      26.629 -12.509  -2.891 -0.21 -0.00    +0.000 OA
DOCKED: ATOM     15  O   UNL     1      24.559 -13.859  -4.088 -1.11 -0.00    +0.000 OA
DOCKED: ATOM     16  H   UNL     1      27.154 -14.372  -2.277 +0.00 -0.00    +0.000 HD
DOCKED: ENDBRANCH  11  12
DOCKED: ENDBRANCH  10  11
DOCKED: ENDBRANCH   9  10
DOCKED: ENDBRANCH   1   9
DOCKED: TORSDOF 7
DOCKED: TER
DOCKED: ENDMDL
________________________________________________________________________________


	BEGINNING GENETIC ALGORITHM DOCKING 50 of 100
Run: 50 Seed: 685375993 301730626 [ Run 50 of 100 GA/GALS ]
Beginning LAMARCKIAN GENETIC ALGORITHM (LGA), with a maximum of 2500000 energy evaluations.

Final-Value: -13.154


	FINAL GENETIC ALGORITHM DOCKED STATE
	_______________________________________________


Detailed state:  trans 27.182 -16.812 -1.889 quatxyzw 0.689044 0.637195 -0.340059 0.059669 center 0.010 0.634 0.018 ntor 7 180.0000 -8.5823 154.4976 -47.1140 -28.4099 -32.6427 -113.6088
State:	 27.182 -16.812  -1.889   0.690  0.638 -0.341 173.158    180.00   -8.58  154.50  -47.11  -28.41  -32.64 -113.61

DOCKED: MODEL       50
DOCKED: USER    Run = 50
DOCKED: USER    DPF = ligand_dock.biased.dpf
DOCKED: USER  
DOCKED: USER    Estimated Free Energy of Binding    =  -10.52 kcal/mol  [=(1)+(2)+(3)-(4)]
DOCKED: USER    Estimated Inhibition Constant, Ki   =   19.42 nM (nanomolar)  [Temperature = 298.15 K]
DOCKED: USER    
DOCKED: USER    (1) Final Intermolecular Energy     =  -12.61 kcal/mol
DOCKED: USER        vdW + Hbond + desolv Energy     =  -12.61 kcal/mol
DOCKED: USER        Electrostatic Energy            =   +0.00 kcal/mol
DOCKED: USER    (2) Final Total Internal Energy     =   -0.54 kcal/mol
DOCKED: USER    (3) Torsional Free Energy           =   +2.09 kcal/mol
DOCKED: USER    (4) Unbound System's Energy  [=(2)] =   -0.54 kcal/mol
DOCKED: USER    
DOCKED: USER    
DOCKED: USER    NEWDPF move ligand.pdbqt
DOCKED: USER    NEWDPF about 0.010000 0.634000 0.018000
DOCKED: USER    NEWDPF tran0 27.182433 -16.811659 -1.889205
DOCKED: USER    NEWDPF quaternion0 0.689044 0.637195 -0.340059 0.059669
DOCKED: USER    NEWDPF axisangle0 0.690274 0.638332 -0.340666 173.158350
DOCKED: USER    NEWDPF quat0 0.690274 0.638332 -0.340666 173.158350
DOCKED: USER    NEWDPF dihe0 180.00 -8.58 154.50 -47.11 -28.41 -32.64 -113.61 
DOCKED: USER  keepresnum = 1 
DOCKED: USER  
DOCKED: REMARK  Name = 
DOCKED: REMARK  7 active torsions:
DOCKED: REMARK  status: ('A' for Active; 'I' for Inactive)
DOCKED: REMARK    1  A    between atoms: C_3  and  C_4
DOCKED: REMARK    2  A    between atoms: C_4  and  C_5
DOCKED: REMARK    3  A    between atoms: C_5  and  C_6
DOCKED: REMARK    4  A    between atoms: C_6  and  C_7
DOCKED: REMARK    5  A    between atoms: C_7  and  C_8
DOCKED: REMARK    6  A    between atoms: C_8  and  C_9
DOCKED: REMARK    7  A    between atoms: C_9  and  C_10
DOCKED: REMARK                            x       y       z     vdW  Elec       q    Type
DOCKED: REMARK                         _______ _______ _______ _____ _____    ______ ____
DOCKED: USER                              x       y       z     vdW  Elec       q    Type
DOCKED: USER                           _______ _______ _______ _____ _____    ______ ____
DOCKED: ROOT
DOCKED: ATOM      1  C   UNL     1      25.154 -16.140  -1.331 -0.55 -0.00    +0.000 C 
DOCKED: ENDROOT
DOCKED: BRANCH   1   2
DOCKED: ATOM      2  C   UNL     1      26.396 -15.287  -1.028 -0.39 -0.00    +0.000 C 
DOCKED: BRANCH   2   3
DOCKED: ATOM      3  C   UNL     1      26.607 -14.223  -2.109 -0.30 -0.00    +0.000 C 
DOCKED: BRANCH   3   6
DOCKED: ATOM      4  O   UNL     1      26.195 -15.657  -5.584 -1.17 +0.00    +0.000 OA
DOCKED: ATOM      5  N   UNL     1      26.759 -15.284  -4.411 -0.48 -0.00    +0.000 N 
DOCKED: ATOM      6  C   UNL     1      25.974 -14.653  -3.398 -0.50 -0.00    +0.000 C 
DOCKED: ATOM      7  O   UNL     1      24.752 -14.420  -3.602 -0.92 -0.00    +0.000 OA
DOCKED: ATOM      8  H   UNL     1      27.717 -15.449  -4.256 -0.01 -0.00    +0.000 HD
DOCKED: ENDBRANCH   3   6
DOCKED: ENDBRANCH   2   3
DOCKED: ENDBRANCH   1   2
DOCKED: BRANCH   1   9
DOCKED: ATOM      9  C   UNL     1      25.171 -17.501  -0.613 -0.67 -0.00    +0.000 C 
DOCKED: BRANCH   9  10
DOCKED: ATOM     10  C   UNL     1      24.008 -18.443  -0.976 -0.79 -0.00    +0.000 C 
DOCKED: BRANCH  10  11
DOCKED: ATOM     11  C   UNL     1      22.825 -18.335  -0.006 -0.77 -0.00    +0.000 C 
DOCKED: BRANCH  11  12
DOCKED: ATOM     12  C   UNL     1      21.528 -18.408  -0.754 -0.84 -0.00    +0.000 C 
DOCKED: ATOM     13  N   UNL     1      21.041 -19.664  -1.230 -0.76 -0.00    +0.000 N 
DOCKED: ATOM     14  O   UNL     1      19.878 -19.733  -1.921 -2.38 -0.00    +0.000 OA
DOCKED: ATOM     15  O   UNL     1      20.886 -17.351  -0.997 -1.90 -0.00    +0.000 OA
DOCKED: ATOM     16  H   UNL     1      21.554 -20.486  -1.055 -0.18 -0.00    +0.000 HD
DOCKED: ENDBRANCH  11  12
DOCKED: ENDBRANCH  10  11
DOCKED: ENDBRANCH   9  10
DOCKED: ENDBRANCH   1   9
DOCKED: TORSDOF 7
DOCKED: TER
DOCKED: ENDMDL
________________________________________________________________________________


	BEGINNING GENETIC ALGORITHM DOCKING 51 of 100
Run: 51 Seed: 209858160 982681595 [ Run 51 of 100 GA/GALS ]
Beginning LAMARCKIAN GENETIC ALGORITHM (LGA), with a maximum of 2500000 energy evaluations.

Final-Value: -11.851


	FINAL GENETIC ALGORITHM DOCKED STATE
	_______________________________________________


Detailed state:  trans 24.931 -16.302 -2.845 quatxyzw -0.359791 0.674442 -0.465020 -0.446580 center 0.010 0.634 0.018 ntor 7 174.0262 -99.9181 59.9612 -83.6440 92.0786 67.6911 -36.6805
State:	 24.931 -16.302  -2.845  -0.402  0.754 -0.520 -126.951    174.03  -99.92   59.96  -83.64   92.08   67.69  -36.68

DOCKED: MODEL       51
DOCKED: USER    Run = 51
DOCKED: USER    DPF = ligand_dock.biased.dpf
DOCKED: USER  
DOCKED: USER    Estimated Free Energy of Binding    =   -9.07 kcal/mol  [=(1)+(2)+(3)-(4)]
DOCKED: USER    Estimated Inhibition Constant, Ki   =  223.66 nM (nanomolar)  [Temperature = 298.15 K]
DOCKED: USER    
DOCKED: USER    (1) Final Intermolecular Energy     =  -11.16 kcal/mol
DOCKED: USER        vdW + Hbond + desolv Energy     =  -11.16 kcal/mol
DOCKED: USER        Electrostatic Energy            =   +0.00 kcal/mol
DOCKED: USER    (2) Final Total Internal Energy     =   -0.69 kcal/mol
DOCKED: USER    (3) Torsional Free Energy           =   +2.09 kcal/mol
DOCKED: USER    (4) Unbound System's Energy  [=(2)] =   -0.69 kcal/mol
DOCKED: USER    
DOCKED: USER    
DOCKED: USER    NEWDPF move ligand.pdbqt
DOCKED: USER    NEWDPF about 0.010000 0.634000 0.018000
DOCKED: USER    NEWDPF tran0 24.930755 -16.301730 -2.844703
DOCKED: USER    NEWDPF quaternion0 -0.359791 0.674442 -0.465020 -0.446580
DOCKED: USER    NEWDPF axisangle0 -0.402116 0.753783 -0.519725 -126.951019
DOCKED: USER    NEWDPF quat0 -0.402116 0.753783 -0.519725 -126.951019
DOCKED: USER    NEWDPF dihe0 174.03 -99.92 59.96 -83.64 92.08 67.69 -36.68 
DOCKED: USER  keepresnum = 1 
DOCKED: USER  
DOCKED: REMARK  Name = 
DOCKED: REMARK  7 active torsions:
DOCKED: REMARK  status: ('A' for Active; 'I' for Inactive)
DOCKED: REMARK    1  A    between atoms: C_3  and  C_4
DOCKED: REMARK    2  A    between atoms: C_4  and  C_5
DOCKED: REMARK    3  A    between atoms: C_5  and  C_6
DOCKED: REMARK    4  A    between atoms: C_6  and  C_7
DOCKED: REMARK    5  A    between atoms: C_7  and  C_8
DOCKED: REMARK    6  A    between atoms: C_8  and  C_9
DOCKED: REMARK    7  A    between atoms: C_9  and  C_10
DOCKED: REMARK                            x       y       z     vdW  Elec       q    Type
DOCKED: REMARK                         _______ _______ _______ _____ _____    ______ ____
DOCKED: USER                              x       y       z     vdW  Elec       q    Type
DOCKED: USER                           _______ _______ _______ _____ _____    ______ ____
DOCKED: ROOT
DOCKED: ATOM      1  C   UNL     1      25.328 -17.526  -1.050 -0.67 -0.00    +0.000 C 
DOCKED: ENDROOT
DOCKED: BRANCH   1   2
DOCKED: ATOM      2  C   UNL     1      23.937 -17.482  -1.702 -0.60 -0.00    +0.000 C 
DOCKED: BRANCH   2   3
DOCKED: ATOM      3  C   UNL     1      22.833 -17.518  -0.641 -0.77 -0.00    +0.000 C 
DOCKED: BRANCH   3   6
DOCKED: ATOM      4  O   UNL     1      19.890 -19.697  -1.583 -2.29 -0.00    +0.000 OA
DOCKED: ATOM      5  N   UNL     1      20.681 -18.609  -1.432 -0.64 -0.00    +0.000 N 
DOCKED: ATOM      6  C   UNL     1      21.968 -18.729  -0.825 -0.84 -0.00    +0.000 C 
DOCKED: ATOM      7  O   UNL     1      22.365 -19.850  -0.406 -0.64 -0.00    +0.000 OA
DOCKED: ATOM      8  H   UNL     1      20.367 -17.729  -1.742 -0.34 -0.00    +0.000 HD
DOCKED: ENDBRANCH   3   6
DOCKED: ENDBRANCH   2   3
DOCKED: ENDBRANCH   1   2
DOCKED: BRANCH   1   9
DOCKED: ATOM      9  C   UNL     1      25.787 -16.155  -0.522 -0.38 -0.00    +0.000 C 
DOCKED: BRANCH   9  10
DOCKED: ATOM     10  C   UNL     1      26.732 -15.380  -1.459 -0.37 -0.00    +0.000 C 
DOCKED: BRANCH  10  11
DOCKED: ATOM     11  C   UNL     1      26.917 -16.062  -2.820 -0.35 -0.00    +0.000 C 
DOCKED: BRANCH  11  12
DOCKED: ATOM     12  C   UNL     1      26.125 -15.349  -3.874 -0.56 -0.00    +0.000 C 
DOCKED: ATOM     13  N   UNL     1      25.111 -14.413  -3.503 -0.52 -0.00    +0.000 N 
DOCKED: ATOM     14  O   UNL     1      24.381 -13.779  -4.452 -1.05 -0.00    +0.000 OA
DOCKED: ATOM     15  O   UNL     1      26.327 -15.609  -5.091 -1.12 +0.00    +0.000 OA
DOCKED: ATOM     16  H   UNL     1      24.942 -14.226  -2.552 -0.03 -0.00    +0.000 HD
DOCKED: ENDBRANCH  11  12
DOCKED: ENDBRANCH  10  11
DOCKED: ENDBRANCH   9  10
DOCKED: ENDBRANCH   1   9
DOCKED: TORSDOF 7
DOCKED: TER
DOCKED: ENDMDL
________________________________________________________________________________


	BEGINNING GENETIC ALGORITHM DOCKING 52 of 100
Run: 52 Seed: 1251487333 1083189691 [ Run 52 of 100 GA/GALS ]
Beginning LAMARCKIAN GENETIC ALGORITHM (LGA), with a maximum of 2500000 energy evaluations.

Final-Value: -12.253


	FINAL GENETIC ALGORITHM DOCKED STATE
	_______________________________________________


Detailed state:  trans 26.656 -18.588 -2.508 quatxyzw -0.766896 -0.391192 0.405107 -0.307777 center 0.010 0.634 0.018 ntor 7 -179.9243 -6.4833 179.3467 -27.8255 -17.6300 -42.9621 -82.2961
State:	 26.656 -18.588  -2.508  -0.806 -0.411  0.426 -144.149   -179.92   -6.48  179.35  -27.83  -17.63  -42.96  -82.30

DOCKED: MODEL       52
DOCKED: USER    Run = 52
DOCKED: USER    DPF = ligand_dock.biased.dpf
DOCKED: USER  
DOCKED: USER    Estimated Free Energy of Binding    =   -9.61 kcal/mol  [=(1)+(2)+(3)-(4)]
DOCKED: USER    Estimated Inhibition Constant, Ki   =   90.38 nM (nanomolar)  [Temperature = 298.15 K]
DOCKED: USER    
DOCKED: USER    (1) Final Intermolecular Energy     =  -11.70 kcal/mol
DOCKED: USER        vdW + Hbond + desolv Energy     =  -11.70 kcal/mol
DOCKED: USER        Electrostatic Energy            =   +0.00 kcal/mol
DOCKED: USER    (2) Final Total Internal Energy     =   -0.55 kcal/mol
DOCKED: USER    (3) Torsional Free Energy           =   +2.09 kcal/mol
DOCKED: USER    (4) Unbound System's Energy  [=(2)] =   -0.55 kcal/mol
DOCKED: USER    
DOCKED: USER    
DOCKED: USER    NEWDPF move ligand.pdbqt
DOCKED: USER    NEWDPF about 0.010000 0.634000 0.018000
DOCKED: USER    NEWDPF tran0 26.655527 -18.588107 -2.507582
DOCKED: USER    NEWDPF quaternion0 -0.766896 -0.391192 0.405107 -0.307777
DOCKED: USER    NEWDPF axisangle0 -0.806022 -0.411150 0.425775 -144.149386
DOCKED: USER    NEWDPF quat0 -0.806022 -0.411150 0.425775 -144.149386
DOCKED: USER    NEWDPF dihe0 -179.92 -6.48 179.35 -27.83 -17.63 -42.96 -82.30 
DOCKED: USER  keepresnum = 1 
DOCKED: USER  
DOCKED: REMARK  Name = 
DOCKED: REMARK  7 active torsions:
DOCKED: REMARK  status: ('A' for Active; 'I' for Inactive)
DOCKED: REMARK    1  A    between atoms: C_3  and  C_4
DOCKED: REMARK    2  A    between atoms: C_4  and  C_5
DOCKED: REMARK    3  A    between atoms: C_5  and  C_6
DOCKED: REMARK    4  A    between atoms: C_6  and  C_7
DOCKED: REMARK    5  A    between atoms: C_7  and  C_8
DOCKED: REMARK    6  A    between atoms: C_8  and  C_9
DOCKED: REMARK    7  A    between atoms: C_9  and  C_10
DOCKED: REMARK                            x       y       z     vdW  Elec       q    Type
DOCKED: REMARK                         _______ _______ _______ _____ _____    ______ ____
DOCKED: USER                              x       y       z     vdW  Elec       q    Type
DOCKED: USER                           _______ _______ _______ _____ _____    ______ ____
DOCKED: ROOT
DOCKED: ATOM      1  C   UNL     1      25.711 -17.043  -1.243 -0.60 -0.00    +0.000 C 
DOCKED: ENDROOT
DOCKED: BRANCH   1   2
DOCKED: ATOM      2  C   UNL     1      27.231 -17.079  -1.469 -0.44 -0.00    +0.000 C 
DOCKED: BRANCH   2   3
DOCKED: ATOM      3  C   UNL     1      27.675 -15.940  -2.390 -0.32 -0.00    +0.000 C 
DOCKED: BRANCH   3   6
DOCKED: ATOM      4  O   UNL     1      24.796 -14.594  -4.440 -0.98 -0.00    +0.000 OA
DOCKED: ATOM      5  N   UNL     1      25.849 -15.352  -4.054 -0.57 -0.00    +0.000 N 
DOCKED: ATOM      6  C   UNL     1      26.497 -15.110  -2.805 -0.42 -0.00    +0.000 C 
DOCKED: ATOM      7  O   UNL     1      26.103 -14.170  -2.063 -0.34 -0.00    +0.000 OA
DOCKED: ATOM      8  H   UNL     1      26.171 -16.076  -4.640 -0.05 -0.00    +0.000 HD
DOCKED: ENDBRANCH   3   6
DOCKED: ENDBRANCH   2   3
DOCKED: ENDBRANCH   1   2
DOCKED: BRANCH   1   9
DOCKED: ATOM      9  C   UNL     1      25.179 -18.302  -0.536 -0.69 -0.00    +0.000 C 
DOCKED: BRANCH   9  10
DOCKED: ATOM     10  C   UNL     1      23.793 -18.778  -1.008 -0.78 -0.00    +0.000 C 
DOCKED: BRANCH  10  11
DOCKED: ATOM     11  C   UNL     1      22.675 -18.444  -0.013 -0.78 -0.00    +0.000 C 
DOCKED: BRANCH  11  12
DOCKED: ATOM     12  C   UNL     1      21.342 -18.466  -0.698 -0.84 -0.00    +0.000 C 
DOCKED: ATOM     13  N   UNL     1      20.692 -19.709  -0.969 -0.81 -0.00    +0.000 N 
DOCKED: ATOM     14  O   UNL     1      19.496 -19.735  -1.603 -2.09 -0.00    +0.000 OA
DOCKED: ATOM     15  O   UNL     1      20.813 -17.384  -1.072 -1.95 -0.00    +0.000 OA
DOCKED: ATOM     16  H   UNL     1      21.116 -20.554  -0.694 -0.05 -0.00    +0.000 HD
DOCKED: ENDBRANCH  11  12
DOCKED: ENDBRANCH  10  11
DOCKED: ENDBRANCH   9  10
DOCKED: ENDBRANCH   1   9
DOCKED: TORSDOF 7
DOCKED: TER
DOCKED: ENDMDL
________________________________________________________________________________


	BEGINNING GENETIC ALGORITHM DOCKING 53 of 100
Run: 53 Seed: 935169416 1673674178 [ Run 53 of 100 GA/GALS ]
Beginning LAMARCKIAN GENETIC ALGORITHM (LGA), with a maximum of 2500000 energy evaluations.

Final-Value: -12.291


	FINAL GENETIC ALGORITHM DOCKED STATE
	_______________________________________________


Detailed state:  trans 25.540 -18.198 -2.396 quatxyzw -0.453893 0.018620 -0.827019 -0.331170 center 0.010 0.634 0.018 ntor 7 -2.7471 -47.0120 -55.3984 -106.5125 16.4173 180.0000 -75.6552
State:	 25.540 -18.198  -2.396  -0.481  0.020 -0.876 -141.320     -2.75  -47.01  -55.40 -106.51   16.42  180.00  -75.66

DOCKED: MODEL       53
DOCKED: USER    Run = 53
DOCKED: USER    DPF = ligand_dock.biased.dpf
DOCKED: USER  
DOCKED: USER    Estimated Free Energy of Binding    =   -9.73 kcal/mol  [=(1)+(2)+(3)-(4)]
DOCKED: USER    Estimated Inhibition Constant, Ki   =   73.29 nM (nanomolar)  [Temperature = 298.15 K]
DOCKED: USER    
DOCKED: USER    (1) Final Intermolecular Energy     =  -11.82 kcal/mol
DOCKED: USER        vdW + Hbond + desolv Energy     =  -11.82 kcal/mol
DOCKED: USER        Electrostatic Energy            =   +0.00 kcal/mol
DOCKED: USER    (2) Final Total Internal Energy     =   -0.47 kcal/mol
DOCKED: USER    (3) Torsional Free Energy           =   +2.09 kcal/mol
DOCKED: USER    (4) Unbound System's Energy  [=(2)] =   -0.47 kcal/mol
DOCKED: USER    
DOCKED: USER    
DOCKED: USER    NEWDPF move ligand.pdbqt
DOCKED: USER    NEWDPF about 0.010000 0.634000 0.018000
DOCKED: USER    NEWDPF tran0 25.539582 -18.197955 -2.395748
DOCKED: USER    NEWDPF quaternion0 -0.453893 0.018620 -0.827019 -0.331170
DOCKED: USER    NEWDPF axisangle0 -0.481038 0.019734 -0.876478 -141.320450
DOCKED: USER    NEWDPF quat0 -0.481038 0.019734 -0.876478 -141.320450
DOCKED: USER    NEWDPF dihe0 -2.75 -47.01 -55.40 -106.51 16.42 180.00 -75.66 
DOCKED: USER  keepresnum = 1 
DOCKED: USER  
DOCKED: REMARK  Name = 
DOCKED: REMARK  7 active torsions:
DOCKED: REMARK  status: ('A' for Active; 'I' for Inactive)
DOCKED: REMARK    1  A    between atoms: C_3  and  C_4
DOCKED: REMARK    2  A    between atoms: C_4  and  C_5
DOCKED: REMARK    3  A    between atoms: C_5  and  C_6
DOCKED: REMARK    4  A    between atoms: C_6  and  C_7
DOCKED: REMARK    5  A    between atoms: C_7  and  C_8
DOCKED: REMARK    6  A    between atoms: C_8  and  C_9
DOCKED: REMARK    7  A    between atoms: C_9  and  C_10
DOCKED: REMARK                            x       y       z     vdW  Elec       q    Type
DOCKED: REMARK                         _______ _______ _______ _____ _____    ______ ____
DOCKED: USER                              x       y       z     vdW  Elec       q    Type
DOCKED: USER                           _______ _______ _______ _____ _____    ______ ____
DOCKED: ROOT
DOCKED: ATOM      1  C   UNL     1      24.580 -16.708  -1.077 -0.62 -0.00    +0.000 C 
DOCKED: ENDROOT
DOCKED: BRANCH   1   2
DOCKED: ATOM      2  C   UNL     1      23.821 -17.948  -1.577 -0.70 -0.00    +0.000 C 
DOCKED: BRANCH   2   3
DOCKED: ATOM      3  C   UNL     1      22.913 -18.513  -0.481 -0.83 -0.00    +0.000 C 
DOCKED: BRANCH   3   6
DOCKED: ATOM      4  O   UNL     1      19.841 -19.834  -2.246 -2.19 -0.00    +0.000 OA
DOCKED: ATOM      5  N   UNL     1      21.110 -19.737  -1.783 -0.62 -0.00    +0.000 N 
DOCKED: ATOM      6  C   UNL     1      21.502 -18.627  -0.975 -0.82 -0.00    +0.000 C 
DOCKED: ATOM      7  O   UNL     1      20.671 -17.718  -0.706 -2.24 +0.00    +0.000 OA
DOCKED: ATOM      8  H   UNL     1      21.766 -20.436  -2.006 -0.48 -0.00    +0.000 HD
DOCKED: ENDBRANCH   3   6
DOCKED: ENDBRANCH   2   3
DOCKED: ENDBRANCH   1   2
DOCKED: BRANCH   1   9
DOCKED: ATOM      9  C   UNL     1      25.027 -15.778  -2.219 -0.46 -0.00    +0.000 C 
DOCKED: BRANCH   9  10
DOCKED: ATOM     10  C   UNL     1      26.459 -15.226  -2.086 -0.40 -0.00    +0.000 C 
DOCKED: BRANCH  10  11
DOCKED: ATOM     11  C   UNL     1      27.374 -15.652  -3.242 -0.35 -0.00    +0.000 C 
DOCKED: BRANCH  11  12
DOCKED: ATOM     12  C   UNL     1      27.148 -14.777  -4.437 -0.44 -0.00    +0.000 C 
DOCKED: ATOM     13  N   UNL     1      26.909 -13.378  -4.271 -0.27 -0.00    +0.000 N 
DOCKED: ATOM     14  O   UNL     1      26.688 -12.586  -5.347 -0.29 -0.00    +0.000 OA
DOCKED: ATOM     15  O   UNL     1      27.129 -15.286  -5.590 -1.12 +0.00    +0.000 OA
DOCKED: ATOM     16  H   UNL     1      26.906 -12.986  -3.368 -0.00 -0.00    +0.000 HD
DOCKED: ENDBRANCH  11  12
DOCKED: ENDBRANCH  10  11
DOCKED: ENDBRANCH   9  10
DOCKED: ENDBRANCH   1   9
DOCKED: TORSDOF 7
DOCKED: TER
DOCKED: ENDMDL
________________________________________________________________________________


	BEGINNING GENETIC ALGORITHM DOCKING 54 of 100
Run: 54 Seed: 2091396126 619175466 [ Run 54 of 100 GA/GALS ]
Beginning LAMARCKIAN GENETIC ALGORITHM (LGA), with a maximum of 2500000 energy evaluations.

Final-Value: -12.450


	FINAL GENETIC ALGORITHM DOCKED STATE
	_______________________________________________


Detailed state:  trans 27.660 -16.934 -0.359 quatxyzw -0.610301 -0.616597 0.229347 0.441294 center 0.010 0.634 0.018 ntor 7 43.4044 168.2247 98.9400 -6.4569 27.3632 67.0109 175.7954
State:	 27.660 -16.934  -0.359  -0.680 -0.687  0.256 127.627     43.40  168.22   98.94   -6.46   27.36   67.01  175.80

DOCKED: MODEL       54
DOCKED: USER    Run = 54
DOCKED: USER    DPF = ligand_dock.biased.dpf
DOCKED: USER  
DOCKED: USER    Estimated Free Energy of Binding    =   -9.82 kcal/mol  [=(1)+(2)+(3)-(4)]
DOCKED: USER    Estimated Inhibition Constant, Ki   =   63.76 nM (nanomolar)  [Temperature = 298.15 K]
DOCKED: USER    
DOCKED: USER    (1) Final Intermolecular Energy     =  -11.90 kcal/mol
DOCKED: USER        vdW + Hbond + desolv Energy     =  -11.90 kcal/mol
DOCKED: USER        Electrostatic Energy            =   +0.00 kcal/mol
DOCKED: USER    (2) Final Total Internal Energy     =   -0.55 kcal/mol
DOCKED: USER    (3) Torsional Free Energy           =   +2.09 kcal/mol
DOCKED: USER    (4) Unbound System's Energy  [=(2)] =   -0.55 kcal/mol
DOCKED: USER    
DOCKED: USER    
DOCKED: USER    NEWDPF move ligand.pdbqt
DOCKED: USER    NEWDPF about 0.010000 0.634000 0.018000
DOCKED: USER    NEWDPF tran0 27.660354 -16.933734 -0.358652
DOCKED: USER    NEWDPF quaternion0 -0.610301 -0.616597 0.229347 0.441294
DOCKED: USER    NEWDPF axisangle0 -0.680105 -0.687122 0.255580 127.627023
DOCKED: USER    NEWDPF quat0 -0.680105 -0.687122 0.255580 127.627023
DOCKED: USER    NEWDPF dihe0 43.40 168.22 98.94 -6.46 27.36 67.01 175.80 
DOCKED: USER  keepresnum = 1 
DOCKED: USER  
DOCKED: REMARK  Name = 
DOCKED: REMARK  7 active torsions:
DOCKED: REMARK  status: ('A' for Active; 'I' for Inactive)
DOCKED: REMARK    1  A    between atoms: C_3  and  C_4
DOCKED: REMARK    2  A    between atoms: C_4  and  C_5
DOCKED: REMARK    3  A    between atoms: C_5  and  C_6
DOCKED: REMARK    4  A    between atoms: C_6  and  C_7
DOCKED: REMARK    5  A    between atoms: C_7  and  C_8
DOCKED: REMARK    6  A    between atoms: C_8  and  C_9
DOCKED: REMARK    7  A    between atoms: C_9  and  C_10
DOCKED: REMARK                            x       y       z     vdW  Elec       q    Type
DOCKED: REMARK                         _______ _______ _______ _____ _____    ______ ____
DOCKED: USER                              x       y       z     vdW  Elec       q    Type
DOCKED: USER                           _______ _______ _______ _____ _____    ______ ____
DOCKED: ROOT
DOCKED: ATOM      1  C   UNL     1      25.830 -17.347  -1.523 -0.56 -0.00    +0.000 C 
DOCKED: ENDROOT
DOCKED: BRANCH   1   2
DOCKED: ATOM      2  C   UNL     1      26.289 -15.910  -1.230 -0.45 -0.00    +0.000 C 
DOCKED: BRANCH   2   3
DOCKED: ATOM      3  C   UNL     1      25.807 -14.948  -2.319 -0.44 -0.00    +0.000 C 
DOCKED: BRANCH   3   6
DOCKED: ATOM      4  O   UNL     1      26.947 -15.358  -5.901 -1.03 +0.00    +0.000 OA
DOCKED: ATOM      5  N   UNL     1      26.143 -15.268  -4.815 -0.58 -0.00    +0.000 N 
DOCKED: ATOM      6  C   UNL     1      26.699 -15.027  -3.522 -0.44 -0.00    +0.000 C 
DOCKED: ATOM      7  O   UNL     1      27.947 -14.919  -3.382 -0.24 -0.00    +0.000 OA
DOCKED: ATOM      8  H   UNL     1      25.170 -15.369  -4.918 -0.09 -0.00    +0.000 HD
DOCKED: ENDBRANCH   3   6
DOCKED: ENDBRANCH   2   3
DOCKED: ENDBRANCH   1   2
DOCKED: BRANCH   1   9
DOCKED: ATOM      9  C   UNL     1      25.498 -18.143  -0.248 -0.69 -0.00    +0.000 C 
DOCKED: BRANCH   9  10
DOCKED: ATOM     10  C   UNL     1      24.018 -18.539  -0.094 -0.63 -0.00    +0.000 C 
DOCKED: BRANCH  10  11
DOCKED: ATOM     11  C   UNL     1      23.171 -18.177  -1.321 -0.75 -0.00    +0.000 C 
DOCKED: BRANCH  11  12
DOCKED: ATOM     12  C   UNL     1      21.740 -18.564  -1.101 -0.77 -0.00    +0.000 C 
DOCKED: ATOM     13  N   UNL     1      21.187 -19.695  -1.777 -0.59 -0.00    +0.000 N 
DOCKED: ATOM     14  O   UNL     1      19.890 -20.037  -1.594 -2.10 -0.00    +0.000 OA
DOCKED: ATOM     15  O   UNL     1      21.012 -17.863  -0.347 -1.94 +0.00    +0.000 OA
DOCKED: ATOM     16  H   UNL     1      21.752 -20.229  -2.380 -0.59 -0.00    +0.000 HD
DOCKED: ENDBRANCH  11  12
DOCKED: ENDBRANCH  10  11
DOCKED: ENDBRANCH   9  10
DOCKED: ENDBRANCH   1   9
DOCKED: TORSDOF 7
DOCKED: TER
DOCKED: ENDMDL
________________________________________________________________________________


	BEGINNING GENETIC ALGORITHM DOCKING 55 of 100
Run: 55 Seed: 1943553127 1291015411 [ Run 55 of 100 GA/GALS ]
Beginning LAMARCKIAN GENETIC ALGORITHM (LGA), with a maximum of 2500000 energy evaluations.

Final-Value: -13.441


	FINAL GENETIC ALGORITHM DOCKED STATE
	_______________________________________________


Detailed state:  trans 23.246 -17.070 -0.547 quatxyzw -0.425914 0.725678 0.478874 -0.250338 center 0.010 0.634 0.018 ntor 7 -42.0722 -129.5591 -56.6981 96.9335 -126.9700 120.4898 -129.9792
State:	 23.246 -17.070  -0.547  -0.440  0.750  0.495 -151.005    -42.07 -129.56  -56.70   96.93 -126.97  120.49 -129.98

DOCKED: MODEL       55
DOCKED: USER    Run = 55
DOCKED: USER    DPF = ligand_dock.biased.dpf
DOCKED: USER  
DOCKED: USER    Estimated Free Energy of Binding    =  -10.80 kcal/mol  [=(1)+(2)+(3)-(4)]
DOCKED: USER    Estimated Inhibition Constant, Ki   =   12.04 nM (nanomolar)  [Temperature = 298.15 K]
DOCKED: USER    
DOCKED: USER    (1) Final Intermolecular Energy     =  -12.89 kcal/mol
DOCKED: USER        vdW + Hbond + desolv Energy     =  -12.89 kcal/mol
DOCKED: USER        Electrostatic Energy            =   +0.00 kcal/mol
DOCKED: USER    (2) Final Total Internal Energy     =   -0.55 kcal/mol
DOCKED: USER    (3) Torsional Free Energy           =   +2.09 kcal/mol
DOCKED: USER    (4) Unbound System's Energy  [=(2)] =   -0.55 kcal/mol
DOCKED: USER    
DOCKED: USER    
DOCKED: USER    NEWDPF move ligand.pdbqt
DOCKED: USER    NEWDPF about 0.010000 0.634000 0.018000
DOCKED: USER    NEWDPF tran0 23.246258 -17.070439 -0.546963
DOCKED: USER    NEWDPF quaternion0 -0.425914 0.725678 0.478874 -0.250338
DOCKED: USER    NEWDPF axisangle0 -0.439922 0.749544 0.494623 -151.004931
DOCKED: USER    NEWDPF quat0 -0.439922 0.749544 0.494623 -151.004931
DOCKED: USER    NEWDPF dihe0 -42.07 -129.56 -56.70 96.93 -126.97 120.49 -129.98 
DOCKED: USER  keepresnum = 1 
DOCKED: USER  
DOCKED: REMARK  Name = 
DOCKED: REMARK  7 active torsions:
DOCKED: REMARK  status: ('A' for Active; 'I' for Inactive)
DOCKED: REMARK    1  A    between atoms: C_3  and  C_4
DOCKED: REMARK    2  A    between atoms: C_4  and  C_5
DOCKED: REMARK    3  A    between atoms: C_5  and  C_6
DOCKED: REMARK    4  A    between atoms: C_6  and  C_7
DOCKED: REMARK    5  A    between atoms: C_7  and  C_8
DOCKED: REMARK    6  A    between atoms: C_8  and  C_9
DOCKED: REMARK    7  A    between atoms: C_9  and  C_10
DOCKED: REMARK                            x       y       z     vdW  Elec       q    Type
DOCKED: REMARK                         _______ _______ _______ _____ _____    ______ ____
DOCKED: USER                              x       y       z     vdW  Elec       q    Type
DOCKED: USER                           _______ _______ _______ _____ _____    ______ ____
DOCKED: ROOT
DOCKED: ATOM      1  C   UNL     1      24.786 -17.227  -2.122 -0.59 -0.00    +0.000 C 
DOCKED: ENDROOT
DOCKED: BRANCH   1   2
DOCKED: ATOM      2  C   UNL     1      23.902 -18.425  -1.740 -0.62 -0.00    +0.000 C 
DOCKED: BRANCH   2   3
DOCKED: ATOM      3  C   UNL     1      22.953 -18.062  -0.594 -0.82 -0.00    +0.000 C 
DOCKED: BRANCH   3   6
DOCKED: ATOM      4  O   UNL     1      19.910 -19.735  -2.093 -2.35 -0.00    +0.000 OA
DOCKED: ATOM      5  N   UNL     1      21.191 -19.504  -1.719 -0.66 -0.00    +0.000 N 
DOCKED: ATOM      6  C   UNL     1      21.530 -18.324  -0.988 -0.75 -0.00    +0.000 C 
DOCKED: ATOM      7  O   UNL     1      20.638 -17.480  -0.706 -2.07 +0.00    +0.000 OA
DOCKED: ATOM      8  H   UNL     1      21.893 -20.152  -1.953 -0.51 -0.00    +0.000 HD
DOCKED: ENDBRANCH   3   6
DOCKED: ENDBRANCH   2   3
DOCKED: ENDBRANCH   1   2
DOCKED: BRANCH   1   9
DOCKED: ATOM      9  C   UNL     1      25.669 -16.738  -0.960 -0.57 -0.00    +0.000 C 
DOCKED: BRANCH   9  10
DOCKED: ATOM     10  C   UNL     1      26.765 -15.731  -1.355 -0.40 -0.00    +0.000 C 
DOCKED: BRANCH  10  11
DOCKED: ATOM     11  C   UNL     1      26.204 -14.458  -2.001 -0.34 -0.00    +0.000 C 
DOCKED: BRANCH  11  12
DOCKED: ATOM     12  C   UNL     1      25.781 -14.732  -3.413 -0.52 -0.00    +0.000 C 
DOCKED: ATOM     13  N   UNL     1      26.618 -15.499  -4.280 -0.49 -0.00    +0.000 N 
DOCKED: ATOM     14  O   UNL     1      26.247 -15.733  -5.561 -1.17 +0.00    +0.000 OA
DOCKED: ATOM     15  O   UNL     1      24.700 -14.247  -3.846 -1.02 -0.00    +0.000 OA
DOCKED: ATOM     16  H   UNL     1      27.470 -15.859  -3.945 -0.02 -0.00    +0.000 HD
DOCKED: ENDBRANCH  11  12
DOCKED: ENDBRANCH  10  11
DOCKED: ENDBRANCH   9  10
DOCKED: ENDBRANCH   1   9
DOCKED: TORSDOF 7
DOCKED: TER
DOCKED: ENDMDL
________________________________________________________________________________


	BEGINNING GENETIC ALGORITHM DOCKING 56 of 100
Run: 56 Seed: 1729424530 525902162 [ Run 56 of 100 GA/GALS ]
Beginning LAMARCKIAN GENETIC ALGORITHM (LGA), with a maximum of 2500000 energy evaluations.

Final-Value: -13.114


	FINAL GENETIC ALGORITHM DOCKED STATE
	_______________________________________________


Detailed state:  trans 24.583 -15.645 -1.025 quatxyzw -0.111592 0.965616 0.003407 -0.234780 center 0.010 0.634 0.018 ntor 7 35.1592 44.4124 63.3118 80.4679 68.4040 50.9923 -16.8978
State:	 24.583 -15.645  -1.025  -0.115  0.993  0.004 -152.843     35.16   44.41   63.31   80.47   68.40   50.99  -16.90

DOCKED: MODEL       56
DOCKED: USER    Run = 56
DOCKED: USER    DPF = ligand_dock.biased.dpf
DOCKED: USER  
DOCKED: USER    Estimated Free Energy of Binding    =  -10.44 kcal/mol  [=(1)+(2)+(3)-(4)]
DOCKED: USER    Estimated Inhibition Constant, Ki   =   22.39 nM (nanomolar)  [Temperature = 298.15 K]
DOCKED: USER    
DOCKED: USER    (1) Final Intermolecular Energy     =  -12.52 kcal/mol
DOCKED: USER        vdW + Hbond + desolv Energy     =  -12.52 kcal/mol
DOCKED: USER        Electrostatic Energy            =   +0.00 kcal/mol
DOCKED: USER    (2) Final Total Internal Energy     =   -0.59 kcal/mol
DOCKED: USER    (3) Torsional Free Energy           =   +2.09 kcal/mol
DOCKED: USER    (4) Unbound System's Energy  [=(2)] =   -0.59 kcal/mol
DOCKED: USER    
DOCKED: USER    
DOCKED: USER    NEWDPF move ligand.pdbqt
DOCKED: USER    NEWDPF about 0.010000 0.634000 0.018000
DOCKED: USER    NEWDPF tran0 24.583452 -15.645424 -1.024508
DOCKED: USER    NEWDPF quaternion0 -0.111592 0.965616 0.003407 -0.234780
DOCKED: USER    NEWDPF axisangle0 -0.114801 0.993382 0.003505 -152.842723
DOCKED: USER    NEWDPF quat0 -0.114801 0.993382 0.003505 -152.842723
DOCKED: USER    NEWDPF dihe0 35.16 44.41 63.31 80.47 68.40 50.99 -16.90 
DOCKED: USER  keepresnum = 1 
DOCKED: USER  
DOCKED: REMARK  Name = 
DOCKED: REMARK  7 active torsions:
DOCKED: REMARK  status: ('A' for Active; 'I' for Inactive)
DOCKED: REMARK    1  A    between atoms: C_3  and  C_4
DOCKED: REMARK    2  A    between atoms: C_4  and  C_5
DOCKED: REMARK    3  A    between atoms: C_5  and  C_6
DOCKED: REMARK    4  A    between atoms: C_6  and  C_7
DOCKED: REMARK    5  A    between atoms: C_7  and  C_8
DOCKED: REMARK    6  A    between atoms: C_8  and  C_9
DOCKED: REMARK    7  A    between atoms: C_9  and  C_10
DOCKED: REMARK                            x       y       z     vdW  Elec       q    Type
DOCKED: REMARK                         _______ _______ _______ _____ _____    ______ ____
DOCKED: USER                              x       y       z     vdW  Elec       q    Type
DOCKED: USER                           _______ _______ _______ _____ _____    ______ ____
DOCKED: ROOT
DOCKED: ATOM      1  C   UNL     1      24.822 -17.779  -1.544 -0.66 -0.00    +0.000 C 
DOCKED: ENDROOT
DOCKED: BRANCH   1   2
DOCKED: ATOM      2  C   UNL     1      23.589 -17.270  -0.781 -0.72 -0.00    +0.000 C 
DOCKED: BRANCH   2   3
DOCKED: ATOM      3  C   UNL     1      22.798 -18.434  -0.178 -0.80 -0.00    +0.000 C 
DOCKED: BRANCH   3   6
DOCKED: ATOM      4  O   UNL     1      19.821 -19.759  -2.098 -2.26 -0.00    +0.000 OA
DOCKED: ATOM      5  N   UNL     1      21.044 -19.686  -1.522 -0.73 -0.00    +0.000 N 
DOCKED: ATOM      6  C   UNL     1      21.435 -18.519  -0.797 -0.84 -0.00    +0.000 C 
DOCKED: ATOM      7  O   UNL     1      20.647 -17.539  -0.709 -2.12 +0.00    +0.000 OA
DOCKED: ATOM      8  H   UNL     1      21.669 -20.442  -1.605 -0.35 -0.00    +0.000 HD
DOCKED: ENDBRANCH   3   6
DOCKED: ENDBRANCH   2   3
DOCKED: ENDBRANCH   1   2
DOCKED: BRANCH   1   9
DOCKED: ATOM      9  C   UNL     1      26.136 -17.563  -0.773 -0.61 -0.00    +0.000 C 
DOCKED: BRANCH   9  10
DOCKED: ATOM     10  C   UNL     1      26.691 -16.127  -0.822 -0.44 -0.00    +0.000 C 
DOCKED: BRANCH  10  11
DOCKED: ATOM     11  C   UNL     1      25.965 -15.239  -1.840 -0.44 -0.00    +0.000 C 
DOCKED: BRANCH  11  12
DOCKED: ATOM     12  C   UNL     1      26.661 -15.286  -3.166 -0.44 -0.00    +0.000 C 
DOCKED: ATOM     13  N   UNL     1      25.921 -15.549  -4.360 -0.60 -0.00    +0.000 N 
DOCKED: ATOM     14  O   UNL     1      26.550 -15.609  -5.558 -1.21 +0.00    +0.000 OA
DOCKED: ATOM     15  O   UNL     1      27.912 -15.133  -3.221 -0.25 -0.00    +0.000 OA
DOCKED: ATOM     16  H   UNL     1      24.948 -15.687  -4.312 -0.06 -0.00    +0.000 HD
DOCKED: ENDBRANCH  11  12
DOCKED: ENDBRANCH  10  11
DOCKED: ENDBRANCH   9  10
DOCKED: ENDBRANCH   1   9
DOCKED: TORSDOF 7
DOCKED: TER
DOCKED: ENDMDL
________________________________________________________________________________


	BEGINNING GENETIC ALGORITHM DOCKING 57 of 100
Run: 57 Seed: 2062286174 867670437 [ Run 57 of 100 GA/GALS ]
Beginning LAMARCKIAN GENETIC ALGORITHM (LGA), with a maximum of 2500000 energy evaluations.

Final-Value: -12.647


	FINAL GENETIC ALGORITHM DOCKED STATE
	_______________________________________________


Detailed state:  trans 25.535 -14.751 -1.419 quatxyzw 0.000435 0.298553 -0.116742 0.947226 center 0.010 0.634 0.018 ntor 7 -136.1262 105.9303 88.8037 15.4653 -132.3324 -77.0974 -89.2617
State:	 25.535 -14.751  -1.419   0.001  0.931 -0.364 37.394   -136.13  105.93   88.80   15.47 -132.33  -77.10  -89.26

DOCKED: MODEL       57
DOCKED: USER    Run = 57
DOCKED: USER    DPF = ligand_dock.biased.dpf
DOCKED: USER  
DOCKED: USER    Estimated Free Energy of Binding    =  -10.04 kcal/mol  [=(1)+(2)+(3)-(4)]
DOCKED: USER    Estimated Inhibition Constant, Ki   =   43.96 nM (nanomolar)  [Temperature = 298.15 K]
DOCKED: USER    
DOCKED: USER    (1) Final Intermolecular Energy     =  -12.12 kcal/mol
DOCKED: USER        vdW + Hbond + desolv Energy     =  -12.12 kcal/mol
DOCKED: USER        Electrostatic Energy            =   +0.00 kcal/mol
DOCKED: USER    (2) Final Total Internal Energy     =   -0.52 kcal/mol
DOCKED: USER    (3) Torsional Free Energy           =   +2.09 kcal/mol
DOCKED: USER    (4) Unbound System's Energy  [=(2)] =   -0.52 kcal/mol
DOCKED: USER    
DOCKED: USER    
DOCKED: USER    NEWDPF move ligand.pdbqt
DOCKED: USER    NEWDPF about 0.010000 0.634000 0.018000
DOCKED: USER    NEWDPF tran0 25.535421 -14.750893 -1.418735
DOCKED: USER    NEWDPF quaternion0 0.000435 0.298553 -0.116742 0.947226
DOCKED: USER    NEWDPF axisangle0 0.001356 0.931330 -0.364173 37.394396
DOCKED: USER    NEWDPF quat0 0.001356 0.931330 -0.364173 37.394396
DOCKED: USER    NEWDPF dihe0 -136.13 105.93 88.80 15.47 -132.33 -77.10 -89.26 
DOCKED: USER  keepresnum = 1 
DOCKED: USER  
DOCKED: REMARK  Name = 
DOCKED: REMARK  7 active torsions:
DOCKED: REMARK  status: ('A' for Active; 'I' for Inactive)
DOCKED: REMARK    1  A    between atoms: C_3  and  C_4
DOCKED: REMARK    2  A    between atoms: C_4  and  C_5
DOCKED: REMARK    3  A    between atoms: C_5  and  C_6
DOCKED: REMARK    4  A    between atoms: C_6  and  C_7
DOCKED: REMARK    5  A    between atoms: C_7  and  C_8
DOCKED: REMARK    6  A    between atoms: C_8  and  C_9
DOCKED: REMARK    7  A    between atoms: C_9  and  C_10
DOCKED: REMARK                            x       y       z     vdW  Elec       q    Type
DOCKED: REMARK                         _______ _______ _______ _____ _____    ______ ____
DOCKED: USER                              x       y       z     vdW  Elec       q    Type
DOCKED: USER                           _______ _______ _______ _____ _____    ______ ____
DOCKED: ROOT
DOCKED: ATOM      1  C   UNL     1      26.136 -16.724  -0.630 -0.53 -0.00    +0.000 C 
DOCKED: ENDROOT
DOCKED: BRANCH   1   2
DOCKED: ATOM      2  C   UNL     1      27.143 -15.797  -1.328 -0.36 -0.00    +0.000 C 
DOCKED: BRANCH   2   3
DOCKED: ATOM      3  C   UNL     1      26.439 -14.580  -1.934 -0.34 -0.00    +0.000 C 
DOCKED: BRANCH   3   6
DOCKED: ATOM      4  O   UNL     1      26.600 -15.590  -5.574 -1.21 +0.00    +0.000 OA
DOCKED: ATOM      5  N   UNL     1      26.970 -15.349  -4.294 -0.44 -0.00    +0.000 N 
DOCKED: ATOM      6  C   UNL     1      26.020 -14.864  -3.345 -0.51 -0.00    +0.000 C 
DOCKED: ATOM      7  O   UNL     1      24.833 -14.637  -3.702 -0.89 -0.00    +0.000 OA
DOCKED: ATOM      8  H   UNL     1      27.901 -15.509  -4.017 -0.01 -0.00    +0.000 HD
DOCKED: ENDBRANCH   3   6
DOCKED: ENDBRANCH   2   3
DOCKED: ENDBRANCH   1   2
DOCKED: BRANCH   1   9
DOCKED: ATOM      9  C   UNL     1      24.987 -17.165  -1.554 -0.65 -0.00    +0.000 C 
DOCKED: BRANCH   9  10
DOCKED: ATOM     10  C   UNL     1      23.654 -17.459  -0.840 -0.75 -0.00    +0.000 C 
DOCKED: BRANCH  10  11
DOCKED: ATOM     11  C   UNL     1      22.947 -18.707  -1.383 -0.77 -0.00    +0.000 C 
DOCKED: BRANCH  11  12
DOCKED: ATOM     12  C   UNL     1      21.478 -18.645  -1.090 -0.79 -0.00    +0.000 C 
DOCKED: ATOM     13  N   UNL     1      20.655 -19.797  -1.285 -0.78 -0.00    +0.000 N 
DOCKED: ATOM     14  O   UNL     1      19.325 -19.740  -1.038 -1.74 -0.00    +0.000 OA
DOCKED: ATOM     15  O   UNL     1      20.963 -17.560  -0.709 -2.10 -0.00    +0.000 OA
DOCKED: ATOM     16  H   UNL     1      21.057 -20.637  -1.601 -0.26 -0.00    +0.000 HD
DOCKED: ENDBRANCH  11  12
DOCKED: ENDBRANCH  10  11
DOCKED: ENDBRANCH   9  10
DOCKED: ENDBRANCH   1   9
DOCKED: TORSDOF 7
DOCKED: TER
DOCKED: ENDMDL
________________________________________________________________________________


	BEGINNING GENETIC ALGORITHM DOCKING 58 of 100
Run: 58 Seed: 682296770 164403462 [ Run 58 of 100 GA/GALS ]
Beginning LAMARCKIAN GENETIC ALGORITHM (LGA), with a maximum of 2500000 energy evaluations.

Final-Value: -12.553


	FINAL GENETIC ALGORITHM DOCKED STATE
	_______________________________________________


Detailed state:  trans 26.928 -16.319 -0.337 quatxyzw -0.686479 -0.563736 0.204520 0.411242 center 0.010 0.634 0.018 ntor 7 178.4665 14.6959 -157.9539 16.8473 -12.0469 -161.8930 175.3845
State:	 26.928 -16.319  -0.337  -0.753 -0.618  0.224 131.434    178.47   14.70 -157.95   16.85  -12.05 -161.89  175.38

DOCKED: MODEL       58
DOCKED: USER    Run = 58
DOCKED: USER    DPF = ligand_dock.biased.dpf
DOCKED: USER  
DOCKED: USER    Estimated Free Energy of Binding    =   -9.95 kcal/mol  [=(1)+(2)+(3)-(4)]
DOCKED: USER    Estimated Inhibition Constant, Ki   =   51.27 nM (nanomolar)  [Temperature = 298.15 K]
DOCKED: USER    
DOCKED: USER    (1) Final Intermolecular Energy     =  -12.03 kcal/mol
DOCKED: USER        vdW + Hbond + desolv Energy     =  -12.03 kcal/mol
DOCKED: USER        Electrostatic Energy            =   +0.00 kcal/mol
DOCKED: USER    (2) Final Total Internal Energy     =   -0.52 kcal/mol
DOCKED: USER    (3) Torsional Free Energy           =   +2.09 kcal/mol
DOCKED: USER    (4) Unbound System's Energy  [=(2)] =   -0.52 kcal/mol
DOCKED: USER    
DOCKED: USER    
DOCKED: USER    NEWDPF move ligand.pdbqt
DOCKED: USER    NEWDPF about 0.010000 0.634000 0.018000
DOCKED: USER    NEWDPF tran0 26.928250 -16.318957 -0.337401
DOCKED: USER    NEWDPF quaternion0 -0.686479 -0.563736 0.204520 0.411242
DOCKED: USER    NEWDPF axisangle0 -0.753109 -0.618453 0.224371 131.434213
DOCKED: USER    NEWDPF quat0 -0.753109 -0.618453 0.224371 131.434213
DOCKED: USER    NEWDPF dihe0 178.47 14.70 -157.95 16.85 -12.05 -161.89 175.38 
DOCKED: USER  keepresnum = 1 
DOCKED: USER  
DOCKED: REMARK  Name = 
DOCKED: REMARK  7 active torsions:
DOCKED: REMARK  status: ('A' for Active; 'I' for Inactive)
DOCKED: REMARK    1  A    between atoms: C_3  and  C_4
DOCKED: REMARK    2  A    between atoms: C_4  and  C_5
DOCKED: REMARK    3  A    between atoms: C_5  and  C_6
DOCKED: REMARK    4  A    between atoms: C_6  and  C_7
DOCKED: REMARK    5  A    between atoms: C_7  and  C_8
DOCKED: REMARK    6  A    between atoms: C_8  and  C_9
DOCKED: REMARK    7  A    between atoms: C_9  and  C_10
DOCKED: REMARK                            x       y       z     vdW  Elec       q    Type
DOCKED: REMARK                         _______ _______ _______ _____ _____    ______ ____
DOCKED: USER                              x       y       z     vdW  Elec       q    Type
DOCKED: USER                           _______ _______ _______ _____ _____    ______ ____
DOCKED: ROOT
DOCKED: ATOM      1  C   UNL     1      25.160 -16.322  -1.660 -0.59 -0.00    +0.000 C 
DOCKED: ENDROOT
DOCKED: BRANCH   1   2
DOCKED: ATOM      2  C   UNL     1      25.797 -15.012  -1.174 -0.37 -0.00    +0.000 C 
DOCKED: BRANCH   2   3
DOCKED: ATOM      3  C   UNL     1      26.429 -14.244  -2.338 -0.32 -0.00    +0.000 C 
DOCKED: BRANCH   3   6
DOCKED: ATOM      4  O   UNL     1      25.885 -15.976  -5.656 -1.04 +0.00    +0.000 OA
DOCKED: ATOM      5  N   UNL     1      26.440 -15.618  -4.474 -0.53 -0.00    +0.000 N 
DOCKED: ATOM      6  C   UNL     1      25.801 -14.652  -3.637 -0.53 -0.00    +0.000 C 
DOCKED: ATOM      7  O   UNL     1      24.724 -14.112  -4.008 -1.10 -0.00    +0.000 OA
DOCKED: ATOM      8  H   UNL     1      27.290 -16.025  -4.190 -0.02 -0.00    +0.000 HD
DOCKED: ENDBRANCH   3   6
DOCKED: ENDBRANCH   2   3
DOCKED: ENDBRANCH   1   2
DOCKED: BRANCH   1   9
DOCKED: ATOM      9  C   UNL     1      24.611 -17.186  -0.510 -0.59 -0.00    +0.000 C 
DOCKED: BRANCH   9  10
DOCKED: ATOM     10  C   UNL     1      23.081 -17.356  -0.496 -0.71 -0.00    +0.000 C 
DOCKED: BRANCH  10  11
DOCKED: ATOM     11  C   UNL     1      22.642 -18.796  -0.202 -0.75 -0.00    +0.000 C 
DOCKED: BRANCH  11  12
DOCKED: ATOM     12  C   UNL     1      21.274 -19.049  -0.760 -0.87 -0.00    +0.000 C 
DOCKED: ATOM     13  N   UNL     1      21.118 -19.737  -2.003 -0.47 -0.00    +0.000 N 
DOCKED: ATOM     14  O   UNL     1      19.885 -19.953  -2.519 -1.99 -0.00    +0.000 OA
DOCKED: ATOM     15  O   UNL     1      20.260 -18.617  -0.148 -1.54 -0.00    +0.000 OA
DOCKED: ATOM     16  H   UNL     1      21.913 -20.057  -2.488 -0.60 -0.00    +0.000 HD
DOCKED: ENDBRANCH  11  12
DOCKED: ENDBRANCH  10  11
DOCKED: ENDBRANCH   9  10
DOCKED: ENDBRANCH   1   9
DOCKED: TORSDOF 7
DOCKED: TER
DOCKED: ENDMDL
________________________________________________________________________________


	BEGINNING GENETIC ALGORITHM DOCKING 59 of 100
Run: 59 Seed: 1762676252 2103277900 [ Run 59 of 100 GA/GALS ]
Beginning LAMARCKIAN GENETIC ALGORITHM (LGA), with a maximum of 2500000 energy evaluations.

Final-Value: -13.481


	FINAL GENETIC ALGORITHM DOCKED STATE
	_______________________________________________


Detailed state:  trans 22.720 -17.455 -1.951 quatxyzw -0.703284 0.669437 -0.025846 -0.237860 center 0.010 0.634 0.018 ntor 7 -47.5264 -141.6720 -61.6393 122.0823 -172.3954 179.5327 -147.2049
State:	 22.720 -17.455  -1.951  -0.724  0.689 -0.027 -152.479    -47.53 -141.67  -61.64  122.08 -172.40  179.53 -147.20

DOCKED: MODEL       59
DOCKED: USER    Run = 59
DOCKED: USER    DPF = ligand_dock.biased.dpf
DOCKED: USER  
DOCKED: USER    Estimated Free Energy of Binding    =  -10.67 kcal/mol  [=(1)+(2)+(3)-(4)]
DOCKED: USER    Estimated Inhibition Constant, Ki   =   15.21 nM (nanomolar)  [Temperature = 298.15 K]
DOCKED: USER    
DOCKED: USER    (1) Final Intermolecular Energy     =  -12.75 kcal/mol
DOCKED: USER        vdW + Hbond + desolv Energy     =  -12.75 kcal/mol
DOCKED: USER        Electrostatic Energy            =   +0.00 kcal/mol
DOCKED: USER    (2) Final Total Internal Energy     =   -0.73 kcal/mol
DOCKED: USER    (3) Torsional Free Energy           =   +2.09 kcal/mol
DOCKED: USER    (4) Unbound System's Energy  [=(2)] =   -0.73 kcal/mol
DOCKED: USER    
DOCKED: USER    
DOCKED: USER    NEWDPF move ligand.pdbqt
DOCKED: USER    NEWDPF about 0.010000 0.634000 0.018000
DOCKED: USER    NEWDPF tran0 22.720285 -17.454611 -1.951434
DOCKED: USER    NEWDPF quaternion0 -0.703284 0.669437 -0.025846 -0.237860
DOCKED: USER    NEWDPF axisangle0 -0.724065 0.689218 -0.026610 -152.479461
DOCKED: USER    NEWDPF quat0 -0.724065 0.689218 -0.026610 -152.479461
DOCKED: USER    NEWDPF dihe0 -47.53 -141.67 -61.64 122.08 -172.40 179.53 -147.20 
DOCKED: USER  keepresnum = 1 
DOCKED: USER  
DOCKED: REMARK  Name = 
DOCKED: REMARK  7 active torsions:
DOCKED: REMARK  status: ('A' for Active; 'I' for Inactive)
DOCKED: REMARK    1  A    between atoms: C_3  and  C_4
DOCKED: REMARK    2  A    between atoms: C_4  and  C_5
DOCKED: REMARK    3  A    between atoms: C_5  and  C_6
DOCKED: REMARK    4  A    between atoms: C_6  and  C_7
DOCKED: REMARK    5  A    between atoms: C_7  and  C_8
DOCKED: REMARK    6  A    between atoms: C_8  and  C_9
DOCKED: REMARK    7  A    between atoms: C_9  and  C_10
DOCKED: REMARK                            x       y       z     vdW  Elec       q    Type
DOCKED: REMARK                         _______ _______ _______ _____ _____    ______ ____
DOCKED: USER                              x       y       z     vdW  Elec       q    Type
DOCKED: USER                           _______ _______ _______ _____ _____    ______ ____
DOCKED: ROOT
DOCKED: ATOM      1  C   UNL     1      24.887 -17.805  -1.703 -0.60 -0.00    +0.000 C 
DOCKED: ENDROOT
DOCKED: BRANCH   1   2
DOCKED: ATOM      2  C   UNL     1      23.843 -18.743  -1.076 -0.78 -0.00    +0.000 C 
DOCKED: BRANCH   2   3
DOCKED: ATOM      3  C   UNL     1      22.754 -17.946  -0.353 -0.81 -0.00    +0.000 C 
DOCKED: BRANCH   3   6
DOCKED: ATOM      4  O   UNL     1      19.891 -19.769  -2.020 -2.34 -0.00    +0.000 OA
DOCKED: ATOM      5  N   UNL     1      21.095 -19.523  -1.452 -0.76 -0.00    +0.000 N 
DOCKED: ATOM      6  C   UNL     1      21.412 -18.219  -0.963 -0.72 -0.00    +0.000 C 
DOCKED: ATOM      7  O   UNL     1      20.576 -17.283  -1.077 -1.92 -0.00    +0.000 OA
DOCKED: ATOM      8  H   UNL     1      21.757 -20.247  -1.377 -0.31 -0.00    +0.000 HD
DOCKED: ENDBRANCH   3   6
DOCKED: ENDBRANCH   2   3
DOCKED: ENDBRANCH   1   2
DOCKED: BRANCH   1   9
DOCKED: ATOM      9  C   UNL     1      24.804 -16.367  -1.161 -0.56 -0.00    +0.000 C 
DOCKED: BRANCH   9  10
DOCKED: ATOM     10  C   UNL     1      26.133 -15.590  -1.173 -0.44 -0.00    +0.000 C 
DOCKED: BRANCH  10  11
DOCKED: ATOM     11  C   UNL     1      26.088 -14.340  -2.062 -0.31 -0.00    +0.000 C 
DOCKED: BRANCH  11  12
DOCKED: ATOM     12  C   UNL     1      25.559 -14.685  -3.422 -0.54 -0.00    +0.000 C 
DOCKED: ATOM     13  N   UNL     1      26.193 -15.699  -4.205 -0.52 -0.00    +0.000 N 
DOCKED: ATOM     14  O   UNL     1      25.729 -16.002  -5.441 -1.07 +0.00    +0.000 OA
DOCKED: ATOM     15  O   UNL     1      24.577 -14.049  -3.890 -1.06 -0.00    +0.000 OA
DOCKED: ATOM     16  H   UNL     1      26.972 -16.180  -3.845 -0.02 -0.00    +0.000 HD
DOCKED: ENDBRANCH  11  12
DOCKED: ENDBRANCH  10  11
DOCKED: ENDBRANCH   9  10
DOCKED: ENDBRANCH   1   9
DOCKED: TORSDOF 7
DOCKED: TER
DOCKED: ENDMDL
________________________________________________________________________________


	BEGINNING GENETIC ALGORITHM DOCKING 60 of 100
Run: 60 Seed: 476838790 1191110838 [ Run 60 of 100 GA/GALS ]
Beginning LAMARCKIAN GENETIC ALGORITHM (LGA), with a maximum of 2500000 energy evaluations.

Final-Value: -12.919


	FINAL GENETIC ALGORITHM DOCKED STATE
	_______________________________________________


Detailed state:  trans 25.895 -16.035 0.568 quatxyzw 0.691068 0.283508 -0.094579 -0.658106 center 0.010 0.634 0.018 ntor 7 176.5376 88.8810 -155.1495 90.1921 33.2918 -35.1920 -69.4233
State:	 25.895 -16.035   0.568   0.918  0.377 -0.126 -97.689    176.54   88.88 -155.15   90.19   33.29  -35.19  -69.42

DOCKED: MODEL       60
DOCKED: USER    Run = 60
DOCKED: USER    DPF = ligand_dock.biased.dpf
DOCKED: USER  
DOCKED: USER    Estimated Free Energy of Binding    =  -10.24 kcal/mol  [=(1)+(2)+(3)-(4)]
DOCKED: USER    Estimated Inhibition Constant, Ki   =   31.04 nM (nanomolar)  [Temperature = 298.15 K]
DOCKED: USER    
DOCKED: USER    (1) Final Intermolecular Energy     =  -12.33 kcal/mol
DOCKED: USER        vdW + Hbond + desolv Energy     =  -12.33 kcal/mol
DOCKED: USER        Electrostatic Energy            =   +0.00 kcal/mol
DOCKED: USER    (2) Final Total Internal Energy     =   -0.59 kcal/mol
DOCKED: USER    (3) Torsional Free Energy           =   +2.09 kcal/mol
DOCKED: USER    (4) Unbound System's Energy  [=(2)] =   -0.59 kcal/mol
DOCKED: USER    
DOCKED: USER    
DOCKED: USER    NEWDPF move ligand.pdbqt
DOCKED: USER    NEWDPF about 0.010000 0.634000 0.018000
DOCKED: USER    NEWDPF tran0 25.895179 -16.034783 0.567529
DOCKED: USER    NEWDPF quaternion0 0.691068 0.283508 -0.094579 -0.658106
DOCKED: USER    NEWDPF axisangle0 0.917844 0.376542 -0.125616 -97.688892
DOCKED: USER    NEWDPF quat0 0.917844 0.376542 -0.125616 -97.688892
DOCKED: USER    NEWDPF dihe0 176.54 88.88 -155.15 90.19 33.29 -35.19 -69.42 
DOCKED: USER  keepresnum = 1 
DOCKED: USER  
DOCKED: REMARK  Name = 
DOCKED: REMARK  7 active torsions:
DOCKED: REMARK  status: ('A' for Active; 'I' for Inactive)
DOCKED: REMARK    1  A    between atoms: C_3  and  C_4
DOCKED: REMARK    2  A    between atoms: C_4  and  C_5
DOCKED: REMARK    3  A    between atoms: C_5  and  C_6
DOCKED: REMARK    4  A    between atoms: C_6  and  C_7
DOCKED: REMARK    5  A    between atoms: C_7  and  C_8
DOCKED: REMARK    6  A    between atoms: C_8  and  C_9
DOCKED: REMARK    7  A    between atoms: C_9  and  C_10
DOCKED: REMARK                            x       y       z     vdW  Elec       q    Type
DOCKED: REMARK                         _______ _______ _______ _____ _____    ______ ____
DOCKED: USER                              x       y       z     vdW  Elec       q    Type
DOCKED: USER                           _______ _______ _______ _____ _____    ______ ____
DOCKED: ROOT
DOCKED: ATOM      1  C   UNL     1      25.314 -16.389  -1.533 -0.58 -0.00    +0.000 C 
DOCKED: ENDROOT
DOCKED: BRANCH   1   2
DOCKED: ATOM      2  C   UNL     1      25.899 -15.044  -1.077 -0.40 -0.00    +0.000 C 
DOCKED: BRANCH   2   3
DOCKED: ATOM      3  C   UNL     1      26.493 -14.275  -2.261 -0.32 -0.00    +0.000 C 
DOCKED: BRANCH   3   6
DOCKED: ATOM      4  O   UNL     1      25.876 -15.981  -5.579 -1.13 +0.00    +0.000 OA
DOCKED: ATOM      5  N   UNL     1      26.465 -15.620  -4.415 -0.52 -0.00    +0.000 N 
DOCKED: ATOM      6  C   UNL     1      25.828 -14.687  -3.540 -0.53 -0.00    +0.000 C 
DOCKED: ATOM      7  O   UNL     1      24.721 -14.177  -3.861 -1.04 -0.00    +0.000 OA
DOCKED: ATOM      8  H   UNL     1      27.338 -16.003  -4.169 -0.02 -0.00    +0.000 HD
DOCKED: ENDBRANCH   3   6
DOCKED: ENDBRANCH   2   3
DOCKED: ENDBRANCH   1   2
DOCKED: BRANCH   1   9
DOCKED: ATOM      9  C   UNL     1      23.979 -16.727  -0.846 -0.57 -0.00    +0.000 C 
DOCKED: BRANCH   9  10
DOCKED: ATOM     10  C   UNL     1      23.894 -18.143  -0.248 -0.76 -0.00    +0.000 C 
DOCKED: BRANCH  10  11
DOCKED: ATOM     11  C   UNL     1      23.206 -19.147  -1.181 -0.77 -0.00    +0.000 C 
DOCKED: BRANCH  11  12
DOCKED: ATOM     12  C   UNL     1      21.716 -19.039  -1.057 -0.83 -0.00    +0.000 C 
DOCKED: ATOM     13  N   UNL     1      20.865 -19.792  -1.923 -0.59 -0.00    +0.000 N 
DOCKED: ATOM     14  O   UNL     1      19.518 -19.684  -1.826 -2.08 -0.00    +0.000 OA
DOCKED: ATOM     15  O   UNL     1      21.215 -18.250  -0.212 -1.64 -0.00    +0.000 OA
DOCKED: ATOM     16  H   UNL     1      21.259 -20.393  -2.596 -0.55 -0.00    +0.000 HD
DOCKED: ENDBRANCH  11  12
DOCKED: ENDBRANCH  10  11
DOCKED: ENDBRANCH   9  10
DOCKED: ENDBRANCH   1   9
DOCKED: TORSDOF 7
DOCKED: TER
DOCKED: ENDMDL
________________________________________________________________________________


	BEGINNING GENETIC ALGORITHM DOCKING 61 of 100
Run: 61 Seed: 1955883085 279879777 [ Run 61 of 100 GA/GALS ]
Beginning LAMARCKIAN GENETIC ALGORITHM (LGA), with a maximum of 2500000 energy evaluations.

Final-Value: -12.248


	FINAL GENETIC ALGORITHM DOCKED STATE
	_______________________________________________


Detailed state:  trans 23.344 -17.737 -2.421 quatxyzw 0.702458 -0.584318 0.310761 0.261828 center 0.010 0.634 0.018 ntor 7 -67.3241 133.8412 -10.6037 -163.1718 -176.6441 154.0218 -151.3868
State:	 23.344 -17.737  -2.421   0.728 -0.605  0.322 149.643    -67.32  133.84  -10.60 -163.17 -176.64  154.02 -151.39

DOCKED: MODEL       61
DOCKED: USER    Run = 61
DOCKED: USER    DPF = ligand_dock.biased.dpf
DOCKED: USER  
DOCKED: USER    Estimated Free Energy of Binding    =   -9.73 kcal/mol  [=(1)+(2)+(3)-(4)]
DOCKED: USER    Estimated Inhibition Constant, Ki   =   74.04 nM (nanomolar)  [Temperature = 298.15 K]
DOCKED: USER    
DOCKED: USER    (1) Final Intermolecular Energy     =  -11.82 kcal/mol
DOCKED: USER        vdW + Hbond + desolv Energy     =  -11.82 kcal/mol
DOCKED: USER        Electrostatic Energy            =   +0.00 kcal/mol
DOCKED: USER    (2) Final Total Internal Energy     =   -0.43 kcal/mol
DOCKED: USER    (3) Torsional Free Energy           =   +2.09 kcal/mol
DOCKED: USER    (4) Unbound System's Energy  [=(2)] =   -0.43 kcal/mol
DOCKED: USER    
DOCKED: USER    
DOCKED: USER    NEWDPF move ligand.pdbqt
DOCKED: USER    NEWDPF about 0.010000 0.634000 0.018000
DOCKED: USER    NEWDPF tran0 23.343911 -17.737089 -2.421461
DOCKED: USER    NEWDPF quaternion0 0.702458 -0.584318 0.310761 0.261828
DOCKED: USER    NEWDPF axisangle0 0.727849 -0.605439 0.321994 149.642872
DOCKED: USER    NEWDPF quat0 0.727849 -0.605439 0.321994 149.642872
DOCKED: USER    NEWDPF dihe0 -67.32 133.84 -10.60 -163.17 -176.64 154.02 -151.39 
DOCKED: USER  keepresnum = 1 
DOCKED: USER  
DOCKED: REMARK  Name = 
DOCKED: REMARK  7 active torsions:
DOCKED: REMARK  status: ('A' for Active; 'I' for Inactive)
DOCKED: REMARK    1  A    between atoms: C_3  and  C_4
DOCKED: REMARK    2  A    between atoms: C_4  and  C_5
DOCKED: REMARK    3  A    between atoms: C_5  and  C_6
DOCKED: REMARK    4  A    between atoms: C_6  and  C_7
DOCKED: REMARK    5  A    between atoms: C_7  and  C_8
DOCKED: REMARK    6  A    between atoms: C_8  and  C_9
DOCKED: REMARK    7  A    between atoms: C_9  and  C_10
DOCKED: REMARK                            x       y       z     vdW  Elec       q    Type
DOCKED: REMARK                         _______ _______ _______ _____ _____    ______ ____
DOCKED: USER                              x       y       z     vdW  Elec       q    Type
DOCKED: USER                           _______ _______ _______ _____ _____    ______ ____
DOCKED: ROOT
DOCKED: ATOM      1  C   UNL     1      25.121 -17.834  -1.114 -0.69 -0.00    +0.000 C 
DOCKED: ENDROOT
DOCKED: BRANCH   1   2
DOCKED: ATOM      2  C   UNL     1      23.821 -18.571  -0.759 -0.81 -0.00    +0.000 C 
DOCKED: BRANCH   2   3
DOCKED: ATOM      3  C   UNL     1      22.619 -17.625  -0.820 -0.75 -0.00    +0.000 C 
DOCKED: BRANCH   3   6
DOCKED: ATOM      4  O   UNL     1      20.195 -20.446  -0.139 -1.23 -0.00    +0.000 OA
DOCKED: ATOM      5  N   UNL     1      21.347 -19.741  -0.227 -0.69 -0.00    +0.000 N 
DOCKED: ATOM      6  C   UNL     1      21.338 -18.395  -0.706 -0.83 -0.00    +0.000 C 
DOCKED: ATOM      7  O   UNL     1      20.255 -17.864  -1.070 -2.17 -0.00    +0.000 OA
DOCKED: ATOM      8  H   UNL     1      22.197 -20.159   0.041 -0.54 -0.00    +0.000 HD
DOCKED: ENDBRANCH   3   6
DOCKED: ENDBRANCH   2   3
DOCKED: ENDBRANCH   1   2
DOCKED: BRANCH   1   9
DOCKED: ATOM      9  C   UNL     1      24.946 -16.306  -1.182 -0.55 -0.00    +0.000 C 
DOCKED: BRANCH   9  10
DOCKED: ATOM     10  C   UNL     1      26.177 -15.489  -0.748 -0.41 -0.00    +0.000 C 
DOCKED: BRANCH  10  11
DOCKED: ATOM     11  C   UNL     1      27.095 -15.122  -1.921 -0.31 -0.00    +0.000 C 
DOCKED: BRANCH  11  12
DOCKED: ATOM     12  C   UNL     1      26.324 -15.115  -3.206 -0.48 -0.00    +0.000 C 
DOCKED: ATOM     13  N   UNL     1      26.915 -15.622  -4.404 -0.45 -0.00    +0.000 N 
DOCKED: ATOM     14  O   UNL     1      26.228 -15.601  -5.571 -1.19 +0.00    +0.000 OA
DOCKED: ATOM     15  O   UNL     1      25.165 -14.620  -3.236 -0.68 -0.00    +0.000 OA
DOCKED: ATOM     16  H   UNL     1      27.828 -15.990  -4.381 -0.02 -0.00    +0.000 HD
DOCKED: ENDBRANCH  11  12
DOCKED: ENDBRANCH  10  11
DOCKED: ENDBRANCH   9  10
DOCKED: ENDBRANCH   1   9
DOCKED: TORSDOF 7
DOCKED: TER
DOCKED: ENDMDL
________________________________________________________________________________


	BEGINNING GENETIC ALGORITHM DOCKING 62 of 100
Run: 62 Seed: 1245961803 814871376 [ Run 62 of 100 GA/GALS ]
Beginning LAMARCKIAN GENETIC ALGORITHM (LGA), with a maximum of 2500000 energy evaluations.

Final-Value: -12.374


	FINAL GENETIC ALGORITHM DOCKED STATE
	_______________________________________________


Detailed state:  trans 25.313 -16.592 -2.080 quatxyzw -0.310309 -0.230774 0.372766 -0.843503 center 0.010 0.634 0.018 ntor 7 132.7425 160.9992 87.3526 -28.9229 -55.2147 165.5482 -62.3118
State:	 25.313 -16.592  -2.080  -0.578 -0.430  0.694 -64.976    132.74  161.00   87.35  -28.92  -55.21  165.55  -62.31

DOCKED: MODEL       62
DOCKED: USER    Run = 62
DOCKED: USER    DPF = ligand_dock.biased.dpf
DOCKED: USER  
DOCKED: USER    Estimated Free Energy of Binding    =   -9.63 kcal/mol  [=(1)+(2)+(3)-(4)]
DOCKED: USER    Estimated Inhibition Constant, Ki   =   87.95 nM (nanomolar)  [Temperature = 298.15 K]
DOCKED: USER    
DOCKED: USER    (1) Final Intermolecular Energy     =  -11.71 kcal/mol
DOCKED: USER        vdW + Hbond + desolv Energy     =  -11.71 kcal/mol
DOCKED: USER        Electrostatic Energy            =   +0.00 kcal/mol
DOCKED: USER    (2) Final Total Internal Energy     =   -0.66 kcal/mol
DOCKED: USER    (3) Torsional Free Energy           =   +2.09 kcal/mol
DOCKED: USER    (4) Unbound System's Energy  [=(2)] =   -0.66 kcal/mol
DOCKED: USER    
DOCKED: USER    
DOCKED: USER    NEWDPF move ligand.pdbqt
DOCKED: USER    NEWDPF about 0.010000 0.634000 0.018000
DOCKED: USER    NEWDPF tran0 25.313207 -16.592321 -2.079717
DOCKED: USER    NEWDPF quaternion0 -0.310309 -0.230774 0.372766 -0.843503
DOCKED: USER    NEWDPF axisangle0 -0.577722 -0.429647 0.694003 -64.976188
DOCKED: USER    NEWDPF quat0 -0.577722 -0.429647 0.694003 -64.976188
DOCKED: USER    NEWDPF dihe0 132.74 161.00 87.35 -28.92 -55.21 165.55 -62.31 
DOCKED: USER  keepresnum = 1 
DOCKED: USER  
DOCKED: REMARK  Name = 
DOCKED: REMARK  7 active torsions:
DOCKED: REMARK  status: ('A' for Active; 'I' for Inactive)
DOCKED: REMARK    1  A    between atoms: C_3  and  C_4
DOCKED: REMARK    2  A    between atoms: C_4  and  C_5
DOCKED: REMARK    3  A    between atoms: C_5  and  C_6
DOCKED: REMARK    4  A    between atoms: C_6  and  C_7
DOCKED: REMARK    5  A    between atoms: C_7  and  C_8
DOCKED: REMARK    6  A    between atoms: C_8  and  C_9
DOCKED: REMARK    7  A    between atoms: C_9  and  C_10
DOCKED: REMARK                            x       y       z     vdW  Elec       q    Type
DOCKED: REMARK                         _______ _______ _______ _____ _____    ______ ____
DOCKED: USER                              x       y       z     vdW  Elec       q    Type
DOCKED: USER                           _______ _______ _______ _____ _____    ______ ____
DOCKED: ROOT
DOCKED: ATOM      1  C   UNL     1      26.361 -17.177  -0.226 -0.53 -0.00    +0.000 C 
DOCKED: ENDROOT
DOCKED: BRANCH   1   2
DOCKED: ATOM      2  C   UNL     1      27.132 -16.744  -1.482 -0.44 -0.00    +0.000 C 
DOCKED: BRANCH   2   3
DOCKED: ATOM      3  C   UNL     1      26.950 -15.247  -1.747 -0.34 -0.00    +0.000 C 
DOCKED: BRANCH   3   6
DOCKED: ATOM      4  O   UNL     1      24.771 -13.742  -4.447 -1.02 -0.00    +0.000 OA
DOCKED: ATOM      5  N   UNL     1      25.829 -13.967  -3.633 -0.42 -0.00    +0.000 N 
DOCKED: ATOM      6  C   UNL     1      25.784 -15.013  -2.661 -0.48 -0.00    +0.000 C 
DOCKED: ATOM      7  O   UNL     1      24.747 -15.719  -2.542 -0.55 -0.00    +0.000 OA
DOCKED: ATOM      8  H   UNL     1      26.634 -13.406  -3.710 -0.00 -0.00    +0.000 HD
DOCKED: ENDBRANCH   3   6
DOCKED: ENDBRANCH   2   3
DOCKED: ENDBRANCH   1   2
DOCKED: BRANCH   1   9
DOCKED: ATOM      9  C   UNL     1      25.519 -18.447  -0.446 -0.64 -0.00    +0.000 C 
DOCKED: BRANCH   9  10
DOCKED: ATOM     10  C   UNL     1      24.019 -18.296  -0.131 -0.72 -0.00    +0.000 C 
DOCKED: BRANCH  10  11
DOCKED: ATOM     11  C   UNL     1      23.151 -18.187  -1.391 -0.74 -0.00    +0.000 C 
DOCKED: BRANCH  11  12
DOCKED: ATOM     12  C   UNL     1      21.733 -18.561  -1.082 -0.79 -0.00    +0.000 C 
DOCKED: ATOM     13  N   UNL     1      21.155 -19.734  -1.657 -0.63 -0.00    +0.000 N 
DOCKED: ATOM     14  O   UNL     1      19.869 -20.066  -1.395 -2.02 -0.00    +0.000 OA
DOCKED: ATOM     15  O   UNL     1      21.036 -17.813  -0.344 -1.82 +0.00    +0.000 OA
DOCKED: ATOM     16  H   UNL     1      21.696 -20.306  -2.249 -0.56 -0.00    +0.000 HD
DOCKED: ENDBRANCH  11  12
DOCKED: ENDBRANCH  10  11
DOCKED: ENDBRANCH   9  10
DOCKED: ENDBRANCH   1   9
DOCKED: TORSDOF 7
DOCKED: TER
DOCKED: ENDMDL
________________________________________________________________________________


	BEGINNING GENETIC ALGORITHM DOCKING 63 of 100
Run: 63 Seed: 700134920 1726504335 [ Run 63 of 100 GA/GALS ]
Beginning LAMARCKIAN GENETIC ALGORITHM (LGA), with a maximum of 2500000 energy evaluations.

Final-Value: -13.113


	FINAL GENETIC ALGORITHM DOCKED STATE
	_______________________________________________


Detailed state:  trans 27.462 -17.029 -0.437 quatxyzw -0.756875 -0.405167 0.315448 0.404317 center 0.010 0.634 0.018 ntor 7 -167.5266 46.4440 150.1617 3.2105 41.9303 -177.0743 -159.9412
State:	 27.462 -17.029  -0.437  -0.828 -0.443  0.345 132.303   -167.53   46.44  150.16    3.21   41.93 -177.07 -159.94

DOCKED: MODEL       63
DOCKED: USER    Run = 63
DOCKED: USER    DPF = ligand_dock.biased.dpf
DOCKED: USER  
DOCKED: USER    Estimated Free Energy of Binding    =  -10.50 kcal/mol  [=(1)+(2)+(3)-(4)]
DOCKED: USER    Estimated Inhibition Constant, Ki   =   20.22 nM (nanomolar)  [Temperature = 298.15 K]
DOCKED: USER    
DOCKED: USER    (1) Final Intermolecular Energy     =  -12.58 kcal/mol
DOCKED: USER        vdW + Hbond + desolv Energy     =  -12.58 kcal/mol
DOCKED: USER        Electrostatic Energy            =   +0.00 kcal/mol
DOCKED: USER    (2) Final Total Internal Energy     =   -0.53 kcal/mol
DOCKED: USER    (3) Torsional Free Energy           =   +2.09 kcal/mol
DOCKED: USER    (4) Unbound System's Energy  [=(2)] =   -0.53 kcal/mol
DOCKED: USER    
DOCKED: USER    
DOCKED: USER    NEWDPF move ligand.pdbqt
DOCKED: USER    NEWDPF about 0.010000 0.634000 0.018000
DOCKED: USER    NEWDPF tran0 27.461772 -17.029261 -0.437086
DOCKED: USER    NEWDPF quaternion0 -0.756875 -0.405167 0.315448 0.404317
DOCKED: USER    NEWDPF axisangle0 -0.827531 -0.442990 0.344896 132.303283
DOCKED: USER    NEWDPF quat0 -0.827531 -0.442990 0.344896 132.303283
DOCKED: USER    NEWDPF dihe0 -167.53 46.44 150.16 3.21 41.93 -177.07 -159.94 
DOCKED: USER  keepresnum = 1 
DOCKED: USER  
DOCKED: REMARK  Name = 
DOCKED: REMARK  7 active torsions:
DOCKED: REMARK  status: ('A' for Active; 'I' for Inactive)
DOCKED: REMARK    1  A    between atoms: C_3  and  C_4
DOCKED: REMARK    2  A    between atoms: C_4  and  C_5
DOCKED: REMARK    3  A    between atoms: C_5  and  C_6
DOCKED: REMARK    4  A    between atoms: C_6  and  C_7
DOCKED: REMARK    5  A    between atoms: C_7  and  C_8
DOCKED: REMARK    6  A    between atoms: C_8  and  C_9
DOCKED: REMARK    7  A    between atoms: C_9  and  C_10
DOCKED: REMARK                            x       y       z     vdW  Elec       q    Type
DOCKED: REMARK                         _______ _______ _______ _____ _____    ______ ____
DOCKED: USER                              x       y       z     vdW  Elec       q    Type
DOCKED: USER                           _______ _______ _______ _____ _____    ______ ____
DOCKED: ROOT
DOCKED: ATOM      1  C   UNL     1      25.794 -16.514  -1.790 -0.56 -0.00    +0.000 C 
DOCKED: ENDROOT
DOCKED: BRANCH   1   2
DOCKED: ATOM      2  C   UNL     1      26.897 -15.499  -1.450 -0.36 -0.00    +0.000 C 
DOCKED: BRANCH   2   3
DOCKED: ATOM      3  C   UNL     1      26.841 -14.293  -2.392 -0.29 -0.00    +0.000 C 
DOCKED: BRANCH   3   6
DOCKED: ATOM      4  O   UNL     1      26.637 -15.607  -5.932 -1.02 +0.00    +0.000 OA
DOCKED: ATOM      5  N   UNL     1      27.134 -15.261  -4.721 -0.46 -0.00    +0.000 N 
DOCKED: ATOM      6  C   UNL     1      26.283 -14.693  -3.724 -0.49 -0.00    +0.000 C 
DOCKED: ATOM      7  O   UNL     1      25.064 -14.491  -3.977 -0.99 -0.00    +0.000 OA
DOCKED: ATOM      8  H   UNL     1      28.088 -15.401  -4.526 -0.01 -0.00    +0.000 HD
DOCKED: ENDBRANCH   3   6
DOCKED: ENDBRANCH   2   3
DOCKED: ENDBRANCH   1   2
DOCKED: BRANCH   1   9
DOCKED: ATOM      9  C   UNL     1      24.986 -16.957  -0.558 -0.53 -0.00    +0.000 C 
DOCKED: BRANCH   9  10
DOCKED: ATOM     10  C   UNL     1      23.467 -17.076  -0.784 -0.68 -0.00    +0.000 C 
DOCKED: BRANCH  10  11
DOCKED: ATOM     11  C   UNL     1      22.927 -18.482  -0.493 -0.83 -0.00    +0.000 C 
DOCKED: BRANCH  11  12
DOCKED: ATOM     12  C   UNL     1      21.513 -18.608  -0.973 -0.82 -0.00    +0.000 C 
DOCKED: ATOM     13  N   UNL     1      21.117 -19.733  -1.760 -0.63 -0.00    +0.000 N 
DOCKED: ATOM     14  O   UNL     1      19.845 -19.843  -2.210 -2.22 -0.00    +0.000 OA
DOCKED: ATOM     15  O   UNL     1      20.682 -17.697  -0.715 -2.22 +0.00    +0.000 OA
DOCKED: ATOM     16  H   UNL     1      21.773 -20.434  -1.976 -0.47 -0.00    +0.000 HD
DOCKED: ENDBRANCH  11  12
DOCKED: ENDBRANCH  10  11
DOCKED: ENDBRANCH   9  10
DOCKED: ENDBRANCH   1   9
DOCKED: TORSDOF 7
DOCKED: TER
DOCKED: ENDMDL
________________________________________________________________________________


	BEGINNING GENETIC ALGORITHM DOCKING 64 of 100
Run: 64 Seed: 1018625364 321855008 [ Run 64 of 100 GA/GALS ]
Beginning LAMARCKIAN GENETIC ALGORITHM (LGA), with a maximum of 2500000 energy evaluations.

Final-Value: -12.759


	FINAL GENETIC ALGORITHM DOCKED STATE
	_______________________________________________


Detailed state:  trans 23.613 -15.718 -1.648 quatxyzw 0.275332 -0.956801 -0.007731 0.093081 center 0.010 0.634 0.018 ntor 7 101.1771 -175.0060 48.2658 -144.2452 51.4806 -54.2533 23.1296
State:	 23.613 -15.718  -1.648   0.277 -0.961 -0.008 169.318    101.18 -175.01   48.27 -144.25   51.48  -54.25   23.13

DOCKED: MODEL       64
DOCKED: USER    Run = 64
DOCKED: USER    DPF = ligand_dock.biased.dpf
DOCKED: USER  
DOCKED: USER    Estimated Free Energy of Binding    =  -10.06 kcal/mol  [=(1)+(2)+(3)-(4)]
DOCKED: USER    Estimated Inhibition Constant, Ki   =   42.09 nM (nanomolar)  [Temperature = 298.15 K]
DOCKED: USER    
DOCKED: USER    (1) Final Intermolecular Energy     =  -12.15 kcal/mol
DOCKED: USER        vdW + Hbond + desolv Energy     =  -12.15 kcal/mol
DOCKED: USER        Electrostatic Energy            =   +0.00 kcal/mol
DOCKED: USER    (2) Final Total Internal Energy     =   -0.61 kcal/mol
DOCKED: USER    (3) Torsional Free Energy           =   +2.09 kcal/mol
DOCKED: USER    (4) Unbound System's Energy  [=(2)] =   -0.61 kcal/mol
DOCKED: USER    
DOCKED: USER    
DOCKED: USER    NEWDPF move ligand.pdbqt
DOCKED: USER    NEWDPF about 0.010000 0.634000 0.018000
DOCKED: USER    NEWDPF tran0 23.612541 -15.717908 -1.647718
DOCKED: USER    NEWDPF quaternion0 0.275332 -0.956801 -0.007731 0.093081
DOCKED: USER    NEWDPF axisangle0 0.276533 -0.960973 -0.007765 169.318269
DOCKED: USER    NEWDPF quat0 0.276533 -0.960973 -0.007765 169.318269
DOCKED: USER    NEWDPF dihe0 101.18 -175.01 48.27 -144.25 51.48 -54.25 23.13 
DOCKED: USER  keepresnum = 1 
DOCKED: USER  
DOCKED: REMARK  Name = 
DOCKED: REMARK  7 active torsions:
DOCKED: REMARK  status: ('A' for Active; 'I' for Inactive)
DOCKED: REMARK    1  A    between atoms: C_3  and  C_4
DOCKED: REMARK    2  A    between atoms: C_4  and  C_5
DOCKED: REMARK    3  A    between atoms: C_5  and  C_6
DOCKED: REMARK    4  A    between atoms: C_6  and  C_7
DOCKED: REMARK    5  A    between atoms: C_7  and  C_8
DOCKED: REMARK    6  A    between atoms: C_8  and  C_9
DOCKED: REMARK    7  A    between atoms: C_9  and  C_10
DOCKED: REMARK                            x       y       z     vdW  Elec       q    Type
DOCKED: REMARK                         _______ _______ _______ _____ _____    ______ ____
DOCKED: USER                              x       y       z     vdW  Elec       q    Type
DOCKED: USER                           _______ _______ _______ _____ _____    ______ ____
DOCKED: ROOT
DOCKED: ATOM      1  C   UNL     1      24.400 -17.732  -2.096 -0.51 -0.00    +0.000 C 
DOCKED: ENDROOT
DOCKED: BRANCH   1   2
DOCKED: ATOM      2  C   UNL     1      23.297 -17.514  -1.048 -0.74 -0.00    +0.000 C 
DOCKED: BRANCH   2   3
DOCKED: ATOM      3  C   UNL     1      22.813 -18.850  -0.476 -0.81 -0.00    +0.000 C 
DOCKED: BRANCH   3   6
DOCKED: ATOM      4  O   UNL     1      19.285 -20.114   0.030 -1.15 -0.00    +0.000 OA
DOCKED: ATOM      5  N   UNL     1      20.636 -20.038   0.070 -0.72 -0.00    +0.000 N 
DOCKED: ATOM      6  C   UNL     1      21.315 -18.921  -0.505 -0.86 -0.00    +0.000 C 
DOCKED: ATOM      7  O   UNL     1      20.657 -18.008  -1.072 -2.18 -0.00    +0.000 OA
DOCKED: ATOM      8  H   UNL     1      21.154 -20.758   0.497 -0.53 -0.00    +0.000 HD
DOCKED: ENDBRANCH   3   6
DOCKED: ENDBRANCH   2   3
DOCKED: ENDBRANCH   1   2
DOCKED: BRANCH   1   9
DOCKED: ATOM      9  C   UNL     1      25.718 -17.025  -1.736 -0.58 -0.00    +0.000 C 
DOCKED: BRANCH   9  10
DOCKED: ATOM     10  C   UNL     1      25.557 -15.638  -1.088 -0.47 -0.00    +0.000 C 
DOCKED: BRANCH  10  11
DOCKED: ATOM     11  C   UNL     1      26.128 -14.504  -1.950 -0.35 -0.00    +0.000 C 
DOCKED: BRANCH  11  12
DOCKED: ATOM     12  C   UNL     1      25.745 -14.697  -3.386 -0.52 -0.00    +0.000 C 
DOCKED: ATOM     13  N   UNL     1      26.585 -15.454  -4.260 -0.49 -0.00    +0.000 N 
DOCKED: ATOM     14  O   UNL     1      26.252 -15.616  -5.563 -1.20 +0.00    +0.000 OA
DOCKED: ATOM     15  O   UNL     1      24.699 -14.154  -3.832 -1.04 -0.00    +0.000 OA
DOCKED: ATOM     16  H   UNL     1      27.412 -15.860  -3.914 -0.02 -0.00    +0.000 HD
DOCKED: ENDBRANCH  11  12
DOCKED: ENDBRANCH  10  11
DOCKED: ENDBRANCH   9  10
DOCKED: ENDBRANCH   1   9
DOCKED: TORSDOF 7
DOCKED: TER
DOCKED: ENDMDL
________________________________________________________________________________


	BEGINNING GENETIC ALGORITHM DOCKING 65 of 100
Run: 65 Seed: 2049906725 1878480820 [ Run 65 of 100 GA/GALS ]
Beginning LAMARCKIAN GENETIC ALGORITHM (LGA), with a maximum of 2500000 energy evaluations.

Final-Value: -13.003


	FINAL GENETIC ALGORITHM DOCKED STATE
	_______________________________________________


Detailed state:  trans 27.424 -16.998 -0.518 quatxyzw -0.696228 -0.489833 0.334316 0.404429 center 0.010 0.634 0.018 ntor 7 -120.2060 151.5393 132.4440 56.3002 52.4445 24.5309 -111.8377
State:	 27.424 -16.998  -0.518  -0.761 -0.536  0.366 132.289   -120.21  151.54  132.44   56.30   52.44   24.53 -111.84

DOCKED: MODEL       65
DOCKED: USER    Run = 65
DOCKED: USER    DPF = ligand_dock.biased.dpf
DOCKED: USER  
DOCKED: USER    Estimated Free Energy of Binding    =  -10.30 kcal/mol  [=(1)+(2)+(3)-(4)]
DOCKED: USER    Estimated Inhibition Constant, Ki   =   28.12 nM (nanomolar)  [Temperature = 298.15 K]
DOCKED: USER    
DOCKED: USER    (1) Final Intermolecular Energy     =  -12.39 kcal/mol
DOCKED: USER        vdW + Hbond + desolv Energy     =  -12.39 kcal/mol
DOCKED: USER        Electrostatic Energy            =   +0.00 kcal/mol
DOCKED: USER    (2) Final Total Internal Energy     =   -0.61 kcal/mol
DOCKED: USER    (3) Torsional Free Energy           =   +2.09 kcal/mol
DOCKED: USER    (4) Unbound System's Energy  [=(2)] =   -0.61 kcal/mol
DOCKED: USER    
DOCKED: USER    
DOCKED: USER    NEWDPF move ligand.pdbqt
DOCKED: USER    NEWDPF about 0.010000 0.634000 0.018000
DOCKED: USER    NEWDPF tran0 27.424323 -16.998471 -0.518430
DOCKED: USER    NEWDPF quaternion0 -0.696228 -0.489833 0.334316 0.404429
DOCKED: USER    NEWDPF axisangle0 -0.761264 -0.535588 0.365544 132.289262
DOCKED: USER    NEWDPF quat0 -0.761264 -0.535588 0.365544 132.289262
DOCKED: USER    NEWDPF dihe0 -120.21 151.54 132.44 56.30 52.44 24.53 -111.84 
DOCKED: USER  keepresnum = 1 
DOCKED: USER  
DOCKED: REMARK  Name = 
DOCKED: REMARK  7 active torsions:
DOCKED: REMARK  status: ('A' for Active; 'I' for Inactive)
DOCKED: REMARK    1  A    between atoms: C_3  and  C_4
DOCKED: REMARK    2  A    between atoms: C_4  and  C_5
DOCKED: REMARK    3  A    between atoms: C_5  and  C_6
DOCKED: REMARK    4  A    between atoms: C_6  and  C_7
DOCKED: REMARK    5  A    between atoms: C_7  and  C_8
DOCKED: REMARK    6  A    between atoms: C_8  and  C_9
DOCKED: REMARK    7  A    between atoms: C_9  and  C_10
DOCKED: REMARK                            x       y       z     vdW  Elec       q    Type
DOCKED: REMARK                         _______ _______ _______ _____ _____    ______ ____
DOCKED: USER                              x       y       z     vdW  Elec       q    Type
DOCKED: USER                           _______ _______ _______ _____ _____    ______ ____
DOCKED: ROOT
DOCKED: ATOM      1  C   UNL     1      25.530 -16.787  -1.633 -0.59 -0.00    +0.000 C 
DOCKED: ENDROOT
DOCKED: BRANCH   1   2
DOCKED: ATOM      2  C   UNL     1      26.489 -15.601  -1.446 -0.41 -0.00    +0.000 C 
DOCKED: BRANCH   2   3
DOCKED: ATOM      3  C   UNL     1      25.969 -14.356  -2.170 -0.31 -0.00    +0.000 C 
DOCKED: BRANCH   3   6
DOCKED: ATOM      4  O   UNL     1      25.865 -15.976  -5.585 -1.12 +0.00    +0.000 OA
DOCKED: ATOM      5  N   UNL     1      26.248 -15.673  -4.323 -0.52 -0.00    +0.000 N 
DOCKED: ATOM      6  C   UNL     1      25.529 -14.703  -3.560 -0.55 -0.00    +0.000 C 
DOCKED: ATOM      7  O   UNL     1      24.542 -14.107  -4.070 -1.13 -0.00    +0.000 OA
DOCKED: ATOM      8  H   UNL     1      27.029 -16.124  -3.928 -0.02 -0.00    +0.000 HD
DOCKED: ENDBRANCH   3   6
DOCKED: ENDBRANCH   2   3
DOCKED: ENDBRANCH   1   2
DOCKED: BRANCH   1   9
DOCKED: ATOM      9  C   UNL     1      24.976 -17.327  -0.303 -0.55 -0.00    +0.000 C 
DOCKED: BRANCH   9  10
DOCKED: ATOM     10  C   UNL     1      24.139 -18.615  -0.421 -0.73 -0.00    +0.000 C 
DOCKED: BRANCH  10  11
DOCKED: ATOM     11  C   UNL     1      23.275 -18.652  -1.688 -0.66 -0.00    +0.000 C 
DOCKED: BRANCH  11  12
DOCKED: ATOM     12  C   UNL     1      21.820 -18.667  -1.328 -0.59 -0.00    +0.000 C 
DOCKED: ATOM     13  N   UNL     1      20.974 -19.722  -1.789 -0.70 -0.00    +0.000 N 
DOCKED: ATOM     14  O   UNL     1      19.655 -19.729  -1.481 -2.16 -0.00    +0.000 OA
DOCKED: ATOM     15  O   UNL     1      21.335 -17.721  -0.650 -1.81 -0.00    +0.000 OA
DOCKED: ATOM     16  H   UNL     1      21.351 -20.448  -2.335 -0.53 -0.00    +0.000 HD
DOCKED: ENDBRANCH  11  12
DOCKED: ENDBRANCH  10  11
DOCKED: ENDBRANCH   9  10
DOCKED: ENDBRANCH   1   9
DOCKED: TORSDOF 7
DOCKED: TER
DOCKED: ENDMDL
________________________________________________________________________________


	BEGINNING GENETIC ALGORITHM DOCKING 66 of 100
Run: 66 Seed: 1341654516 124754198 [ Run 66 of 100 GA/GALS ]
Beginning LAMARCKIAN GENETIC ALGORITHM (LGA), with a maximum of 2500000 energy evaluations.

Final-Value: -12.607


	FINAL GENETIC ALGORITHM DOCKED STATE
	_______________________________________________


Detailed state:  trans 26.281 -16.478 -3.083 quatxyzw -0.603972 -0.495978 0.371695 -0.501066 center 0.010 0.634 0.018 ntor 7 -103.4042 6.9353 -112.2453 -29.1671 -124.1496 -83.8967 -81.7576
State:	 26.281 -16.478  -3.083  -0.698 -0.573  0.430 -119.859   -103.40    6.94 -112.25  -29.17 -124.15  -83.90  -81.76

DOCKED: MODEL       66
DOCKED: USER    Run = 66
DOCKED: USER    DPF = ligand_dock.biased.dpf
DOCKED: USER  
DOCKED: USER    Estimated Free Energy of Binding    =  -10.20 kcal/mol  [=(1)+(2)+(3)-(4)]
DOCKED: USER    Estimated Inhibition Constant, Ki   =   33.55 nM (nanomolar)  [Temperature = 298.15 K]
DOCKED: USER    
DOCKED: USER    (1) Final Intermolecular Energy     =  -12.28 kcal/mol
DOCKED: USER        vdW + Hbond + desolv Energy     =  -12.28 kcal/mol
DOCKED: USER        Electrostatic Energy            =   +0.00 kcal/mol
DOCKED: USER    (2) Final Total Internal Energy     =   -0.32 kcal/mol
DOCKED: USER    (3) Torsional Free Energy           =   +2.09 kcal/mol
DOCKED: USER    (4) Unbound System's Energy  [=(2)] =   -0.32 kcal/mol
DOCKED: USER    
DOCKED: USER    
DOCKED: USER    NEWDPF move ligand.pdbqt
DOCKED: USER    NEWDPF about 0.010000 0.634000 0.018000
DOCKED: USER    NEWDPF tran0 26.281007 -16.478254 -3.083381
DOCKED: USER    NEWDPF quaternion0 -0.603972 -0.495978 0.371695 -0.501066
DOCKED: USER    NEWDPF axisangle0 -0.697903 -0.573114 0.429501 -119.858957
DOCKED: USER    NEWDPF quat0 -0.697903 -0.573114 0.429501 -119.858957
DOCKED: USER    NEWDPF dihe0 -103.40 6.94 -112.25 -29.17 -124.15 -83.90 -81.76 
DOCKED: USER  keepresnum = 1 
DOCKED: USER  
DOCKED: REMARK  Name = 
DOCKED: REMARK  7 active torsions:
DOCKED: REMARK  status: ('A' for Active; 'I' for Inactive)
DOCKED: REMARK    1  A    between atoms: C_3  and  C_4
DOCKED: REMARK    2  A    between atoms: C_4  and  C_5
DOCKED: REMARK    3  A    between atoms: C_5  and  C_6
DOCKED: REMARK    4  A    between atoms: C_6  and  C_7
DOCKED: REMARK    5  A    between atoms: C_7  and  C_8
DOCKED: REMARK    6  A    between atoms: C_8  and  C_9
DOCKED: REMARK    7  A    between atoms: C_9  and  C_10
DOCKED: REMARK                            x       y       z     vdW  Elec       q    Type
DOCKED: REMARK                         _______ _______ _______ _____ _____    ______ ____
DOCKED: USER                              x       y       z     vdW  Elec       q    Type
DOCKED: USER                           _______ _______ _______ _____ _____    ______ ____
DOCKED: ROOT
DOCKED: ATOM      1  C   UNL     1      25.496 -15.889  -1.105 -0.50 -0.00    +0.000 C 
DOCKED: ENDROOT
DOCKED: BRANCH   1   2
DOCKED: ATOM      2  C   UNL     1      26.944 -15.585  -1.519 -0.36 -0.00    +0.000 C 
DOCKED: BRANCH   2   3
DOCKED: ATOM      3  C   UNL     1      27.223 -16.076  -2.942 -0.30 -0.00    +0.000 C 
DOCKED: BRANCH   3   6
DOCKED: ATOM      4  O   UNL     1      24.619 -13.771  -4.427 -1.04 -0.00    +0.000 OA
DOCKED: ATOM      5  N   UNL     1      25.322 -14.498  -3.526 -0.52 -0.00    +0.000 N 
DOCKED: ATOM      6  C   UNL     1      26.459 -15.257  -3.939 -0.53 -0.00    +0.000 C 
DOCKED: ATOM      7  O   UNL     1      26.802 -15.271  -5.152 -1.00 +0.00    +0.000 OA
DOCKED: ATOM      8  H   UNL     1      25.047 -14.503  -2.581 -0.03 -0.00    +0.000 HD
DOCKED: ENDBRANCH   3   6
DOCKED: ENDBRANCH   2   3
DOCKED: ENDBRANCH   1   2
DOCKED: BRANCH   1   9
DOCKED: ATOM      9  C   UNL     1      25.190 -17.396  -1.055 -0.67 -0.00    +0.000 C 
DOCKED: BRANCH   9  10
DOCKED: ATOM     10  C   UNL     1      23.777 -17.790  -1.525 -0.70 -0.00    +0.000 C 
DOCKED: BRANCH  10  11
DOCKED: ATOM     11  C   UNL     1      23.198 -18.979  -0.748 -0.81 -0.00    +0.000 C 
DOCKED: BRANCH  11  12
DOCKED: ATOM     12  C   UNL     1      21.703 -18.992  -0.850 -0.85 -0.00    +0.000 C 
DOCKED: ATOM     13  N   UNL     1      21.057 -19.736  -1.885 -0.60 -0.00    +0.000 N 
DOCKED: ATOM     14  O   UNL     1      19.707 -19.736  -1.991 -2.21 -0.00    +0.000 OA
DOCKED: ATOM     15  O   UNL     1      21.015 -18.309  -0.043 -1.56 -0.00    +0.000 OA
DOCKED: ATOM     16  H   UNL     1      21.597 -20.253  -2.525 -0.60 -0.00    +0.000 HD
DOCKED: ENDBRANCH  11  12
DOCKED: ENDBRANCH  10  11
DOCKED: ENDBRANCH   9  10
DOCKED: ENDBRANCH   1   9
DOCKED: TORSDOF 7
DOCKED: TER
DOCKED: ENDMDL
________________________________________________________________________________


	BEGINNING GENETIC ALGORITHM DOCKING 67 of 100
Run: 67 Seed: 1626393536 216059587 [ Run 67 of 100 GA/GALS ]
Beginning LAMARCKIAN GENETIC ALGORITHM (LGA), with a maximum of 2500000 energy evaluations.

Final-Value: -12.643


	FINAL GENETIC ALGORITHM DOCKED STATE
	_______________________________________________


Detailed state:  trans 25.138 -18.002 -2.808 quatxyzw -0.532503 0.365427 -0.674760 -0.357216 center 0.010 0.634 0.018 ntor 7 1.8281 138.6762 -29.8562 -103.4066 59.1137 177.5644 -34.6278
State:	 25.138 -18.002  -2.808  -0.570  0.391 -0.722 -138.141      1.83  138.68  -29.86 -103.41   59.11  177.56  -34.63

DOCKED: MODEL       67
DOCKED: USER    Run = 67
DOCKED: USER    DPF = ligand_dock.biased.dpf
DOCKED: USER  
DOCKED: USER    Estimated Free Energy of Binding    =  -10.05 kcal/mol  [=(1)+(2)+(3)-(4)]
DOCKED: USER    Estimated Inhibition Constant, Ki   =   42.96 nM (nanomolar)  [Temperature = 298.15 K]
DOCKED: USER    
DOCKED: USER    (1) Final Intermolecular Energy     =  -12.14 kcal/mol
DOCKED: USER        vdW + Hbond + desolv Energy     =  -12.14 kcal/mol
DOCKED: USER        Electrostatic Energy            =   +0.00 kcal/mol
DOCKED: USER    (2) Final Total Internal Energy     =   -0.50 kcal/mol
DOCKED: USER    (3) Torsional Free Energy           =   +2.09 kcal/mol
DOCKED: USER    (4) Unbound System's Energy  [=(2)] =   -0.50 kcal/mol
DOCKED: USER    
DOCKED: USER    
DOCKED: USER    NEWDPF move ligand.pdbqt
DOCKED: USER    NEWDPF about 0.010000 0.634000 0.018000
DOCKED: USER    NEWDPF tran0 25.137554 -18.001689 -2.807621
DOCKED: USER    NEWDPF quaternion0 -0.532503 0.365427 -0.674760 -0.357216
DOCKED: USER    NEWDPF axisangle0 -0.570118 0.391241 -0.722424 -138.141345
DOCKED: USER    NEWDPF quat0 -0.570118 0.391241 -0.722424 -138.141345
DOCKED: USER    NEWDPF dihe0 1.83 138.68 -29.86 -103.41 59.11 177.56 -34.63 
DOCKED: USER  keepresnum = 1 
DOCKED: USER  
DOCKED: REMARK  Name = 
DOCKED: REMARK  7 active torsions:
DOCKED: REMARK  status: ('A' for Active; 'I' for Inactive)
DOCKED: REMARK    1  A    between atoms: C_3  and  C_4
DOCKED: REMARK    2  A    between atoms: C_4  and  C_5
DOCKED: REMARK    3  A    between atoms: C_5  and  C_6
DOCKED: REMARK    4  A    between atoms: C_6  and  C_7
DOCKED: REMARK    5  A    between atoms: C_7  and  C_8
DOCKED: REMARK    6  A    between atoms: C_8  and  C_9
DOCKED: REMARK    7  A    between atoms: C_9  and  C_10
DOCKED: REMARK                            x       y       z     vdW  Elec       q    Type
DOCKED: REMARK                         _______ _______ _______ _____ _____    ______ ____
DOCKED: USER                              x       y       z     vdW  Elec       q    Type
DOCKED: USER                           _______ _______ _______ _____ _____    ______ ____
DOCKED: ROOT
DOCKED: ATOM      1  C   UNL     1      25.290 -17.468  -0.670 -0.67 -0.00    +0.000 C 
DOCKED: ENDROOT
DOCKED: BRANCH   1   2
DOCKED: ATOM      2  C   UNL     1      24.067 -18.213  -1.228 -0.77 -0.00    +0.000 C 
DOCKED: BRANCH   2   3
DOCKED: ATOM      3  C   UNL     1      23.002 -18.406  -0.144 -0.78 -0.00    +0.000 C 
DOCKED: BRANCH   3   6
DOCKED: ATOM      4  O   UNL     1      19.890 -19.734  -1.833 -2.40 -0.00    +0.000 OA
DOCKED: ATOM      5  N   UNL     1      21.118 -19.687  -1.264 -0.73 -0.00    +0.000 N 
DOCKED: ATOM      6  C   UNL     1      21.634 -18.456  -0.756 -0.84 -0.00    +0.000 C 
DOCKED: ATOM      7  O   UNL     1      20.956 -17.399  -0.857 -1.96 -0.00    +0.000 OA
DOCKED: ATOM      8  H   UNL     1      21.658 -20.508  -1.200 -0.18 -0.00    +0.000 HD
DOCKED: ENDBRANCH   3   6
DOCKED: ENDBRANCH   2   3
DOCKED: ENDBRANCH   1   2
DOCKED: BRANCH   1   9
DOCKED: ATOM      9  C   UNL     1      25.476 -16.071  -1.288 -0.54 -0.00    +0.000 C 
DOCKED: BRANCH   9  10
DOCKED: ATOM     10  C   UNL     1      26.464 -16.007  -2.467 -0.46 -0.00    +0.000 C 
DOCKED: BRANCH  10  11
DOCKED: ATOM     11  C   UNL     1      25.795 -15.602  -3.788 -0.58 -0.00    +0.000 C 
DOCKED: BRANCH  11  12
DOCKED: ATOM     12  C   UNL     1      25.692 -14.110  -3.885 -0.51 -0.00    +0.000 C 
DOCKED: ATOM     13  N   UNL     1      24.485 -13.500  -4.345 -0.35 -0.00    +0.000 N 
DOCKED: ATOM     14  O   UNL     1      24.394 -12.153  -4.452 -0.48 -0.00    +0.000 OA
DOCKED: ATOM     15  O   UNL     1      26.690 -13.395  -3.599 -0.29 -0.00    +0.000 OA
DOCKED: ATOM     16  H   UNL     1      23.714 -14.062  -4.587 -0.60 -0.00    +0.000 HD
DOCKED: ENDBRANCH  11  12
DOCKED: ENDBRANCH  10  11
DOCKED: ENDBRANCH   9  10
DOCKED: ENDBRANCH   1   9
DOCKED: TORSDOF 7
DOCKED: TER
DOCKED: ENDMDL
________________________________________________________________________________


	BEGINNING GENETIC ALGORITHM DOCKING 68 of 100
Run: 68 Seed: 1370551797 1034155370 [ Run 68 of 100 GA/GALS ]
Beginning LAMARCKIAN GENETIC ALGORITHM (LGA), with a maximum of 2500000 energy evaluations.

Final-Value: -12.929


	FINAL GENETIC ALGORITHM DOCKED STATE
	_______________________________________________


Detailed state:  trans 24.008 -17.600 0.734 quatxyzw -0.290038 0.604661 0.741780 0.005030 center 0.010 0.634 0.018 ntor 7 -8.1694 -178.1582 -94.4726 153.5685 -74.6182 163.4179 127.0290
State:	 24.008 -17.600   0.734  -0.290  0.605  0.742 179.424     -8.17 -178.16  -94.47  153.57  -74.62  163.42  127.03

DOCKED: MODEL       68
DOCKED: USER    Run = 68
DOCKED: USER    DPF = ligand_dock.biased.dpf
DOCKED: USER  
DOCKED: USER    Estimated Free Energy of Binding    =  -10.19 kcal/mol  [=(1)+(2)+(3)-(4)]
DOCKED: USER    Estimated Inhibition Constant, Ki   =   33.99 nM (nanomolar)  [Temperature = 298.15 K]
DOCKED: USER    
DOCKED: USER    (1) Final Intermolecular Energy     =  -12.28 kcal/mol
DOCKED: USER        vdW + Hbond + desolv Energy     =  -12.28 kcal/mol
DOCKED: USER        Electrostatic Energy            =   +0.00 kcal/mol
DOCKED: USER    (2) Final Total Internal Energy     =   -0.65 kcal/mol
DOCKED: USER    (3) Torsional Free Energy           =   +2.09 kcal/mol
DOCKED: USER    (4) Unbound System's Energy  [=(2)] =   -0.65 kcal/mol
DOCKED: USER    
DOCKED: USER    
DOCKED: USER    NEWDPF move ligand.pdbqt
DOCKED: USER    NEWDPF about 0.010000 0.634000 0.018000
DOCKED: USER    NEWDPF tran0 24.007979 -17.599794 0.733963
DOCKED: USER    NEWDPF quaternion0 -0.290038 0.604661 0.741780 0.005030
DOCKED: USER    NEWDPF axisangle0 -0.290042 0.604668 0.741790 179.423566
DOCKED: USER    NEWDPF quat0 -0.290042 0.604668 0.741790 179.423566
DOCKED: USER    NEWDPF dihe0 -8.17 -178.16 -94.47 153.57 -74.62 163.42 127.03 
DOCKED: USER  keepresnum = 1 
DOCKED: USER  
DOCKED: REMARK  Name = 
DOCKED: REMARK  7 active torsions:
DOCKED: REMARK  status: ('A' for Active; 'I' for Inactive)
DOCKED: REMARK    1  A    between atoms: C_3  and  C_4
DOCKED: REMARK    2  A    between atoms: C_4  and  C_5
DOCKED: REMARK    3  A    between atoms: C_5  and  C_6
DOCKED: REMARK    4  A    between atoms: C_6  and  C_7
DOCKED: REMARK    5  A    between atoms: C_7  and  C_8
DOCKED: REMARK    6  A    between atoms: C_8  and  C_9
DOCKED: REMARK    7  A    between atoms: C_9  and  C_10
DOCKED: REMARK                            x       y       z     vdW  Elec       q    Type
DOCKED: REMARK                         _______ _______ _______ _____ _____    ______ ____
DOCKED: USER                              x       y       z     vdW  Elec       q    Type
DOCKED: USER                           _______ _______ _______ _____ _____    ______ ____
DOCKED: ROOT
DOCKED: ATOM      1  C   UNL     1      24.134 -16.810  -1.325 -0.62 -0.00    +0.000 C 
DOCKED: ENDROOT
DOCKED: BRANCH   1   2
DOCKED: ATOM      2  C   UNL     1      23.902 -18.304  -1.049 -0.80 -0.00    +0.000 C 
DOCKED: BRANCH   2   3
DOCKED: ATOM      3  C   UNL     1      22.752 -18.507  -0.058 -0.78 -0.00    +0.000 C 
DOCKED: BRANCH   3   6
DOCKED: ATOM      4  O   UNL     1      19.882 -19.736  -2.191 -2.33 -0.00    +0.000 OA
DOCKED: ATOM      5  N   UNL     1      21.059 -19.704  -1.524 -0.72 -0.00    +0.000 N 
DOCKED: ATOM      6  C   UNL     1      21.438 -18.545  -0.780 -0.84 -0.00    +0.000 C 
DOCKED: ATOM      7  O   UNL     1      20.685 -17.535  -0.760 -2.11 +0.00    +0.000 OA
DOCKED: ATOM      8  H   UNL     1      21.658 -20.485  -1.552 -0.32 -0.00    +0.000 HD
DOCKED: ENDBRANCH   3   6
DOCKED: ENDBRANCH   2   3
DOCKED: ENDBRANCH   1   2
DOCKED: BRANCH   1   9
DOCKED: ATOM      9  C   UNL     1      25.480 -16.301  -0.781 -0.50 -0.00    +0.000 C 
DOCKED: BRANCH   9  10
DOCKED: ATOM     10  C   UNL     1      26.725 -16.904  -1.458 -0.48 -0.00    +0.000 C 
DOCKED: BRANCH  10  11
DOCKED: ATOM     11  C   UNL     1      27.371 -15.956  -2.476 -0.35 -0.00    +0.000 C 
DOCKED: BRANCH  11  12
DOCKED: ATOM     12  C   UNL     1      26.399 -14.894  -2.892 -0.42 -0.00    +0.000 C 
DOCKED: ATOM     13  N   UNL     1      25.580 -15.080  -4.048 -0.57 -0.00    +0.000 N 
DOCKED: ATOM     14  O   UNL     1      24.712 -14.116  -4.437 -1.07 -0.00    +0.000 OA
DOCKED: ATOM     15  O   UNL     1      26.333 -13.817  -2.240 -0.30 -0.00    +0.000 OA
DOCKED: ATOM     16  H   UNL     1      25.647 -15.914  -4.566 -0.06 -0.00    +0.000 HD
DOCKED: ENDBRANCH  11  12
DOCKED: ENDBRANCH  10  11
DOCKED: ENDBRANCH   9  10
DOCKED: ENDBRANCH   1   9
DOCKED: TORSDOF 7
DOCKED: TER
DOCKED: ENDMDL
________________________________________________________________________________


	BEGINNING GENETIC ALGORITHM DOCKING 69 of 100
Run: 69 Seed: 1484036925 392905669 [ Run 69 of 100 GA/GALS ]
Beginning LAMARCKIAN GENETIC ALGORITHM (LGA), with a maximum of 2500000 energy evaluations.

Final-Value: -13.283


	FINAL GENETIC ALGORITHM DOCKED STATE
	_______________________________________________


Detailed state:  trans 22.884 -17.396 0.296 quatxyzw 0.538909 -0.704144 -0.461360 0.030075 center 0.010 0.634 0.018 ntor 7 -17.2768 -168.8936 -109.3576 83.4927 -104.0052 161.9695 -180.0000
State:	 22.884 -17.396   0.296   0.539 -0.704 -0.462 176.553    -17.28 -168.89 -109.36   83.49 -104.01  161.97 -180.00

DOCKED: MODEL       69
DOCKED: USER    Run = 69
DOCKED: USER    DPF = ligand_dock.biased.dpf
DOCKED: USER  
DOCKED: USER    Estimated Free Energy of Binding    =  -10.58 kcal/mol  [=(1)+(2)+(3)-(4)]
DOCKED: USER    Estimated Inhibition Constant, Ki   =   17.65 nM (nanomolar)  [Temperature = 298.15 K]
DOCKED: USER    
DOCKED: USER    (1) Final Intermolecular Energy     =  -12.67 kcal/mol
DOCKED: USER        vdW + Hbond + desolv Energy     =  -12.67 kcal/mol
DOCKED: USER        Electrostatic Energy            =   +0.00 kcal/mol
DOCKED: USER    (2) Final Total Internal Energy     =   -0.62 kcal/mol
DOCKED: USER    (3) Torsional Free Energy           =   +2.09 kcal/mol
DOCKED: USER    (4) Unbound System's Energy  [=(2)] =   -0.62 kcal/mol
DOCKED: USER    
DOCKED: USER    
DOCKED: USER    NEWDPF move ligand.pdbqt
DOCKED: USER    NEWDPF about 0.010000 0.634000 0.018000
DOCKED: USER    NEWDPF tran0 22.884372 -17.395784 0.295756
DOCKED: USER    NEWDPF quaternion0 0.538909 -0.704144 -0.461360 0.030075
DOCKED: USER    NEWDPF axisangle0 0.539153 -0.704463 -0.461568 176.553108
DOCKED: USER    NEWDPF quat0 0.539153 -0.704463 -0.461568 176.553108
DOCKED: USER    NEWDPF dihe0 -17.28 -168.89 -109.36 83.49 -104.01 161.97 -180.00 
DOCKED: USER  keepresnum = 1 
DOCKED: USER  
DOCKED: REMARK  Name = 
DOCKED: REMARK  7 active torsions:
DOCKED: REMARK  status: ('A' for Active; 'I' for Inactive)
DOCKED: REMARK    1  A    between atoms: C_3  and  C_4
DOCKED: REMARK    2  A    between atoms: C_4  and  C_5
DOCKED: REMARK    3  A    between atoms: C_5  and  C_6
DOCKED: REMARK    4  A    between atoms: C_6  and  C_7
DOCKED: REMARK    5  A    between atoms: C_7  and  C_8
DOCKED: REMARK    6  A    between atoms: C_8  and  C_9
DOCKED: REMARK    7  A    between atoms: C_9  and  C_10
DOCKED: REMARK                            x       y       z     vdW  Elec       q    Type
DOCKED: REMARK                         _______ _______ _______ _____ _____    ______ ____
DOCKED: USER                              x       y       z     vdW  Elec       q    Type
DOCKED: USER                           _______ _______ _______ _____ _____    ______ ____
DOCKED: ROOT
DOCKED: ATOM      1  C   UNL     1      24.138 -17.434  -1.522 -0.69 -0.00    +0.000 C 
DOCKED: ENDROOT
DOCKED: BRANCH   1   2
DOCKED: ATOM      2  C   UNL     1      23.858 -18.709  -0.711 -0.79 -0.00    +0.000 C 
DOCKED: BRANCH   2   3
DOCKED: ATOM      3  C   UNL     1      22.601 -18.548   0.148 -0.69 -0.00    +0.000 C 
DOCKED: BRANCH   3   6
DOCKED: ATOM      4  O   UNL     1      19.901 -19.735  -2.219 -2.31 -0.00    +0.000 OA
DOCKED: ATOM      5  N   UNL     1      20.999 -19.732  -1.426 -0.75 -0.00    +0.000 N 
DOCKED: ATOM      6  C   UNL     1      21.374 -18.553  -0.713 -0.86 -0.00    +0.000 C 
DOCKED: ATOM      7  O   UNL     1      20.693 -17.499  -0.837 -2.09 +0.00    +0.000 OA
DOCKED: ATOM      8  H   UNL     1      21.542 -20.549  -1.341 -0.18 -0.00    +0.000 HD
DOCKED: ENDBRANCH   3   6
DOCKED: ENDBRANCH   2   3
DOCKED: ENDBRANCH   1   2
DOCKED: BRANCH   1   9
DOCKED: ATOM      9  C   UNL     1      24.900 -16.366  -0.718 -0.48 -0.00    +0.000 C 
DOCKED: BRANCH   9  10
DOCKED: ATOM     10  C   UNL     1      26.279 -15.984  -1.286 -0.46 -0.00    +0.000 C 
DOCKED: BRANCH  10  11
DOCKED: ATOM     11  C   UNL     1      26.256 -14.670  -2.078 -0.37 -0.00    +0.000 C 
DOCKED: BRANCH  11  12
DOCKED: ATOM     12  C   UNL     1      25.938 -14.933  -3.519 -0.53 -0.00    +0.000 C 
DOCKED: ATOM     13  N   UNL     1      26.972 -15.320  -4.426 -0.45 -0.00    +0.000 N 
DOCKED: ATOM     14  O   UNL     1      26.692 -15.542  -5.732 -1.11 +0.00    +0.000 OA
DOCKED: ATOM     15  O   UNL     1      24.760 -14.772  -3.938 -0.88 -0.00    +0.000 OA
DOCKED: ATOM     16  H   UNL     1      27.894 -15.425  -4.100 -0.01 -0.00    +0.000 HD
DOCKED: ENDBRANCH  11  12
DOCKED: ENDBRANCH  10  11
DOCKED: ENDBRANCH   9  10
DOCKED: ENDBRANCH   1   9
DOCKED: TORSDOF 7
DOCKED: TER
DOCKED: ENDMDL
________________________________________________________________________________


	BEGINNING GENETIC ALGORITHM DOCKING 70 of 100
Run: 70 Seed: 125984144 949494119 [ Run 70 of 100 GA/GALS ]
Beginning LAMARCKIAN GENETIC ALGORITHM (LGA), with a maximum of 2500000 energy evaluations.

Final-Value: -13.184


	FINAL GENETIC ALGORITHM DOCKED STATE
	_______________________________________________


Detailed state:  trans 24.198 -17.964 -3.073 quatxyzw 0.410562 -0.553224 0.723039 0.050944 center 0.010 0.634 0.018 ntor 7 7.7237 -174.8063 30.0300 -157.3162 8.5101 -88.0902 145.7173
State:	 24.198 -17.964  -3.073   0.411 -0.554  0.724 174.160      7.72 -174.81   30.03 -157.32    8.51  -88.09  145.72

DOCKED: MODEL       70
DOCKED: USER    Run = 70
DOCKED: USER    DPF = ligand_dock.biased.dpf
DOCKED: USER  
DOCKED: USER    Estimated Free Energy of Binding    =  -10.49 kcal/mol  [=(1)+(2)+(3)-(4)]
DOCKED: USER    Estimated Inhibition Constant, Ki   =   20.45 nM (nanomolar)  [Temperature = 298.15 K]
DOCKED: USER    
DOCKED: USER    (1) Final Intermolecular Energy     =  -12.58 kcal/mol
DOCKED: USER        vdW + Hbond + desolv Energy     =  -12.58 kcal/mol
DOCKED: USER        Electrostatic Energy            =   +0.00 kcal/mol
DOCKED: USER    (2) Final Total Internal Energy     =   -0.61 kcal/mol
DOCKED: USER    (3) Torsional Free Energy           =   +2.09 kcal/mol
DOCKED: USER    (4) Unbound System's Energy  [=(2)] =   -0.61 kcal/mol
DOCKED: USER    
DOCKED: USER    
DOCKED: USER    NEWDPF move ligand.pdbqt
DOCKED: USER    NEWDPF about 0.010000 0.634000 0.018000
DOCKED: USER    NEWDPF tran0 24.198301 -17.964168 -3.072847
DOCKED: USER    NEWDPF quaternion0 0.410562 -0.553224 0.723039 0.050944
DOCKED: USER    NEWDPF axisangle0 0.411096 -0.553944 0.723980 174.159743
DOCKED: USER    NEWDPF quat0 0.411096 -0.553944 0.723980 174.159743
DOCKED: USER    NEWDPF dihe0 7.72 -174.81 30.03 -157.32 8.51 -88.09 145.72 
DOCKED: USER  keepresnum = 1 
DOCKED: USER  
DOCKED: REMARK  Name = 
DOCKED: REMARK  7 active torsions:
DOCKED: REMARK  status: ('A' for Active; 'I' for Inactive)
DOCKED: REMARK    1  A    between atoms: C_3  and  C_4
DOCKED: REMARK    2  A    between atoms: C_4  and  C_5
DOCKED: REMARK    3  A    between atoms: C_5  and  C_6
DOCKED: REMARK    4  A    between atoms: C_6  and  C_7
DOCKED: REMARK    5  A    between atoms: C_7  and  C_8
DOCKED: REMARK    6  A    between atoms: C_8  and  C_9
DOCKED: REMARK    7  A    between atoms: C_9  and  C_10
DOCKED: REMARK                            x       y       z     vdW  Elec       q    Type
DOCKED: REMARK                         _______ _______ _______ _____ _____    ______ ____
DOCKED: USER                              x       y       z     vdW  Elec       q    Type
DOCKED: USER                           _______ _______ _______ _____ _____    ______ ____
DOCKED: ROOT
DOCKED: ATOM      1  C   UNL     1      24.970 -17.751  -1.015 -0.71 -0.00    +0.000 C 
DOCKED: ENDROOT
DOCKED: BRANCH   1   2
DOCKED: ATOM      2  C   UNL     1      23.506 -17.437  -1.361 -0.65 -0.00    +0.000 C 
DOCKED: BRANCH   2   3
DOCKED: ATOM      3  C   UNL     1      22.554 -18.072  -0.344 -0.82 -0.00    +0.000 C 
DOCKED: BRANCH   3   6
DOCKED: ATOM      4  O   UNL     1      19.902 -20.053  -2.174 -2.19 -0.00    +0.000 OA
DOCKED: ATOM      5  N   UNL     1      21.068 -19.729  -1.567 -0.70 -0.00    +0.000 N 
DOCKED: ATOM      6  C   UNL     1      21.253 -18.433  -0.997 -0.76 -0.00    +0.000 C 
DOCKED: ATOM      7  O   UNL     1      20.334 -17.573  -1.076 -2.07 -0.00    +0.000 OA
DOCKED: ATOM      8  H   UNL     1      21.794 -20.392  -1.519 -0.33 -0.00    +0.000 HD
DOCKED: ENDBRANCH   3   6
DOCKED: ENDBRANCH   2   3
DOCKED: ENDBRANCH   1   2
DOCKED: BRANCH   1   9
DOCKED: ATOM      9  C   UNL     1      25.969 -16.840  -1.750 -0.55 -0.00    +0.000 C 
DOCKED: BRANCH   9  10
DOCKED: ATOM     10  C   UNL     1      26.232 -15.482  -1.073 -0.42 -0.00    +0.000 C 
DOCKED: BRANCH  10  11
DOCKED: ATOM     11  C   UNL     1      26.571 -14.370  -2.075 -0.31 -0.00    +0.000 C 
DOCKED: BRANCH  11  12
DOCKED: ATOM     12  C   UNL     1      25.889 -14.622  -3.386 -0.50 -0.00    +0.000 C 
DOCKED: ATOM     13  N   UNL     1      26.535 -15.398  -4.397 -0.51 -0.00    +0.000 N 
DOCKED: ATOM     14  O   UNL     1      25.930 -15.613  -5.589 -1.10 +0.00    +0.000 OA
DOCKED: ATOM     15  O   UNL     1      24.758 -14.112  -3.610 -0.95 -0.00    +0.000 OA
DOCKED: ATOM     16  H   UNL     1      27.427 -15.778  -4.226 -0.02 -0.00    +0.000 HD
DOCKED: ENDBRANCH  11  12
DOCKED: ENDBRANCH  10  11
DOCKED: ENDBRANCH   9  10
DOCKED: ENDBRANCH   1   9
DOCKED: TORSDOF 7
DOCKED: TER
DOCKED: ENDMDL
________________________________________________________________________________


	BEGINNING GENETIC ALGORITHM DOCKING 71 of 100
Run: 71 Seed: 388883513 1967955628 [ Run 71 of 100 GA/GALS ]
Beginning LAMARCKIAN GENETIC ALGORITHM (LGA), with a maximum of 2500000 energy evaluations.

Final-Value: -13.167


	FINAL GENETIC ALGORITHM DOCKED STATE
	_______________________________________________


Detailed state:  trans 24.676 -16.467 -1.656 quatxyzw -0.200180 -0.035265 0.368227 -0.907245 center 0.010 0.634 0.018 ntor 7 -91.6450 -162.2757 -4.5035 -53.7355 -108.7557 145.5943 -37.9575
State:	 24.676 -16.467  -1.656  -0.476 -0.084  0.875 -49.745    -91.64 -162.28   -4.50  -53.74 -108.76  145.59  -37.96

DOCKED: MODEL       71
DOCKED: USER    Run = 71
DOCKED: USER    DPF = ligand_dock.biased.dpf
DOCKED: USER  
DOCKED: USER    Estimated Free Energy of Binding    =  -10.52 kcal/mol  [=(1)+(2)+(3)-(4)]
DOCKED: USER    Estimated Inhibition Constant, Ki   =   19.35 nM (nanomolar)  [Temperature = 298.15 K]
DOCKED: USER    
DOCKED: USER    (1) Final Intermolecular Energy     =  -12.61 kcal/mol
DOCKED: USER        vdW + Hbond + desolv Energy     =  -12.61 kcal/mol
DOCKED: USER        Electrostatic Energy            =   +0.00 kcal/mol
DOCKED: USER    (2) Final Total Internal Energy     =   -0.56 kcal/mol
DOCKED: USER    (3) Torsional Free Energy           =   +2.09 kcal/mol
DOCKED: USER    (4) Unbound System's Energy  [=(2)] =   -0.56 kcal/mol
DOCKED: USER    
DOCKED: USER    
DOCKED: USER    NEWDPF move ligand.pdbqt
DOCKED: USER    NEWDPF about 0.010000 0.634000 0.018000
DOCKED: USER    NEWDPF tran0 24.676172 -16.467063 -1.656319
DOCKED: USER    NEWDPF quaternion0 -0.200180 -0.035265 0.368227 -0.907245
DOCKED: USER    NEWDPF axisangle0 -0.475936 -0.083843 0.875474 -49.745306
DOCKED: USER    NEWDPF quat0 -0.475936 -0.083843 0.875474 -49.745306
DOCKED: USER    NEWDPF dihe0 -91.64 -162.28 -4.50 -53.74 -108.76 145.59 -37.96 
DOCKED: USER  keepresnum = 1 
DOCKED: USER  
DOCKED: REMARK  Name = 
DOCKED: REMARK  7 active torsions:
DOCKED: REMARK  status: ('A' for Active; 'I' for Inactive)
DOCKED: REMARK    1  A    between atoms: C_3  and  C_4
DOCKED: REMARK    2  A    between atoms: C_4  and  C_5
DOCKED: REMARK    3  A    between atoms: C_5  and  C_6
DOCKED: REMARK    4  A    between atoms: C_6  and  C_7
DOCKED: REMARK    5  A    between atoms: C_7  and  C_8
DOCKED: REMARK    6  A    between atoms: C_8  and  C_9
DOCKED: REMARK    7  A    between atoms: C_9  and  C_10
DOCKED: REMARK                            x       y       z     vdW  Elec       q    Type
DOCKED: REMARK                         _______ _______ _______ _____ _____    ______ ____
DOCKED: USER                              x       y       z     vdW  Elec       q    Type
DOCKED: USER                           _______ _______ _______ _____ _____    ______ ____
DOCKED: ROOT
DOCKED: ATOM      1  C   UNL     1      26.314 -17.353  -0.469 -0.59 -0.00    +0.000 C 
DOCKED: ENDROOT
DOCKED: BRANCH   1   2
DOCKED: ATOM      2  C   UNL     1      26.536 -16.870  -1.911 -0.43 -0.00    +0.000 C 
DOCKED: BRANCH   2   3
DOCKED: ATOM      3  C   UNL     1      25.398 -15.951  -2.363 -0.55 -0.00    +0.000 C 
DOCKED: BRANCH   3   6
DOCKED: ATOM      4  O   UNL     1      27.190 -15.146  -5.594 -1.04 +0.00    +0.000 OA
DOCKED: ATOM      5  N   UNL     1      26.935 -15.642  -4.361 -0.43 -0.00    +0.000 N 
DOCKED: ATOM      6  C   UNL     1      25.669 -15.417  -3.738 -0.57 -0.00    +0.000 C 
DOCKED: ATOM      7  O   UNL     1      24.789 -14.735  -4.328 -0.92 -0.00    +0.000 OA
DOCKED: ATOM      8  H   UNL     1      27.626 -16.160  -3.890 -0.02 -0.00    +0.000 HD
DOCKED: ENDBRANCH   3   6
DOCKED: ENDBRANCH   2   3
DOCKED: ENDBRANCH   1   2
DOCKED: BRANCH   1   9
DOCKED: ATOM      9  C   UNL     1      25.289 -18.497  -0.370 -0.64 -0.00    +0.000 C 
DOCKED: BRANCH   9  10
DOCKED: ATOM     10  C   UNL     1      23.872 -18.066   0.050 -0.67 -0.00    +0.000 C 
DOCKED: BRANCH  10  11
DOCKED: ATOM     11  C   UNL     1      23.022 -17.573  -1.128 -0.69 -0.00    +0.000 C 
DOCKED: BRANCH  11  12
DOCKED: ATOM     12  C   UNL     1      21.656 -18.187  -1.081 -0.69 -0.00    +0.000 C 
DOCKED: ATOM     13  N   UNL     1      21.460 -19.540  -1.494 -0.65 -0.00    +0.000 N 
DOCKED: ATOM     14  O   UNL     1      20.225 -20.094  -1.470 -2.18 -0.00    +0.000 OA
DOCKED: ATOM     15  O   UNL     1      20.670 -17.492  -0.713 -2.09 +0.00    +0.000 OA
DOCKED: ATOM     16  H   UNL     1      22.228 -20.075  -1.799 -0.46 -0.00    +0.000 HD
DOCKED: ENDBRANCH  11  12
DOCKED: ENDBRANCH  10  11
DOCKED: ENDBRANCH   9  10
DOCKED: ENDBRANCH   1   9
DOCKED: TORSDOF 7
DOCKED: TER
DOCKED: ENDMDL
________________________________________________________________________________


	BEGINNING GENETIC ALGORITHM DOCKING 72 of 100
Run: 72 Seed: 1678965533 346942798 [ Run 72 of 100 GA/GALS ]
Beginning LAMARCKIAN GENETIC ALGORITHM (LGA), with a maximum of 2500000 energy evaluations.

Final-Value: -13.214


	FINAL GENETIC ALGORITHM DOCKED STATE
	_______________________________________________


Detailed state:  trans 23.615 -18.392 -2.265 quatxyzw -0.703589 0.482056 -0.507714 -0.121703 center 0.010 0.634 0.018 ntor 7 -106.2679 179.7074 -31.8546 -179.9107 170.8754 -147.1292 -173.0112
State:	 23.615 -18.392  -2.265  -0.709  0.486 -0.512 -166.019   -106.27  179.71  -31.85 -179.91  170.88 -147.13 -173.01

DOCKED: MODEL       72
DOCKED: USER    Run = 72
DOCKED: USER    DPF = ligand_dock.biased.dpf
DOCKED: USER  
DOCKED: USER    Estimated Free Energy of Binding    =  -10.46 kcal/mol  [=(1)+(2)+(3)-(4)]
DOCKED: USER    Estimated Inhibition Constant, Ki   =   21.38 nM (nanomolar)  [Temperature = 298.15 K]
DOCKED: USER    
DOCKED: USER    (1) Final Intermolecular Energy     =  -12.55 kcal/mol
DOCKED: USER        vdW + Hbond + desolv Energy     =  -12.55 kcal/mol
DOCKED: USER        Electrostatic Energy            =   +0.00 kcal/mol
DOCKED: USER    (2) Final Total Internal Energy     =   -0.66 kcal/mol
DOCKED: USER    (3) Torsional Free Energy           =   +2.09 kcal/mol
DOCKED: USER    (4) Unbound System's Energy  [=(2)] =   -0.66 kcal/mol
DOCKED: USER    
DOCKED: USER    
DOCKED: USER    NEWDPF move ligand.pdbqt
DOCKED: USER    NEWDPF about 0.010000 0.634000 0.018000
DOCKED: USER    NEWDPF tran0 23.614796 -18.392297 -2.264923
DOCKED: USER    NEWDPF quaternion0 -0.703589 0.482056 -0.507714 -0.121703
DOCKED: USER    NEWDPF axisangle0 -0.708858 0.485666 -0.511516 -166.019192
DOCKED: USER    NEWDPF quat0 -0.708858 0.485666 -0.511516 -166.019192
DOCKED: USER    NEWDPF dihe0 -106.27 179.71 -31.85 -179.91 170.88 -147.13 -173.01 
DOCKED: USER  keepresnum = 1 
DOCKED: USER  
DOCKED: REMARK  Name = 
DOCKED: REMARK  7 active torsions:
DOCKED: REMARK  status: ('A' for Active; 'I' for Inactive)
DOCKED: REMARK    1  A    between atoms: C_3  and  C_4
DOCKED: REMARK    2  A    between atoms: C_4  and  C_5
DOCKED: REMARK    3  A    between atoms: C_5  and  C_6
DOCKED: REMARK    4  A    between atoms: C_6  and  C_7
DOCKED: REMARK    5  A    between atoms: C_7  and  C_8
DOCKED: REMARK    6  A    between atoms: C_8  and  C_9
DOCKED: REMARK    7  A    between atoms: C_9  and  C_10
DOCKED: REMARK                            x       y       z     vdW  Elec       q    Type
DOCKED: REMARK                         _______ _______ _______ _____ _____    ______ ____
DOCKED: USER                              x       y       z     vdW  Elec       q    Type
DOCKED: USER                           _______ _______ _______ _____ _____    ______ ____
DOCKED: ROOT
DOCKED: ATOM      1  C   UNL     1      25.163 -17.857  -0.784 -0.70 -0.00    +0.000 C 
DOCKED: ENDROOT
DOCKED: BRANCH   1   2
DOCKED: ATOM      2  C   UNL     1      23.767 -18.332  -0.352 -0.78 -0.00    +0.000 C 
DOCKED: BRANCH   2   3
DOCKED: ATOM      3  C   UNL     1      22.688 -17.344  -0.804 -0.71 -0.00    +0.000 C 
DOCKED: BRANCH   3   6
DOCKED: ATOM      4  O   UNL     1      20.251 -20.106  -1.661 -2.25 -0.00    +0.000 OA
DOCKED: ATOM      5  N   UNL     1      21.408 -19.458  -1.392 -0.73 -0.00    +0.000 N 
DOCKED: ATOM      6  C   UNL     1      21.402 -18.063  -1.082 -0.59 -0.00    +0.000 C 
DOCKED: ATOM      7  O   UNL     1      20.316 -17.424  -1.079 -1.97 -0.00    +0.000 OA
DOCKED: ATOM      8  H   UNL     1      22.260 -19.950  -1.410 -0.29 -0.00    +0.000 HD
DOCKED: ENDBRANCH   3   6
DOCKED: ENDBRANCH   2   3
DOCKED: ENDBRANCH   1   2
DOCKED: BRANCH   1   9
DOCKED: ATOM      9  C   UNL     1      25.129 -16.548  -1.591 -0.61 -0.00    +0.000 C 
DOCKED: BRANCH   9  10
DOCKED: ATOM     10  C   UNL     1      26.018 -15.419  -1.038 -0.43 -0.00    +0.000 C 
DOCKED: BRANCH  10  11
DOCKED: ATOM     11  C   UNL     1      26.513 -14.459  -2.128 -0.33 -0.00    +0.000 C 
DOCKED: BRANCH  11  12
DOCKED: ATOM     12  C   UNL     1      25.849 -14.765  -3.436 -0.52 -0.00    +0.000 C 
DOCKED: ATOM     13  N   UNL     1      26.491 -15.616  -4.388 -0.51 -0.00    +0.000 N 
DOCKED: ATOM     14  O   UNL     1      25.902 -15.882  -5.578 -1.12 +0.00    +0.000 OA
DOCKED: ATOM     15  O   UNL     1      24.738 -14.237  -3.711 -0.99 -0.00    +0.000 OA
DOCKED: ATOM     16  H   UNL     1      27.368 -16.011  -4.178 -0.02 -0.00    +0.000 HD
DOCKED: ENDBRANCH  11  12
DOCKED: ENDBRANCH  10  11
DOCKED: ENDBRANCH   9  10
DOCKED: ENDBRANCH   1   9
DOCKED: TORSDOF 7
DOCKED: TER
DOCKED: ENDMDL
________________________________________________________________________________


	BEGINNING GENETIC ALGORITHM DOCKING 73 of 100
Run: 73 Seed: 1991965741 1096205844 [ Run 73 of 100 GA/GALS ]
Beginning LAMARCKIAN GENETIC ALGORITHM (LGA), with a maximum of 2500000 energy evaluations.

Final-Value: -11.584


	FINAL GENETIC ALGORITHM DOCKED STATE
	_______________________________________________


Detailed state:  trans 24.574 -16.214 0.205 quatxyzw 0.549016 0.056495 0.206159 -0.808015 center 0.010 0.634 0.018 ntor 7 41.0977 -29.8363 4.2941 -107.1026 -41.3212 172.6994 -63.3261
State:	 24.574 -16.214   0.205   0.932  0.096  0.350 -72.195     41.10  -29.84    4.29 -107.10  -41.32  172.70  -63.33

DOCKED: MODEL       73
DOCKED: USER    Run = 73
DOCKED: USER    DPF = ligand_dock.biased.dpf
DOCKED: USER  
DOCKED: USER    Estimated Free Energy of Binding    =   -9.02 kcal/mol  [=(1)+(2)+(3)-(4)]
DOCKED: USER    Estimated Inhibition Constant, Ki   =  245.10 nM (nanomolar)  [Temperature = 298.15 K]
DOCKED: USER    
DOCKED: USER    (1) Final Intermolecular Energy     =  -11.11 kcal/mol
DOCKED: USER        vdW + Hbond + desolv Energy     =  -11.11 kcal/mol
DOCKED: USER        Electrostatic Energy            =   +0.00 kcal/mol
DOCKED: USER    (2) Final Total Internal Energy     =   -0.48 kcal/mol
DOCKED: USER    (3) Torsional Free Energy           =   +2.09 kcal/mol
DOCKED: USER    (4) Unbound System's Energy  [=(2)] =   -0.48 kcal/mol
DOCKED: USER    
DOCKED: USER    
DOCKED: USER    NEWDPF move ligand.pdbqt
DOCKED: USER    NEWDPF about 0.010000 0.634000 0.018000
DOCKED: USER    NEWDPF tran0 24.573757 -16.213834 0.205338
DOCKED: USER    NEWDPF quaternion0 0.549016 0.056495 0.206159 -0.808015
DOCKED: USER    NEWDPF axisangle0 0.931859 0.095891 0.349920 -72.195143
DOCKED: USER    NEWDPF quat0 0.931859 0.095891 0.349920 -72.195143
DOCKED: USER    NEWDPF dihe0 41.10 -29.84 4.29 -107.10 -41.32 172.70 -63.33 
DOCKED: USER  keepresnum = 1 
DOCKED: USER  
DOCKED: REMARK  Name = 
DOCKED: REMARK  7 active torsions:
DOCKED: REMARK  status: ('A' for Active; 'I' for Inactive)
DOCKED: REMARK    1  A    between atoms: C_3  and  C_4
DOCKED: REMARK    2  A    between atoms: C_4  and  C_5
DOCKED: REMARK    3  A    between atoms: C_5  and  C_6
DOCKED: REMARK    4  A    between atoms: C_6  and  C_7
DOCKED: REMARK    5  A    between atoms: C_7  and  C_8
DOCKED: REMARK    6  A    between atoms: C_8  and  C_9
DOCKED: REMARK    7  A    between atoms: C_9  and  C_10
DOCKED: REMARK                            x       y       z     vdW  Elec       q    Type
DOCKED: REMARK                         _______ _______ _______ _____ _____    ______ ____
DOCKED: USER                              x       y       z     vdW  Elec       q    Type
DOCKED: USER                           _______ _______ _______ _____ _____    ______ ____
DOCKED: ROOT
DOCKED: ATOM      1  C   UNL     1      25.728 -17.063  -1.475 -0.59 -0.00    +0.000 C 
DOCKED: ENDROOT
DOCKED: BRANCH   1   2
DOCKED: ATOM      2  C   UNL     1      25.702 -15.552  -1.200 -0.46 -0.00    +0.000 C 
DOCKED: BRANCH   2   3
DOCKED: ATOM      3  C   UNL     1      26.733 -15.170  -0.135 -0.32 -0.00    +0.000 C 
DOCKED: BRANCH   3   6
DOCKED: ATOM      4  O   UNL     1      26.282 -12.008   1.890 -0.41 +0.00    +0.000 OA
DOCKED: ATOM      5  N   UNL     1      26.410 -13.318   1.572 -0.32 -0.00    +0.000 N 
DOCKED: ATOM      6  C   UNL     1      26.613 -13.717   0.216 -0.32 -0.00    +0.000 C 
DOCKED: ATOM      7  O   UNL     1      26.654 -12.849  -0.697 -0.23 -0.00    +0.000 OA
DOCKED: ATOM      8  H   UNL     1      26.361 -14.000   2.280 -0.01 -0.00    +0.000 HD
DOCKED: ENDBRANCH   3   6
DOCKED: ENDBRANCH   2   3
DOCKED: ENDBRANCH   1   2
DOCKED: BRANCH   1   9
DOCKED: ATOM      9  C   UNL     1      24.340 -17.636  -1.813 -0.66 -0.00    +0.000 C 
DOCKED: BRANCH   9  10
DOCKED: ATOM     10  C   UNL     1      23.886 -18.808  -0.924 -0.76 -0.00    +0.000 C 
DOCKED: BRANCH  10  11
DOCKED: ATOM     11  C   UNL     1      22.715 -18.442  -0.003 -0.77 -0.00    +0.000 C 
DOCKED: BRANCH  11  12
DOCKED: ATOM     12  C   UNL     1      21.420 -18.496  -0.756 -0.84 -0.00    +0.000 C 
DOCKED: ATOM     13  N   UNL     1      21.036 -19.688  -1.444 -0.75 -0.00    +0.000 N 
DOCKED: ATOM     14  O   UNL     1      19.875 -19.736  -2.140 -2.33 -0.00    +0.000 OA
DOCKED: ATOM     15  O   UNL     1      20.689 -17.471  -0.816 -2.06 +0.00    +0.000 OA
DOCKED: ATOM     16  H   UNL     1      21.618 -20.481  -1.411 -0.28 -0.00    +0.000 HD
DOCKED: ENDBRANCH  11  12
DOCKED: ENDBRANCH  10  11
DOCKED: ENDBRANCH   9  10
DOCKED: ENDBRANCH   1   9
DOCKED: TORSDOF 7
DOCKED: TER
DOCKED: ENDMDL
________________________________________________________________________________


	BEGINNING GENETIC ALGORITHM DOCKING 74 of 100
Run: 74 Seed: 629456045 937454557 [ Run 74 of 100 GA/GALS ]
Beginning LAMARCKIAN GENETIC ALGORITHM (LGA), with a maximum of 2500000 energy evaluations.

Final-Value: -12.837


	FINAL GENETIC ALGORITHM DOCKED STATE
	_______________________________________________


Detailed state:  trans 27.712 -17.879 -2.173 quatxyzw -0.720681 -0.576903 0.384443 -0.002343 center 0.010 0.634 0.018 ntor 7 -35.1045 171.1620 -141.5907 -4.5580 -44.1709 87.5574 -146.1624
State:	 27.712 -17.879  -2.173  -0.721 -0.577  0.384 -179.732    -35.10  171.16 -141.59   -4.56  -44.17   87.56 -146.16

DOCKED: MODEL       74
DOCKED: USER    Run = 74
DOCKED: USER    DPF = ligand_dock.biased.dpf
DOCKED: USER  
DOCKED: USER    Estimated Free Energy of Binding    =  -10.16 kcal/mol  [=(1)+(2)+(3)-(4)]
DOCKED: USER    Estimated Inhibition Constant, Ki   =   35.63 nM (nanomolar)  [Temperature = 298.15 K]
DOCKED: USER    
DOCKED: USER    (1) Final Intermolecular Energy     =  -12.25 kcal/mol
DOCKED: USER        vdW + Hbond + desolv Energy     =  -12.25 kcal/mol
DOCKED: USER        Electrostatic Energy            =   +0.00 kcal/mol
DOCKED: USER    (2) Final Total Internal Energy     =   -0.59 kcal/mol
DOCKED: USER    (3) Torsional Free Energy           =   +2.09 kcal/mol
DOCKED: USER    (4) Unbound System's Energy  [=(2)] =   -0.59 kcal/mol
DOCKED: USER    
DOCKED: USER    
DOCKED: USER    NEWDPF move ligand.pdbqt
DOCKED: USER    NEWDPF about 0.010000 0.634000 0.018000
DOCKED: USER    NEWDPF tran0 27.711949 -17.879115 -2.173294
DOCKED: USER    NEWDPF quaternion0 -0.720681 -0.576903 0.384443 -0.002343
DOCKED: USER    NEWDPF axisangle0 -0.720683 -0.576905 0.384444 -179.731539
DOCKED: USER    NEWDPF quat0 -0.720683 -0.576905 0.384444 -179.731539
DOCKED: USER    NEWDPF dihe0 -35.10 171.16 -141.59 -4.56 -44.17 87.56 -146.16 
DOCKED: USER  keepresnum = 1 
DOCKED: USER  
DOCKED: REMARK  Name = 
DOCKED: REMARK  7 active torsions:
DOCKED: REMARK  status: ('A' for Active; 'I' for Inactive)
DOCKED: REMARK    1  A    between atoms: C_3  and  C_4
DOCKED: REMARK    2  A    between atoms: C_4  and  C_5
DOCKED: REMARK    3  A    between atoms: C_5  and  C_6
DOCKED: REMARK    4  A    between atoms: C_6  and  C_7
DOCKED: REMARK    5  A    between atoms: C_7  and  C_8
DOCKED: REMARK    6  A    between atoms: C_8  and  C_9
DOCKED: REMARK    7  A    between atoms: C_9  and  C_10
DOCKED: REMARK                            x       y       z     vdW  Elec       q    Type
DOCKED: REMARK                         _______ _______ _______ _____ _____    ______ ____
DOCKED: USER                              x       y       z     vdW  Elec       q    Type
DOCKED: USER                           _______ _______ _______ _____ _____    ______ ____
DOCKED: ROOT
DOCKED: ATOM      1  C   UNL     1      25.735 -16.965  -1.812 -0.57 -0.00    +0.000 C 
DOCKED: ENDROOT
DOCKED: BRANCH   1   2
DOCKED: ATOM      2  C   UNL     1      27.035 -16.168  -1.624 -0.40 -0.00    +0.000 C 
DOCKED: BRANCH   2   3
DOCKED: ATOM      3  C   UNL     1      27.561 -15.654  -2.967 -0.33 -0.00    +0.000 C 
DOCKED: BRANCH   3   6
DOCKED: ATOM      4  O   UNL     1      24.388 -13.924  -4.079 -1.15 -0.00    +0.000 OA
DOCKED: ATOM      5  N   UNL     1      25.423 -14.327  -3.306 -0.47 -0.00    +0.000 N 
DOCKED: ATOM      6  C   UNL     1      26.427 -15.194  -3.834 -0.52 -0.00    +0.000 C 
DOCKED: ATOM      7  O   UNL     1      26.341 -15.608  -5.022 -1.08 +0.00    +0.000 OA
DOCKED: ATOM      8  H   UNL     1      25.484 -14.020  -2.372 -0.02 -0.00    +0.000 HD
DOCKED: ENDBRANCH   3   6
DOCKED: ENDBRANCH   2   3
DOCKED: ENDBRANCH   1   2
DOCKED: BRANCH   1   9
DOCKED: ATOM      9  C   UNL     1      25.627 -18.171  -0.862 -0.61 -0.00    +0.000 C 
DOCKED: BRANCH   9  10
DOCKED: ATOM     10  C   UNL     1      24.190 -18.594  -0.507 -0.74 -0.00    +0.000 C 
DOCKED: BRANCH  10  11
DOCKED: ATOM     11  C   UNL     1      23.169 -18.209  -1.585 -0.60 -0.00    +0.000 C 
DOCKED: BRANCH  11  12
DOCKED: ATOM     12  C   UNL     1      21.784 -18.582  -1.150 -0.73 -0.00    +0.000 C 
DOCKED: ATOM     13  N   UNL     1      21.143 -19.736  -1.698 -0.63 -0.00    +0.000 N 
DOCKED: ATOM     14  O   UNL     1      19.886 -20.067  -1.321 -2.03 -0.00    +0.000 OA
DOCKED: ATOM     15  O   UNL     1      21.169 -17.851  -0.328 -1.80 +0.00    +0.000 OA
DOCKED: ATOM     16  H   UNL     1      21.619 -20.294  -2.355 -0.57 -0.00    +0.000 HD
DOCKED: ENDBRANCH  11  12
DOCKED: ENDBRANCH  10  11
DOCKED: ENDBRANCH   9  10
DOCKED: ENDBRANCH   1   9
DOCKED: TORSDOF 7
DOCKED: TER
DOCKED: ENDMDL
________________________________________________________________________________


	BEGINNING GENETIC ALGORITHM DOCKING 75 of 100
Run: 75 Seed: 415741106 2052735260 [ Run 75 of 100 GA/GALS ]
Beginning LAMARCKIAN GENETIC ALGORITHM (LGA), with a maximum of 2500000 energy evaluations.

Final-Value: -13.796


	FINAL GENETIC ALGORITHM DOCKED STATE
	_______________________________________________


Detailed state:  trans 27.348 -17.072 -1.293 quatxyzw -0.690832 -0.633543 0.285638 0.199463 center 0.010 0.634 0.018 ntor 7 -135.0445 -30.6366 144.5659 -51.3304 13.0305 -42.1352 -135.7404
State:	 27.348 -17.072  -1.293  -0.705 -0.647  0.291 156.989   -135.04  -30.64  144.57  -51.33   13.03  -42.14 -135.74

DOCKED: MODEL       75
DOCKED: USER    Run = 75
DOCKED: USER    DPF = ligand_dock.biased.dpf
DOCKED: USER  
DOCKED: USER    Estimated Free Energy of Binding    =  -11.14 kcal/mol  [=(1)+(2)+(3)-(4)]
DOCKED: USER    Estimated Inhibition Constant, Ki   =    6.85 nM (nanomolar)  [Temperature = 298.15 K]
DOCKED: USER    
DOCKED: USER    (1) Final Intermolecular Energy     =  -13.23 kcal/mol
DOCKED: USER        vdW + Hbond + desolv Energy     =  -13.23 kcal/mol
DOCKED: USER        Electrostatic Energy            =   +0.00 kcal/mol
DOCKED: USER    (2) Final Total Internal Energy     =   -0.57 kcal/mol
DOCKED: USER    (3) Torsional Free Energy           =   +2.09 kcal/mol
DOCKED: USER    (4) Unbound System's Energy  [=(2)] =   -0.57 kcal/mol
DOCKED: USER    
DOCKED: USER    
DOCKED: USER    NEWDPF move ligand.pdbqt
DOCKED: USER    NEWDPF about 0.010000 0.634000 0.018000
DOCKED: USER    NEWDPF tran0 27.348083 -17.072211 -1.293351
DOCKED: USER    NEWDPF quaternion0 -0.690832 -0.633543 0.285638 0.199463
DOCKED: USER    NEWDPF axisangle0 -0.704999 -0.646535 0.291495 156.988906
DOCKED: USER    NEWDPF quat0 -0.704999 -0.646535 0.291495 156.988906
DOCKED: USER    NEWDPF dihe0 -135.04 -30.64 144.57 -51.33 13.03 -42.14 -135.74 
DOCKED: USER  keepresnum = 1 
DOCKED: USER  
DOCKED: REMARK  Name = 
DOCKED: REMARK  7 active torsions:
DOCKED: REMARK  status: ('A' for Active; 'I' for Inactive)
DOCKED: REMARK    1  A    between atoms: C_3  and  C_4
DOCKED: REMARK    2  A    between atoms: C_4  and  C_5
DOCKED: REMARK    3  A    between atoms: C_5  and  C_6
DOCKED: REMARK    4  A    between atoms: C_6  and  C_7
DOCKED: REMARK    5  A    between atoms: C_7  and  C_8
DOCKED: REMARK    6  A    between atoms: C_8  and  C_9
DOCKED: REMARK    7  A    between atoms: C_9  and  C_10
DOCKED: REMARK                            x       y       z     vdW  Elec       q    Type
DOCKED: REMARK                         _______ _______ _______ _____ _____    ______ ____
DOCKED: USER                              x       y       z     vdW  Elec       q    Type
DOCKED: USER                           _______ _______ _______ _____ _____    ______ ____
DOCKED: ROOT
DOCKED: ATOM      1  C   UNL     1      25.216 -16.737  -1.762 -0.62 -0.00    +0.000 C 
DOCKED: ENDROOT
DOCKED: BRANCH   1   2
DOCKED: ATOM      2  C   UNL     1      26.130 -15.588  -1.307 -0.44 -0.00    +0.000 C 
DOCKED: BRANCH   2   3
DOCKED: ATOM      3  C   UNL     1      25.865 -14.321  -2.124 -0.27 -0.00    +0.000 C 
DOCKED: BRANCH   3   6
DOCKED: ATOM      4  O   UNL     1      26.044 -15.854  -5.577 -1.13 +0.00    +0.000 OA
DOCKED: ATOM      5  N   UNL     1      26.351 -15.548  -4.294 -0.53 -0.00    +0.000 N 
DOCKED: ATOM      6  C   UNL     1      25.511 -14.673  -3.538 -0.55 -0.00    +0.000 C 
DOCKED: ATOM      7  O   UNL     1      24.489 -14.164  -4.072 -1.09 -0.00    +0.000 OA
DOCKED: ATOM      8  H   UNL     1      27.158 -15.930  -3.880 -0.02 -0.00    +0.000 HD
DOCKED: ENDBRANCH   3   6
DOCKED: ENDBRANCH   2   3
DOCKED: ENDBRANCH   1   2
DOCKED: BRANCH   1   9
DOCKED: ATOM      9  C   UNL     1      25.066 -17.842  -0.701 -0.71 -0.00    +0.000 C 
DOCKED: BRANCH   9  10
DOCKED: ATOM     10  C   UNL     1      23.871 -18.790  -0.912 -0.77 -0.00    +0.000 C 
DOCKED: BRANCH  10  11
DOCKED: ATOM     11  C   UNL     1      22.699 -18.494   0.032 -0.76 -0.00    +0.000 C 
DOCKED: BRANCH  11  12
DOCKED: ATOM     12  C   UNL     1      21.401 -18.538  -0.716 -0.86 -0.00    +0.000 C 
DOCKED: ATOM     13  N   UNL     1      21.045 -19.697  -1.473 -0.74 -0.00    +0.000 N 
DOCKED: ATOM     14  O   UNL     1      19.882 -19.734  -2.165 -2.33 -0.00    +0.000 OA
DOCKED: ATOM     15  O   UNL     1      20.641 -17.533  -0.709 -2.12 +0.00    +0.000 OA
DOCKED: ATOM     16  H   UNL     1      21.650 -20.473  -1.493 -0.30 -0.00    +0.000 HD
DOCKED: ENDBRANCH  11  12
DOCKED: ENDBRANCH  10  11
DOCKED: ENDBRANCH   9  10
DOCKED: ENDBRANCH   1   9
DOCKED: TORSDOF 7
DOCKED: TER
DOCKED: ENDMDL
________________________________________________________________________________


	BEGINNING GENETIC ALGORITHM DOCKING 76 of 100
Run: 76 Seed: 1013660459 2122252797 [ Run 76 of 100 GA/GALS ]
Beginning LAMARCKIAN GENETIC ALGORITHM (LGA), with a maximum of 2500000 energy evaluations.

Final-Value: -12.827


	FINAL GENETIC ALGORITHM DOCKED STATE
	_______________________________________________


Detailed state:  trans 24.486 -18.654 -2.313 quatxyzw 0.706479 -0.389159 0.568355 0.162527 center 0.010 0.634 0.018 ntor 7 168.4097 178.6749 17.4311 -174.3255 -161.9733 -139.1913 179.2452
State:	 24.486 -18.654  -2.313   0.716 -0.394  0.576 161.293    168.41  178.67   17.43 -174.33 -161.97 -139.19  179.25

DOCKED: MODEL       76
DOCKED: USER    Run = 76
DOCKED: USER    DPF = ligand_dock.biased.dpf
DOCKED: USER  
DOCKED: USER    Estimated Free Energy of Binding    =  -10.09 kcal/mol  [=(1)+(2)+(3)-(4)]
DOCKED: USER    Estimated Inhibition Constant, Ki   =   40.24 nM (nanomolar)  [Temperature = 298.15 K]
DOCKED: USER    
DOCKED: USER    (1) Final Intermolecular Energy     =  -12.18 kcal/mol
DOCKED: USER        vdW + Hbond + desolv Energy     =  -12.18 kcal/mol
DOCKED: USER        Electrostatic Energy            =   +0.00 kcal/mol
DOCKED: USER    (2) Final Total Internal Energy     =   -0.65 kcal/mol
DOCKED: USER    (3) Torsional Free Energy           =   +2.09 kcal/mol
DOCKED: USER    (4) Unbound System's Energy  [=(2)] =   -0.65 kcal/mol
DOCKED: USER    
DOCKED: USER    
DOCKED: USER    NEWDPF move ligand.pdbqt
DOCKED: USER    NEWDPF about 0.010000 0.634000 0.018000
DOCKED: USER    NEWDPF tran0 24.485629 -18.654128 -2.312993
DOCKED: USER    NEWDPF quaternion0 0.706479 -0.389159 0.568355 0.162527
DOCKED: USER    NEWDPF axisangle0 0.715999 -0.394403 0.576013 161.292749
DOCKED: USER    NEWDPF quat0 0.715999 -0.394403 0.576013 161.292749
DOCKED: USER    NEWDPF dihe0 168.41 178.67 17.43 -174.33 -161.97 -139.19 179.25 
DOCKED: USER  keepresnum = 1 
DOCKED: USER  
DOCKED: REMARK  Name = 
DOCKED: REMARK  7 active torsions:
DOCKED: REMARK  status: ('A' for Active; 'I' for Inactive)
DOCKED: REMARK    1  A    between atoms: C_3  and  C_4
DOCKED: REMARK    2  A    between atoms: C_4  and  C_5
DOCKED: REMARK    3  A    between atoms: C_5  and  C_6
DOCKED: REMARK    4  A    between atoms: C_6  and  C_7
DOCKED: REMARK    5  A    between atoms: C_7  and  C_8
DOCKED: REMARK    6  A    between atoms: C_8  and  C_9
DOCKED: REMARK    7  A    between atoms: C_9  and  C_10
DOCKED: REMARK                            x       y       z     vdW  Elec       q    Type
DOCKED: REMARK                         _______ _______ _______ _____ _____    ______ ____
DOCKED: USER                              x       y       z     vdW  Elec       q    Type
DOCKED: USER                           _______ _______ _______ _____ _____    ______ ____
DOCKED: ROOT
DOCKED: ATOM      1  C   UNL     1      25.693 -17.747  -0.701 -0.66 -0.00    +0.000 C 
DOCKED: ENDROOT
DOCKED: BRANCH   1   2
DOCKED: ATOM      2  C   UNL     1      24.336 -18.409  -0.414 -0.73 -0.00    +0.000 C 
DOCKED: BRANCH   2   3
DOCKED: ATOM      3  C   UNL     1      23.345 -18.143  -1.551 -0.67 -0.00    +0.000 C 
DOCKED: BRANCH   3   6
DOCKED: ATOM      4  O   UNL     1      19.942 -19.745  -1.155 -2.06 -0.00    +0.000 OA
DOCKED: ATOM      5  N   UNL     1      21.218 -19.530  -1.554 -0.70 -0.00    +0.000 N 
DOCKED: ATOM      6  C   UNL     1      21.939 -18.388  -1.090 -0.76 -0.00    +0.000 C 
DOCKED: ATOM      7  O   UNL     1      21.382 -17.561  -0.319 -1.59 -0.00    +0.000 OA
DOCKED: ATOM      8  H   UNL     1      21.651 -20.164  -2.170 -0.56 -0.00    +0.000 HD
DOCKED: ENDBRANCH   3   6
DOCKED: ENDBRANCH   2   3
DOCKED: ENDBRANCH   1   2
DOCKED: BRANCH   1   9
DOCKED: ATOM      9  C   UNL     1      25.582 -16.534  -1.641 -0.58 -0.00    +0.000 C 
DOCKED: BRANCH   9  10
DOCKED: ATOM     10  C   UNL     1      26.024 -15.193  -1.027 -0.41 -0.00    +0.000 C 
DOCKED: BRANCH  10  11
DOCKED: ATOM     11  C   UNL     1      26.378 -14.139  -2.085 -0.30 -0.00    +0.000 C 
DOCKED: BRANCH  11  12
DOCKED: ATOM     12  C   UNL     1      25.903 -14.575  -3.437 -0.50 -0.00    +0.000 C 
DOCKED: ATOM     13  N   UNL     1      26.795 -15.235  -4.337 -0.47 -0.00    +0.000 N 
DOCKED: ATOM     14  O   UNL     1      26.374 -15.615  -5.566 -1.20 +0.00    +0.000 OA
DOCKED: ATOM     15  O   UNL     1      24.721 -14.320  -3.796 -1.00 -0.00    +0.000 OA
DOCKED: ATOM     16  H   UNL     1      27.723 -15.415  -4.061 -0.01 -0.00    +0.000 HD
DOCKED: ENDBRANCH  11  12
DOCKED: ENDBRANCH  10  11
DOCKED: ENDBRANCH   9  10
DOCKED: ENDBRANCH   1   9
DOCKED: TORSDOF 7
DOCKED: TER
DOCKED: ENDMDL
________________________________________________________________________________


	BEGINNING GENETIC ALGORITHM DOCKING 77 of 100
Run: 77 Seed: 382762096 1957083945 [ Run 77 of 100 GA/GALS ]
Beginning LAMARCKIAN GENETIC ALGORITHM (LGA), with a maximum of 2500000 energy evaluations.

Final-Value: -12.516


	FINAL GENETIC ALGORITHM DOCKED STATE
	_______________________________________________


Detailed state:  trans 26.679 -17.205 -2.253 quatxyzw -0.745384 -0.469401 0.459179 0.114976 center 0.010 0.634 0.018 ntor 7 175.1387 12.1813 93.2879 -79.0510 2.7467 -80.9746 -75.8411
State:	 26.679 -17.205  -2.253  -0.750 -0.473  0.462 166.796    175.14   12.18   93.29  -79.05    2.75  -80.97  -75.84

DOCKED: MODEL       77
DOCKED: USER    Run = 77
DOCKED: USER    DPF = ligand_dock.biased.dpf
DOCKED: USER  
DOCKED: USER    Estimated Free Energy of Binding    =   -9.97 kcal/mol  [=(1)+(2)+(3)-(4)]
DOCKED: USER    Estimated Inhibition Constant, Ki   =   49.24 nM (nanomolar)  [Temperature = 298.15 K]
DOCKED: USER    
DOCKED: USER    (1) Final Intermolecular Energy     =  -12.06 kcal/mol
DOCKED: USER        vdW + Hbond + desolv Energy     =  -12.06 kcal/mol
DOCKED: USER        Electrostatic Energy            =   +0.00 kcal/mol
DOCKED: USER    (2) Final Total Internal Energy     =   -0.46 kcal/mol
DOCKED: USER    (3) Torsional Free Energy           =   +2.09 kcal/mol
DOCKED: USER    (4) Unbound System's Energy  [=(2)] =   -0.46 kcal/mol
DOCKED: USER    
DOCKED: USER    
DOCKED: USER    NEWDPF move ligand.pdbqt
DOCKED: USER    NEWDPF about 0.010000 0.634000 0.018000
DOCKED: USER    NEWDPF tran0 26.679388 -17.204504 -2.252585
DOCKED: USER    NEWDPF quaternion0 -0.745384 -0.469401 0.459179 0.114976
DOCKED: USER    NEWDPF axisangle0 -0.750361 -0.472534 0.462245 166.795514
DOCKED: USER    NEWDPF quat0 -0.750361 -0.472534 0.462245 166.795514
DOCKED: USER    NEWDPF dihe0 175.14 12.18 93.29 -79.05 2.75 -80.97 -75.84 
DOCKED: USER  keepresnum = 1 
DOCKED: USER  
DOCKED: REMARK  Name = 
DOCKED: REMARK  7 active torsions:
DOCKED: REMARK  status: ('A' for Active; 'I' for Inactive)
DOCKED: REMARK    1  A    between atoms: C_3  and  C_4
DOCKED: REMARK    2  A    between atoms: C_4  and  C_5
DOCKED: REMARK    3  A    between atoms: C_5  and  C_6
DOCKED: REMARK    4  A    between atoms: C_6  and  C_7
DOCKED: REMARK    5  A    between atoms: C_7  and  C_8
DOCKED: REMARK    6  A    between atoms: C_8  and  C_9
DOCKED: REMARK    7  A    between atoms: C_9  and  C_10
DOCKED: REMARK                            x       y       z     vdW  Elec       q    Type
DOCKED: REMARK                         _______ _______ _______ _____ _____    ______ ____
DOCKED: USER                              x       y       z     vdW  Elec       q    Type
DOCKED: USER                           _______ _______ _______ _____ _____    ______ ____
DOCKED: ROOT
DOCKED: ATOM      1  C   UNL     1      24.793 -16.060  -2.335 -0.40 -0.00    +0.000 C 
DOCKED: ENDROOT
DOCKED: BRANCH   1   2
DOCKED: ATOM      2  C   UNL     1      26.160 -15.358  -2.343 -0.45 -0.00    +0.000 C 
DOCKED: BRANCH   2   3
DOCKED: ATOM      3  C   UNL     1      26.266 -14.378  -3.514 -0.45 -0.00    +0.000 C 
DOCKED: BRANCH   3   6
DOCKED: ATOM      4  O   UNL     1      28.503 -15.611  -6.302 -0.63 +0.00    +0.000 OA
DOCKED: ATOM      5  N   UNL     1      28.088 -14.987  -5.175 -0.37 -0.00    +0.000 N 
DOCKED: ATOM      6  C   UNL     1      26.727 -15.087  -4.752 -0.53 -0.00    +0.000 C 
DOCKED: ATOM      7  O   UNL     1      25.899 -15.742  -5.441 -1.12 +0.00    +0.000 OA
DOCKED: ATOM      8  H   UNL     1      28.727 -14.460  -4.644 +0.00 -0.00    +0.000 HD
DOCKED: ENDBRANCH   3   6
DOCKED: ENDBRANCH   2   3
DOCKED: ENDBRANCH   1   2
DOCKED: BRANCH   1   9
DOCKED: ATOM      9  C   UNL     1      24.538 -16.865  -1.049 -0.65 -0.00    +0.000 C 
DOCKED: BRANCH   9  10
DOCKED: ATOM     10  C   UNL     1      23.901 -18.251  -1.263 -0.78 -0.00    +0.000 C 
DOCKED: BRANCH  10  11
DOCKED: ATOM     11  C   UNL     1      22.881 -18.615  -0.177 -0.79 -0.00    +0.000 C 
DOCKED: BRANCH  11  12
DOCKED: ATOM     12  C   UNL     1      21.489 -18.571  -0.731 -0.86 -0.00    +0.000 C 
DOCKED: ATOM     13  N   UNL     1      20.849 -19.772  -1.167 -0.76 -0.00    +0.000 N 
DOCKED: ATOM     14  O   UNL     1      19.599 -19.735  -1.685 -2.18 -0.00    +0.000 OA
DOCKED: ATOM     15  O   UNL     1      20.898 -17.464  -0.851 -2.02 -0.00    +0.000 OA
DOCKED: ATOM     16  H   UNL     1      21.320 -20.633  -1.091 -0.08 -0.00    +0.000 HD
DOCKED: ENDBRANCH  11  12
DOCKED: ENDBRANCH  10  11
DOCKED: ENDBRANCH   9  10
DOCKED: ENDBRANCH   1   9
DOCKED: TORSDOF 7
DOCKED: TER
DOCKED: ENDMDL
________________________________________________________________________________


	BEGINNING GENETIC ALGORITHM DOCKING 78 of 100
Run: 78 Seed: 366919491 1787976375 [ Run 78 of 100 GA/GALS ]
Beginning LAMARCKIAN GENETIC ALGORITHM (LGA), with a maximum of 2500000 energy evaluations.

Final-Value: -12.824


	FINAL GENETIC ALGORITHM DOCKED STATE
	_______________________________________________


Detailed state:  trans 24.282 -15.426 -1.657 quatxyzw -0.181980 0.930771 -0.034853 -0.315174 center 0.010 0.634 0.018 ntor 7 59.6858 -100.9216 42.3605 84.4802 93.5370 115.4026 -46.7058
State:	 24.282 -15.426  -1.657  -0.192  0.981 -0.037 -143.257     59.69 -100.92   42.36   84.48   93.54  115.40  -46.71

DOCKED: MODEL       78
DOCKED: USER    Run = 78
DOCKED: USER    DPF = ligand_dock.biased.dpf
DOCKED: USER  
DOCKED: USER    Estimated Free Energy of Binding    =  -10.11 kcal/mol  [=(1)+(2)+(3)-(4)]
DOCKED: USER    Estimated Inhibition Constant, Ki   =   39.07 nM (nanomolar)  [Temperature = 298.15 K]
DOCKED: USER    
DOCKED: USER    (1) Final Intermolecular Energy     =  -12.19 kcal/mol
DOCKED: USER        vdW + Hbond + desolv Energy     =  -12.19 kcal/mol
DOCKED: USER        Electrostatic Energy            =   +0.00 kcal/mol
DOCKED: USER    (2) Final Total Internal Energy     =   -0.63 kcal/mol
DOCKED: USER    (3) Torsional Free Energy           =   +2.09 kcal/mol
DOCKED: USER    (4) Unbound System's Energy  [=(2)] =   -0.63 kcal/mol
DOCKED: USER    
DOCKED: USER    
DOCKED: USER    NEWDPF move ligand.pdbqt
DOCKED: USER    NEWDPF about 0.010000 0.634000 0.018000
DOCKED: USER    NEWDPF tran0 24.282126 -15.426335 -1.656699
DOCKED: USER    NEWDPF quaternion0 -0.181980 0.930771 -0.034853 -0.315174
DOCKED: USER    NEWDPF axisangle0 -0.191753 0.980756 -0.036725 -143.257423
DOCKED: USER    NEWDPF quat0 -0.191753 0.980756 -0.036725 -143.257423
DOCKED: USER    NEWDPF dihe0 59.69 -100.92 42.36 84.48 93.54 115.40 -46.71 
DOCKED: USER  keepresnum = 1 
DOCKED: USER  
DOCKED: REMARK  Name = 
DOCKED: REMARK  7 active torsions:
DOCKED: REMARK  status: ('A' for Active; 'I' for Inactive)
DOCKED: REMARK    1  A    between atoms: C_3  and  C_4
DOCKED: REMARK    2  A    between atoms: C_4  and  C_5
DOCKED: REMARK    3  A    between atoms: C_5  and  C_6
DOCKED: REMARK    4  A    between atoms: C_6  and  C_7
DOCKED: REMARK    5  A    between atoms: C_7  and  C_8
DOCKED: REMARK    6  A    between atoms: C_8  and  C_9
DOCKED: REMARK    7  A    between atoms: C_9  and  C_10
DOCKED: REMARK                            x       y       z     vdW  Elec       q    Type
DOCKED: REMARK                         _______ _______ _______ _____ _____    ______ ____
DOCKED: USER                              x       y       z     vdW  Elec       q    Type
DOCKED: USER                           _______ _______ _______ _____ _____    ______ ____
DOCKED: ROOT
DOCKED: ATOM      1  C   UNL     1      24.859 -17.543  -1.912 -0.61 -0.00    +0.000 C 
DOCKED: ENDROOT
DOCKED: BRANCH   1   2
DOCKED: ATOM      2  C   UNL     1      23.455 -17.144  -1.429 -0.51 -0.00    +0.000 C 
DOCKED: BRANCH   2   3
DOCKED: ATOM      3  C   UNL     1      22.955 -18.105  -0.347 -0.81 -0.00    +0.000 C 
DOCKED: BRANCH   3   6
DOCKED: ATOM      4  O   UNL     1      19.760 -20.119  -0.545 -1.54 -0.00    +0.000 OA
DOCKED: ATOM      5  N   UNL     1      21.051 -19.785  -0.313 -0.72 -0.00    +0.000 N 
DOCKED: ATOM      6  C   UNL     1      21.519 -18.464  -0.587 -0.83 -0.00    +0.000 C 
DOCKED: ATOM      7  O   UNL     1      20.733 -17.605  -1.069 -2.10 -0.00    +0.000 OA
DOCKED: ATOM      8  H   UNL     1      21.673 -20.459   0.047 -0.54 -0.00    +0.000 HD
DOCKED: ENDBRANCH   3   6
DOCKED: ENDBRANCH   2   3
DOCKED: ENDBRANCH   1   2
DOCKED: BRANCH   1   9
DOCKED: ATOM      9  C   UNL     1      25.974 -17.096  -0.950 -0.59 -0.00    +0.000 C 
DOCKED: BRANCH   9  10
DOCKED: ATOM     10  C   UNL     1      26.845 -15.933  -1.458 -0.40 -0.00    +0.000 C 
DOCKED: BRANCH  10  11
DOCKED: ATOM     11  C   UNL     1      26.023 -14.707  -1.874 -0.37 -0.00    +0.000 C 
DOCKED: BRANCH  11  12
DOCKED: ATOM     12  C   UNL     1      25.612 -14.816  -3.311 -0.54 -0.00    +0.000 C 
DOCKED: ATOM     13  N   UNL     1      26.251 -15.759  -4.174 -0.48 -0.00    +0.000 N 
DOCKED: ATOM     14  O   UNL     1      25.894 -15.849  -5.477 -1.12 +0.00    +0.000 OA
DOCKED: ATOM     15  O   UNL     1      24.727 -14.043  -3.768 -1.00 -0.00    +0.000 OA
DOCKED: ATOM     16  H   UNL     1      26.955 -16.348  -3.819 -0.02 -0.00    +0.000 HD
DOCKED: ENDBRANCH  11  12
DOCKED: ENDBRANCH  10  11
DOCKED: ENDBRANCH   9  10
DOCKED: ENDBRANCH   1   9
DOCKED: TORSDOF 7
DOCKED: TER
DOCKED: ENDMDL
________________________________________________________________________________


	BEGINNING GENETIC ALGORITHM DOCKING 79 of 100
Run: 79 Seed: 605363285 1442695350 [ Run 79 of 100 GA/GALS ]
Beginning LAMARCKIAN GENETIC ALGORITHM (LGA), with a maximum of 2500000 energy evaluations.

Final-Value: -13.476


	FINAL GENETIC ALGORITHM DOCKED STATE
	_______________________________________________


Detailed state:  trans 25.142 -15.103 -0.472 quatxyzw -0.176028 0.221726 -0.149994 0.947287 center 0.010 0.634 0.018 ntor 7 63.6595 44.1846 96.3635 50.9922 -13.1518 -50.1828 -48.1451
State:	 25.142 -15.103  -0.472  -0.549  0.692 -0.468 37.372     63.66   44.18   96.36   50.99  -13.15  -50.18  -48.15

DOCKED: MODEL       79
DOCKED: USER    Run = 79
DOCKED: USER    DPF = ligand_dock.biased.dpf
DOCKED: USER  
DOCKED: USER    Estimated Free Energy of Binding    =  -10.93 kcal/mol  [=(1)+(2)+(3)-(4)]
DOCKED: USER    Estimated Inhibition Constant, Ki   =    9.79 nM (nanomolar)  [Temperature = 298.15 K]
DOCKED: USER    
DOCKED: USER    (1) Final Intermolecular Energy     =  -13.01 kcal/mol
DOCKED: USER        vdW + Hbond + desolv Energy     =  -13.01 kcal/mol
DOCKED: USER        Electrostatic Energy            =   +0.00 kcal/mol
DOCKED: USER    (2) Final Total Internal Energy     =   -0.46 kcal/mol
DOCKED: USER    (3) Torsional Free Energy           =   +2.09 kcal/mol
DOCKED: USER    (4) Unbound System's Energy  [=(2)] =   -0.46 kcal/mol
DOCKED: USER    
DOCKED: USER    
DOCKED: USER    NEWDPF move ligand.pdbqt
DOCKED: USER    NEWDPF about 0.010000 0.634000 0.018000
DOCKED: USER    NEWDPF tran0 25.142260 -15.102812 -0.471725
DOCKED: USER    NEWDPF quaternion0 -0.176028 0.221726 -0.149994 0.947287
DOCKED: USER    NEWDPF axisangle0 -0.549426 0.692061 -0.468169 37.372422
DOCKED: USER    NEWDPF quat0 -0.549426 0.692061 -0.468169 37.372422
DOCKED: USER    NEWDPF dihe0 63.66 44.18 96.36 50.99 -13.15 -50.18 -48.15 
DOCKED: USER  keepresnum = 1 
DOCKED: USER  
DOCKED: REMARK  Name = 
DOCKED: REMARK  7 active torsions:
DOCKED: REMARK  status: ('A' for Active; 'I' for Inactive)
DOCKED: REMARK    1  A    between atoms: C_3  and  C_4
DOCKED: REMARK    2  A    between atoms: C_4  and  C_5
DOCKED: REMARK    3  A    between atoms: C_5  and  C_6
DOCKED: REMARK    4  A    between atoms: C_6  and  C_7
DOCKED: REMARK    5  A    between atoms: C_7  and  C_8
DOCKED: REMARK    6  A    between atoms: C_8  and  C_9
DOCKED: REMARK    7  A    between atoms: C_9  and  C_10
DOCKED: REMARK                            x       y       z     vdW  Elec       q    Type
DOCKED: REMARK                         _______ _______ _______ _____ _____    ______ ____
DOCKED: USER                              x       y       z     vdW  Elec       q    Type
DOCKED: USER                           _______ _______ _______ _____ _____    ______ ____
DOCKED: ROOT
DOCKED: ATOM      1  C   UNL     1      26.159 -17.063  -0.432 -0.56 -0.00    +0.000 C 
DOCKED: ENDROOT
DOCKED: BRANCH   1   2
DOCKED: ATOM      2  C   UNL     1      26.862 -15.803  -0.962 -0.40 -0.00    +0.000 C 
DOCKED: BRANCH   2   3
DOCKED: ATOM      3  C   UNL     1      28.005 -15.382  -0.034 -0.28 -0.00    +0.000 C 
DOCKED: BRANCH   3   6
DOCKED: ATOM      4  O   UNL     1      27.619 -13.946   3.443 -0.48 -0.00    +0.000 OA
DOCKED: ATOM      5  N   UNL     1      28.103 -14.657   2.398 -0.25 -0.00    +0.000 N 
DOCKED: ATOM      6  C   UNL     1      27.477 -14.577   1.116 -0.27 -0.00    +0.000 C 
DOCKED: ATOM      7  O   UNL     1      26.454 -13.858   0.958 -0.33 -0.00    +0.000 OA
DOCKED: ATOM      8  H   UNL     1      28.891 -15.234   2.522 -1.95 -0.00    +0.000 HD
DOCKED: ENDBRANCH   3   6
DOCKED: ENDBRANCH   2   3
DOCKED: ENDBRANCH   1   2
DOCKED: BRANCH   1   9
DOCKED: ATOM      9  C   UNL     1      24.914 -17.446  -1.252 -0.69 -0.00    +0.000 C 
DOCKED: BRANCH   9  10
DOCKED: ATOM     10  C   UNL     1      23.570 -17.229  -0.534 -0.66 -0.00    +0.000 C 
DOCKED: BRANCH  10  11
DOCKED: ATOM     11  C   UNL     1      22.854 -18.543  -0.194 -0.80 -0.00    +0.000 C 
DOCKED: BRANCH  11  12
DOCKED: ATOM     12  C   UNL     1      21.499 -18.581  -0.833 -0.84 -0.00    +0.000 C 
DOCKED: ATOM     13  N   UNL     1      21.099 -19.715  -1.605 -0.68 -0.00    +0.000 N 
DOCKED: ATOM     14  O   UNL     1      19.882 -19.746  -2.199 -2.32 -0.00    +0.000 OA
DOCKED: ATOM     15  O   UNL     1      20.728 -17.590  -0.722 -2.14 +0.00    +0.000 OA
DOCKED: ATOM     16  H   UNL     1      21.711 -20.479  -1.706 -0.38 -0.00    +0.000 HD
DOCKED: ENDBRANCH  11  12
DOCKED: ENDBRANCH  10  11
DOCKED: ENDBRANCH   9  10
DOCKED: ENDBRANCH   1   9
DOCKED: TORSDOF 7
DOCKED: TER
DOCKED: ENDMDL
________________________________________________________________________________


	BEGINNING GENETIC ALGORITHM DOCKING 80 of 100
Run: 80 Seed: 1048510524 154498391 [ Run 80 of 100 GA/GALS ]
Beginning LAMARCKIAN GENETIC ALGORITHM (LGA), with a maximum of 2500000 energy evaluations.

Final-Value: -12.967


	FINAL GENETIC ALGORITHM DOCKED STATE
	_______________________________________________


Detailed state:  trans 24.574 -19.659 -1.125 quatxyzw 0.611902 -0.107304 0.783606 -0.004855 center 0.010 0.634 0.018 ntor 7 141.3876 120.7619 23.1024 -91.2870 -176.8367 -177.1347 151.0126
State:	 24.574 -19.659  -1.125   0.612 -0.107  0.784 -179.444    141.39  120.76   23.10  -91.29 -176.84 -177.13  151.01

DOCKED: MODEL       80
DOCKED: USER    Run = 80
DOCKED: USER    DPF = ligand_dock.biased.dpf
DOCKED: USER  
DOCKED: USER    Estimated Free Energy of Binding    =  -10.36 kcal/mol  [=(1)+(2)+(3)-(4)]
DOCKED: USER    Estimated Inhibition Constant, Ki   =   25.57 nM (nanomolar)  [Temperature = 298.15 K]
DOCKED: USER    
DOCKED: USER    (1) Final Intermolecular Energy     =  -12.45 kcal/mol
DOCKED: USER        vdW + Hbond + desolv Energy     =  -12.45 kcal/mol
DOCKED: USER        Electrostatic Energy            =   +0.00 kcal/mol
DOCKED: USER    (2) Final Total Internal Energy     =   -0.52 kcal/mol
DOCKED: USER    (3) Torsional Free Energy           =   +2.09 kcal/mol
DOCKED: USER    (4) Unbound System's Energy  [=(2)] =   -0.52 kcal/mol
DOCKED: USER    
DOCKED: USER    
DOCKED: USER    NEWDPF move ligand.pdbqt
DOCKED: USER    NEWDPF about 0.010000 0.634000 0.018000
DOCKED: USER    NEWDPF tran0 24.573662 -19.658886 -1.125421
DOCKED: USER    NEWDPF quaternion0 0.611902 -0.107304 0.783606 -0.004855
DOCKED: USER    NEWDPF axisangle0 0.611909 -0.107305 0.783615 -179.443614
DOCKED: USER    NEWDPF quat0 0.611909 -0.107305 0.783615 -179.443614
DOCKED: USER    NEWDPF dihe0 141.39 120.76 23.10 -91.29 -176.84 -177.13 151.01 
DOCKED: USER  keepresnum = 1 
DOCKED: USER  
DOCKED: REMARK  Name = 
DOCKED: REMARK  7 active torsions:
DOCKED: REMARK  status: ('A' for Active; 'I' for Inactive)
DOCKED: REMARK    1  A    between atoms: C_3  and  C_4
DOCKED: REMARK    2  A    between atoms: C_4  and  C_5
DOCKED: REMARK    3  A    between atoms: C_5  and  C_6
DOCKED: REMARK    4  A    between atoms: C_6  and  C_7
DOCKED: REMARK    5  A    between atoms: C_7  and  C_8
DOCKED: REMARK    6  A    between atoms: C_8  and  C_9
DOCKED: REMARK    7  A    between atoms: C_9  and  C_10
DOCKED: REMARK                            x       y       z     vdW  Elec       q    Type
DOCKED: REMARK                         _______ _______ _______ _____ _____    ______ ____
DOCKED: USER                              x       y       z     vdW  Elec       q    Type
DOCKED: USER                           _______ _______ _______ _____ _____    ______ ____
DOCKED: ROOT
DOCKED: ATOM      1  C   UNL     1      25.170 -17.737  -0.216 -0.63 -0.00    +0.000 C 
DOCKED: ENDROOT
DOCKED: BRANCH   1   2
DOCKED: ATOM      2  C   UNL     1      23.759 -18.315  -0.023 -0.71 -0.00    +0.000 C 
DOCKED: BRANCH   2   3
DOCKED: ATOM      3  C   UNL     1      23.127 -18.678  -1.369 -0.78 -0.00    +0.000 C 
DOCKED: BRANCH   3   6
DOCKED: ATOM      4  O   UNL     1      19.516 -19.731  -1.761 -2.13 -0.00    +0.000 OA
DOCKED: ATOM      5  N   UNL     1      20.867 -19.738  -1.838 -0.71 -0.00    +0.000 N 
DOCKED: ATOM      6  C   UNL     1      21.631 -18.677  -1.264 -0.62 -0.00    +0.000 C 
DOCKED: ATOM      7  O   UNL     1      21.045 -17.714  -0.699 -2.09 -0.00    +0.000 OA
DOCKED: ATOM      8  H   UNL     1      21.327 -20.480  -2.294 -0.52 -0.00    +0.000 HD
DOCKED: ENDBRANCH   3   6
DOCKED: ENDBRANCH   2   3
DOCKED: ENDBRANCH   1   2
DOCKED: BRANCH   1   9
DOCKED: ATOM      9  C   UNL     1      25.495 -17.426  -1.687 -0.58 -0.00    +0.000 C 
DOCKED: BRANCH   9  10
DOCKED: ATOM     10  C   UNL     1      25.117 -16.008  -2.152 -0.55 -0.00    +0.000 C 
DOCKED: BRANCH  10  11
DOCKED: ATOM     11  C   UNL     1      26.317 -15.212  -2.682 -0.44 -0.00    +0.000 C 
DOCKED: BRANCH  11  12
DOCKED: ATOM     12  C   UNL     1      26.391 -15.309  -4.176 -0.54 -0.00    +0.000 C 
DOCKED: ATOM     13  N   UNL     1      27.643 -15.157  -4.847 -0.40 -0.00    +0.000 N 
DOCKED: ATOM     14  O   UNL     1      27.711 -15.226  -6.197 -0.92 +0.00    +0.000 OA
DOCKED: ATOM     15  O   UNL     1      25.336 -15.485  -4.843 -0.81 -0.00    +0.000 OA
DOCKED: ATOM     16  H   UNL     1      28.462 -15.000  -4.324 -0.00 -0.00    +0.000 HD
DOCKED: ENDBRANCH  11  12
DOCKED: ENDBRANCH  10  11
DOCKED: ENDBRANCH   9  10
DOCKED: ENDBRANCH   1   9
DOCKED: TORSDOF 7
DOCKED: TER
DOCKED: ENDMDL
________________________________________________________________________________


	BEGINNING GENETIC ALGORITHM DOCKING 81 of 100
Run: 81 Seed: 192253819 773600796 [ Run 81 of 100 GA/GALS ]
Beginning LAMARCKIAN GENETIC ALGORITHM (LGA), with a maximum of 2500000 energy evaluations.

Final-Value: -12.502


	FINAL GENETIC ALGORITHM DOCKED STATE
	_______________________________________________


Detailed state:  trans 23.759 -15.151 -1.051 quatxyzw -0.334706 0.909172 0.048737 -0.242904 center 0.010 0.634 0.018 ntor 7 65.5325 -168.3199 39.8065 -114.3235 42.4349 83.0657 -114.0246
State:	 23.759 -15.151  -1.051  -0.345  0.937  0.050 -151.884     65.53 -168.32   39.81 -114.32   42.43   83.07 -114.02

DOCKED: MODEL       81
DOCKED: USER    Run = 81
DOCKED: USER    DPF = ligand_dock.biased.dpf
DOCKED: USER  
DOCKED: USER    Estimated Free Energy of Binding    =   -9.91 kcal/mol  [=(1)+(2)+(3)-(4)]
DOCKED: USER    Estimated Inhibition Constant, Ki   =   54.10 nM (nanomolar)  [Temperature = 298.15 K]
DOCKED: USER    
DOCKED: USER    (1) Final Intermolecular Energy     =  -12.00 kcal/mol
DOCKED: USER        vdW + Hbond + desolv Energy     =  -12.00 kcal/mol
DOCKED: USER        Electrostatic Energy            =   +0.00 kcal/mol
DOCKED: USER    (2) Final Total Internal Energy     =   -0.50 kcal/mol
DOCKED: USER    (3) Torsional Free Energy           =   +2.09 kcal/mol
DOCKED: USER    (4) Unbound System's Energy  [=(2)] =   -0.50 kcal/mol
DOCKED: USER    
DOCKED: USER    
DOCKED: USER    NEWDPF move ligand.pdbqt
DOCKED: USER    NEWDPF about 0.010000 0.634000 0.018000
DOCKED: USER    NEWDPF tran0 23.758756 -15.151221 -1.051073
DOCKED: USER    NEWDPF quaternion0 -0.334706 0.909172 0.048737 -0.242904
DOCKED: USER    NEWDPF axisangle0 -0.345040 0.937242 0.050242 -151.883979
DOCKED: USER    NEWDPF quat0 -0.345040 0.937242 0.050242 -151.883979
DOCKED: USER    NEWDPF dihe0 65.53 -168.32 39.81 -114.32 42.43 83.07 -114.02 
DOCKED: USER  keepresnum = 1 
DOCKED: USER  
DOCKED: REMARK  Name = 
DOCKED: REMARK  7 active torsions:
DOCKED: REMARK  status: ('A' for Active; 'I' for Inactive)
DOCKED: REMARK    1  A    between atoms: C_3  and  C_4
DOCKED: REMARK    2  A    between atoms: C_4  and  C_5
DOCKED: REMARK    3  A    between atoms: C_5  and  C_6
DOCKED: REMARK    4  A    between atoms: C_6  and  C_7
DOCKED: REMARK    5  A    between atoms: C_7  and  C_8
DOCKED: REMARK    6  A    between atoms: C_8  and  C_9
DOCKED: REMARK    7  A    between atoms: C_9  and  C_10
DOCKED: REMARK                            x       y       z     vdW  Elec       q    Type
DOCKED: REMARK                         _______ _______ _______ _____ _____    ______ ____
DOCKED: USER                              x       y       z     vdW  Elec       q    Type
DOCKED: USER                           _______ _______ _______ _____ _____    ______ ____
DOCKED: ROOT
DOCKED: ATOM      1  C   UNL     1      24.953 -16.950  -1.515 -0.64 -0.00    +0.000 C 
DOCKED: ENDROOT
DOCKED: BRANCH   1   2
DOCKED: ATOM      2  C   UNL     1      23.597 -17.048  -0.800 -0.67 -0.00    +0.000 C 
DOCKED: BRANCH   2   3
DOCKED: ATOM      3  C   UNL     1      23.101 -18.496  -0.763 -0.83 -0.00    +0.000 C 
DOCKED: BRANCH   3   6
DOCKED: ATOM      4  O   UNL     1      19.727 -19.733  -1.940 -2.25 -0.00    +0.000 OA
DOCKED: ATOM      5  N   UNL     1      21.055 -19.686  -1.683 -0.69 -0.00    +0.000 N 
DOCKED: ATOM      6  C   UNL     1      21.626 -18.553  -1.028 -0.80 -0.00    +0.000 C 
DOCKED: ATOM      7  O   UNL     1      20.896 -17.577  -0.706 -2.11 +0.00    +0.000 OA
DOCKED: ATOM      8  H   UNL     1      21.631 -20.439  -1.949 -0.46 -0.00    +0.000 HD
DOCKED: ENDBRANCH   3   6
DOCKED: ENDBRANCH   2   3
DOCKED: ENDBRANCH   1   2
DOCKED: BRANCH   1   9
DOCKED: ATOM      9  C   UNL     1      26.000 -16.157  -0.711 -0.48 -0.00    +0.000 C 
DOCKED: BRANCH   9  10
DOCKED: ATOM     10  C   UNL     1      27.343 -15.936  -1.431 -0.36 -0.00    +0.000 C 
DOCKED: BRANCH  10  11
DOCKED: ATOM     11  C   UNL     1      27.233 -16.063  -2.956 -0.30 -0.00    +0.000 C 
DOCKED: BRANCH  11  12
DOCKED: ATOM     12  C   UNL     1      26.532 -14.869  -3.531 -0.46 -0.00    +0.000 C 
DOCKED: ATOM     13  N   UNL     1      25.105 -14.808  -3.544 -0.51 -0.00    +0.000 N 
DOCKED: ATOM     14  O   UNL     1      24.468 -13.739  -4.078 -1.13 -0.00    +0.000 OA
DOCKED: ATOM     15  O   UNL     1      27.207 -13.935  -4.041 -0.29 -0.00    +0.000 OA
DOCKED: ATOM     16  H   UNL     1      24.580 -15.548  -3.162 -0.04 -0.00    +0.000 HD
DOCKED: ENDBRANCH  11  12
DOCKED: ENDBRANCH  10  11
DOCKED: ENDBRANCH   9  10
DOCKED: ENDBRANCH   1   9
DOCKED: TORSDOF 7
DOCKED: TER
DOCKED: ENDMDL
________________________________________________________________________________


	BEGINNING GENETIC ALGORITHM DOCKING 82 of 100
Run: 82 Seed: 51319947 54180466 [ Run 82 of 100 GA/GALS ]
Beginning LAMARCKIAN GENETIC ALGORITHM (LGA), with a maximum of 2500000 energy evaluations.

Final-Value: -11.889


	FINAL GENETIC ALGORITHM DOCKED STATE
	_______________________________________________


Detailed state:  trans 22.981 -16.938 -1.284 quatxyzw -0.566823 0.676852 0.363359 -0.297578 center 0.010 0.634 0.018 ntor 7 -45.5240 -51.3063 -51.0797 -117.5419 -159.7292 -10.3909 -110.2192
State:	 22.981 -16.938  -1.284  -0.594  0.709  0.381 -145.376    -45.52  -51.31  -51.08 -117.54 -159.73  -10.39 -110.22

DOCKED: MODEL       82
DOCKED: USER    Run = 82
DOCKED: USER    DPF = ligand_dock.biased.dpf
DOCKED: USER  
DOCKED: USER    Estimated Free Energy of Binding    =   -9.26 kcal/mol  [=(1)+(2)+(3)-(4)]
DOCKED: USER    Estimated Inhibition Constant, Ki   =  161.89 nM (nanomolar)  [Temperature = 298.15 K]
DOCKED: USER    
DOCKED: USER    (1) Final Intermolecular Energy     =  -11.35 kcal/mol
DOCKED: USER        vdW + Hbond + desolv Energy     =  -11.35 kcal/mol
DOCKED: USER        Electrostatic Energy            =   +0.00 kcal/mol
DOCKED: USER    (2) Final Total Internal Energy     =   -0.54 kcal/mol
DOCKED: USER    (3) Torsional Free Energy           =   +2.09 kcal/mol
DOCKED: USER    (4) Unbound System's Energy  [=(2)] =   -0.54 kcal/mol
DOCKED: USER    
DOCKED: USER    
DOCKED: USER    NEWDPF move ligand.pdbqt
DOCKED: USER    NEWDPF about 0.010000 0.634000 0.018000
DOCKED: USER    NEWDPF tran0 22.980993 -16.938109 -1.283721
DOCKED: USER    NEWDPF quaternion0 -0.566823 0.676852 0.363359 -0.297578
DOCKED: USER    NEWDPF axisangle0 -0.593720 0.708971 0.380601 -145.375578
DOCKED: USER    NEWDPF quat0 -0.593720 0.708971 0.380601 -145.375578
DOCKED: USER    NEWDPF dihe0 -45.52 -51.31 -51.08 -117.54 -159.73 -10.39 -110.22 
DOCKED: USER  keepresnum = 1 
DOCKED: USER  
DOCKED: REMARK  Name = 
DOCKED: REMARK  7 active torsions:
DOCKED: REMARK  status: ('A' for Active; 'I' for Inactive)
DOCKED: REMARK    1  A    between atoms: C_3  and  C_4
DOCKED: REMARK    2  A    between atoms: C_4  and  C_5
DOCKED: REMARK    3  A    between atoms: C_5  and  C_6
DOCKED: REMARK    4  A    between atoms: C_6  and  C_7
DOCKED: REMARK    5  A    between atoms: C_7  and  C_8
DOCKED: REMARK    6  A    between atoms: C_8  and  C_9
DOCKED: REMARK    7  A    between atoms: C_9  and  C_10
DOCKED: REMARK                            x       y       z     vdW  Elec       q    Type
DOCKED: REMARK                         _______ _______ _______ _____ _____    ______ ____
DOCKED: USER                              x       y       z     vdW  Elec       q    Type
DOCKED: USER                           _______ _______ _______ _____ _____    ______ ____
DOCKED: ROOT
DOCKED: ATOM      1  C   UNL     1      24.963 -17.035  -2.254 -0.56 -0.00    +0.000 C 
DOCKED: ENDROOT
DOCKED: BRANCH   1   2
DOCKED: ATOM      2  C   UNL     1      24.146 -18.304  -1.964 -0.40 -0.00    +0.000 C 
DOCKED: BRANCH   2   3
DOCKED: ATOM      3  C   UNL     1      23.353 -18.161  -0.662 -0.81 -0.00    +0.000 C 
DOCKED: BRANCH   3   6
DOCKED: ATOM      4  O   UNL     1      20.278 -19.940  -1.959 -2.30 -0.00    +0.000 OA
DOCKED: ATOM      5  N   UNL     1      21.575 -19.614  -1.745 -0.44 -0.00    +0.000 N 
DOCKED: ATOM      6  C   UNL     1      21.917 -18.531  -0.880 -0.83 -0.00    +0.000 C 
DOCKED: ATOM      7  O   UNL     1      21.007 -17.857  -0.325 -1.91 +0.00    +0.000 OA
DOCKED: ATOM      8  H   UNL     1      22.287 -20.128  -2.191 -0.54 -0.00    +0.000 HD
DOCKED: ENDBRANCH   3   6
DOCKED: ENDBRANCH   2   3
DOCKED: ENDBRANCH   1   2
DOCKED: BRANCH   1   9
DOCKED: ATOM      9  C   UNL     1      25.348 -16.265  -0.978 -0.53 -0.00    +0.000 C 
DOCKED: BRANCH   9  10
DOCKED: ATOM     10  C   UNL     1      25.990 -14.886  -1.218 -0.38 -0.00    +0.000 C 
DOCKED: BRANCH  10  11
DOCKED: ATOM     11  C   UNL     1      27.418 -14.979  -1.770 -0.27 -0.00    +0.000 C 
DOCKED: BRANCH  11  12
DOCKED: ATOM     12  C   UNL     1      27.402 -15.484  -3.181 -0.34 -0.00    +0.000 C 
DOCKED: ATOM     13  N   UNL     1      26.326 -15.141  -4.057 -0.49 -0.00    +0.000 N 
DOCKED: ATOM     14  O   UNL     1      26.299 -15.609  -5.327 -1.20 +0.00    +0.000 OA
DOCKED: ATOM     15  O   UNL     1      28.321 -16.248  -3.582 -0.32 -0.00    +0.000 OA
DOCKED: ATOM     16  H   UNL     1      25.600 -14.560  -3.735 -0.03 -0.00    +0.000 HD
DOCKED: ENDBRANCH  11  12
DOCKED: ENDBRANCH  10  11
DOCKED: ENDBRANCH   9  10
DOCKED: ENDBRANCH   1   9
DOCKED: TORSDOF 7
DOCKED: TER
DOCKED: ENDMDL
________________________________________________________________________________


	BEGINNING GENETIC ALGORITHM DOCKING 83 of 100
Run: 83 Seed: 246578474 192926546 [ Run 83 of 100 GA/GALS ]
Beginning LAMARCKIAN GENETIC ALGORITHM (LGA), with a maximum of 2500000 energy evaluations.

Final-Value: -12.869


	FINAL GENETIC ALGORITHM DOCKED STATE
	_______________________________________________


Detailed state:  trans 24.233 -19.075 -1.587 quatxyzw 0.569355 -0.416472 0.708789 -0.002038 center 0.010 0.634 0.018 ntor 7 163.3002 166.1665 -7.9269 166.3891 -155.6683 -90.4944 -176.1263
State:	 24.233 -19.075  -1.587   0.569 -0.416  0.709 -179.766    163.30  166.17   -7.93  166.39 -155.67  -90.49 -176.13

DOCKED: MODEL       83
DOCKED: USER    Run = 83
DOCKED: USER    DPF = ligand_dock.biased.dpf
DOCKED: USER  
DOCKED: USER    Estimated Free Energy of Binding    =  -10.11 kcal/mol  [=(1)+(2)+(3)-(4)]
DOCKED: USER    Estimated Inhibition Constant, Ki   =   38.97 nM (nanomolar)  [Temperature = 298.15 K]
DOCKED: USER    
DOCKED: USER    (1) Final Intermolecular Energy     =  -12.20 kcal/mol
DOCKED: USER        vdW + Hbond + desolv Energy     =  -12.20 kcal/mol
DOCKED: USER        Electrostatic Energy            =   +0.00 kcal/mol
DOCKED: USER    (2) Final Total Internal Energy     =   -0.67 kcal/mol
DOCKED: USER    (3) Torsional Free Energy           =   +2.09 kcal/mol
DOCKED: USER    (4) Unbound System's Energy  [=(2)] =   -0.67 kcal/mol
DOCKED: USER    
DOCKED: USER    
DOCKED: USER    NEWDPF move ligand.pdbqt
DOCKED: USER    NEWDPF about 0.010000 0.634000 0.018000
DOCKED: USER    NEWDPF tran0 24.233401 -19.074655 -1.586871
DOCKED: USER    NEWDPF quaternion0 0.569355 -0.416472 0.708789 -0.002038
DOCKED: USER    NEWDPF axisangle0 0.569356 -0.416473 0.708790 -179.766446
DOCKED: USER    NEWDPF quat0 0.569356 -0.416473 0.708790 -179.766446
DOCKED: USER    NEWDPF dihe0 163.30 166.17 -7.93 166.39 -155.67 -90.49 -176.13 
DOCKED: USER  keepresnum = 1 
DOCKED: USER  
DOCKED: REMARK  Name = 
DOCKED: REMARK  7 active torsions:
DOCKED: REMARK  status: ('A' for Active; 'I' for Inactive)
DOCKED: REMARK    1  A    between atoms: C_3  and  C_4
DOCKED: REMARK    2  A    between atoms: C_4  and  C_5
DOCKED: REMARK    3  A    between atoms: C_5  and  C_6
DOCKED: REMARK    4  A    between atoms: C_6  and  C_7
DOCKED: REMARK    5  A    between atoms: C_7  and  C_8
DOCKED: REMARK    6  A    between atoms: C_8  and  C_9
DOCKED: REMARK    7  A    between atoms: C_9  and  C_10
DOCKED: REMARK                            x       y       z     vdW  Elec       q    Type
DOCKED: REMARK                         _______ _______ _______ _____ _____    ______ ____
DOCKED: USER                              x       y       z     vdW  Elec       q    Type
DOCKED: USER                           _______ _______ _______ _____ _____    ______ ____
DOCKED: ROOT
DOCKED: ATOM      1  C   UNL     1      25.426 -18.190   0.048 -0.66 -0.00    +0.000 C 
DOCKED: ENDROOT
DOCKED: BRANCH   1   2
DOCKED: ATOM      2  C   UNL     1      23.891 -18.239   0.108 -0.67 -0.00    +0.000 C 
DOCKED: BRANCH   2   3
DOCKED: ATOM      3  C   UNL     1      23.285 -18.163  -1.296 -0.77 -0.00    +0.000 C 
DOCKED: BRANCH   3   6
DOCKED: ATOM      4  O   UNL     1      19.885 -19.741  -1.796 -2.39 -0.00    +0.000 OA
DOCKED: ATOM      5  N   UNL     1      21.225 -19.548  -1.829 -0.60 -0.00    +0.000 N 
DOCKED: ATOM      6  C   UNL     1      21.803 -18.382  -1.241 -0.50 -0.00    +0.000 C 
DOCKED: ATOM      7  O   UNL     1      21.063 -17.513  -0.707 -2.03 -0.00    +0.000 OA
DOCKED: ATOM      8  H   UNL     1      21.804 -20.217  -2.260 -0.57 -0.00    +0.000 HD
DOCKED: ENDBRANCH   3   6
DOCKED: ENDBRANCH   2   3
DOCKED: ENDBRANCH   1   2
DOCKED: BRANCH   1   9
DOCKED: ATOM      9  C   UNL     1      25.955 -17.350  -1.128 -0.59 -0.00    +0.000 C 
DOCKED: BRANCH   9  10
DOCKED: ATOM     10  C   UNL     1      26.877 -16.182  -0.731 -0.43 -0.00    +0.000 C 
DOCKED: BRANCH  10  11
DOCKED: ATOM     11  C   UNL     1      26.831 -15.018  -1.728 -0.33 -0.00    +0.000 C 
DOCKED: BRANCH  11  12
DOCKED: ATOM     12  C   UNL     1      26.001 -15.383  -2.921 -0.51 -0.00    +0.000 C 
DOCKED: ATOM     13  N   UNL     1      26.623 -15.626  -4.184 -0.47 -0.00    +0.000 N 
DOCKED: ATOM     14  O   UNL     1      25.875 -15.940  -5.269 -1.12 +0.00    +0.000 OA
DOCKED: ATOM     15  O   UNL     1      24.746 -15.436  -2.816 -0.53 -0.00    +0.000 OA
DOCKED: ATOM     16  H   UNL     1      27.602 -15.565  -4.268 -0.02 -0.00    +0.000 HD
DOCKED: ENDBRANCH  11  12
DOCKED: ENDBRANCH  10  11
DOCKED: ENDBRANCH   9  10
DOCKED: ENDBRANCH   1   9
DOCKED: TORSDOF 7
DOCKED: TER
DOCKED: ENDMDL
________________________________________________________________________________


	BEGINNING GENETIC ALGORITHM DOCKING 84 of 100
Run: 84 Seed: 2136567306 318404784 [ Run 84 of 100 GA/GALS ]
Beginning LAMARCKIAN GENETIC ALGORITHM (LGA), with a maximum of 2500000 energy evaluations.

Final-Value: -12.260


	FINAL GENETIC ALGORITHM DOCKED STATE
	_______________________________________________


Detailed state:  trans 26.715 -16.004 0.293 quatxyzw 0.365552 -0.126935 -0.229399 -0.893104 center 0.010 0.634 0.018 ntor 7 16.2343 10.5504 85.0428 -25.4337 168.5591 169.6585 -139.2240
State:	 26.715 -16.004   0.293   0.813 -0.282 -0.510 -53.468     16.23   10.55   85.04  -25.43  168.56  169.66 -139.22

DOCKED: MODEL       84
DOCKED: USER    Run = 84
DOCKED: USER    DPF = ligand_dock.biased.dpf
DOCKED: USER  
DOCKED: USER    Estimated Free Energy of Binding    =   -9.59 kcal/mol  [=(1)+(2)+(3)-(4)]
DOCKED: USER    Estimated Inhibition Constant, Ki   =   93.01 nM (nanomolar)  [Temperature = 298.15 K]
DOCKED: USER    
DOCKED: USER    (1) Final Intermolecular Energy     =  -11.68 kcal/mol
DOCKED: USER        vdW + Hbond + desolv Energy     =  -11.68 kcal/mol
DOCKED: USER        Electrostatic Energy            =   +0.00 kcal/mol
DOCKED: USER    (2) Final Total Internal Energy     =   -0.58 kcal/mol
DOCKED: USER    (3) Torsional Free Energy           =   +2.09 kcal/mol
DOCKED: USER    (4) Unbound System's Energy  [=(2)] =   -0.58 kcal/mol
DOCKED: USER    
DOCKED: USER    
DOCKED: USER    NEWDPF move ligand.pdbqt
DOCKED: USER    NEWDPF about 0.010000 0.634000 0.018000
DOCKED: USER    NEWDPF tran0 26.714933 -16.003845 0.293189
DOCKED: USER    NEWDPF quaternion0 0.365552 -0.126935 -0.229399 -0.893104
DOCKED: USER    NEWDPF axisangle0 0.812609 -0.282173 -0.509946 -53.468053
DOCKED: USER    NEWDPF quat0 0.812609 -0.282173 -0.509946 -53.468053
DOCKED: USER    NEWDPF dihe0 16.23 10.55 85.04 -25.43 168.56 169.66 -139.22 
DOCKED: USER  keepresnum = 1 
DOCKED: USER  
DOCKED: REMARK  Name = 
DOCKED: REMARK  7 active torsions:
DOCKED: REMARK  status: ('A' for Active; 'I' for Inactive)
DOCKED: REMARK    1  A    between atoms: C_3  and  C_4
DOCKED: REMARK    2  A    between atoms: C_4  and  C_5
DOCKED: REMARK    3  A    between atoms: C_5  and  C_6
DOCKED: REMARK    4  A    between atoms: C_6  and  C_7
DOCKED: REMARK    5  A    between atoms: C_7  and  C_8
DOCKED: REMARK    6  A    between atoms: C_8  and  C_9
DOCKED: REMARK    7  A    between atoms: C_9  and  C_10
DOCKED: REMARK                            x       y       z     vdW  Elec       q    Type
DOCKED: REMARK                         _______ _______ _______ _____ _____    ______ ____
DOCKED: USER                              x       y       z     vdW  Elec       q    Type
DOCKED: USER                           _______ _______ _______ _____ _____    ______ ____
DOCKED: ROOT
DOCKED: ATOM      1  C   UNL     1      26.291 -17.835  -0.866 -0.57 -0.00    +0.000 C 
DOCKED: ENDROOT
DOCKED: BRANCH   1   2
DOCKED: ATOM      2  C   UNL     1      27.525 -16.967  -1.157 -0.43 -0.00    +0.000 C 
DOCKED: BRANCH   2   3
DOCKED: ATOM      3  C   UNL     1      27.114 -15.594  -1.697 -0.35 -0.00    +0.000 C 
DOCKED: BRANCH   3   6
DOCKED: ATOM      4  O   UNL     1      25.885 -15.774  -5.269 -1.12 +0.00    +0.000 OA
DOCKED: ATOM      5  N   UNL     1      25.888 -15.751  -3.915 -0.55 -0.00    +0.000 N 
DOCKED: ATOM      6  C   UNL     1      27.113 -15.598  -3.196 -0.39 -0.00    +0.000 C 
DOCKED: ATOM      7  O   UNL     1      28.203 -15.506  -3.822 -0.31 -0.00    +0.000 OA
DOCKED: ATOM      8  H   UNL     1      25.041 -15.841  -3.423 -0.04 -0.00    +0.000 HD
DOCKED: ENDBRANCH   3   6
DOCKED: ENDBRANCH   2   3
DOCKED: ENDBRANCH   1   2
DOCKED: BRANCH   1   9
DOCKED: ATOM      9  C   UNL     1      24.965 -17.087  -1.090 -0.66 -0.00    +0.000 C 
DOCKED: BRANCH   9  10
DOCKED: ATOM     10  C   UNL     1      23.736 -17.990  -1.305 -0.77 -0.00    +0.000 C 
DOCKED: BRANCH  10  11
DOCKED: ATOM     11  C   UNL     1      22.776 -17.990  -0.108 -0.75 -0.00    +0.000 C 
DOCKED: BRANCH  11  12
DOCKED: ATOM     12  C   UNL     1      21.431 -18.508  -0.517 -0.82 -0.00    +0.000 C 
DOCKED: ATOM     13  N   UNL     1      21.095 -19.881  -0.312 -0.68 -0.00    +0.000 N 
DOCKED: ATOM     14  O   UNL     1      19.886 -20.357  -0.696 -1.48 -0.00    +0.000 OA
DOCKED: ATOM     15  O   UNL     1      20.609 -17.735  -1.080 -2.18 -0.00    +0.000 OA
DOCKED: ATOM     16  H   UNL     1      21.746 -20.486   0.111 -0.59 -0.00    +0.000 HD
DOCKED: ENDBRANCH  11  12
DOCKED: ENDBRANCH  10  11
DOCKED: ENDBRANCH   9  10
DOCKED: ENDBRANCH   1   9
DOCKED: TORSDOF 7
DOCKED: TER
DOCKED: ENDMDL
________________________________________________________________________________


	BEGINNING GENETIC ALGORITHM DOCKING 85 of 100
Run: 85 Seed: 415293165 1818826172 [ Run 85 of 100 GA/GALS ]
Beginning LAMARCKIAN GENETIC ALGORITHM (LGA), with a maximum of 2500000 energy evaluations.

Final-Value: -12.456


	FINAL GENETIC ALGORITHM DOCKED STATE
	_______________________________________________


Detailed state:  trans 25.663 -18.410 -2.075 quatxyzw -0.230501 0.283726 -0.909558 -0.197668 center 0.010 0.634 0.018 ntor 7 64.4703 -45.2584 -62.0580 -35.8907 -34.7733 -55.7235 -127.7972
State:	 25.663 -18.410  -2.075  -0.235  0.289 -0.928 -157.199     64.47  -45.26  -62.06  -35.89  -34.77  -55.72 -127.80

DOCKED: MODEL       85
DOCKED: USER    Run = 85
DOCKED: USER    DPF = ligand_dock.biased.dpf
DOCKED: USER  
DOCKED: USER    Estimated Free Energy of Binding    =   -9.98 kcal/mol  [=(1)+(2)+(3)-(4)]
DOCKED: USER    Estimated Inhibition Constant, Ki   =   48.45 nM (nanomolar)  [Temperature = 298.15 K]
DOCKED: USER    
DOCKED: USER    (1) Final Intermolecular Energy     =  -12.07 kcal/mol
DOCKED: USER        vdW + Hbond + desolv Energy     =  -12.07 kcal/mol
DOCKED: USER        Electrostatic Energy            =   +0.00 kcal/mol
DOCKED: USER    (2) Final Total Internal Energy     =   -0.39 kcal/mol
DOCKED: USER    (3) Torsional Free Energy           =   +2.09 kcal/mol
DOCKED: USER    (4) Unbound System's Energy  [=(2)] =   -0.39 kcal/mol
DOCKED: USER    
DOCKED: USER    
DOCKED: USER    NEWDPF move ligand.pdbqt
DOCKED: USER    NEWDPF about 0.010000 0.634000 0.018000
DOCKED: USER    NEWDPF tran0 25.663475 -18.409866 -2.075021
DOCKED: USER    NEWDPF quaternion0 -0.230501 0.283726 -0.909558 -0.197668
DOCKED: USER    NEWDPF axisangle0 -0.235141 0.289437 -0.927866 -157.198806
DOCKED: USER    NEWDPF quat0 -0.235141 0.289437 -0.927866 -157.198806
DOCKED: USER    NEWDPF dihe0 64.47 -45.26 -62.06 -35.89 -34.77 -55.72 -127.80 
DOCKED: USER  keepresnum = 1 
DOCKED: USER  
DOCKED: REMARK  Name = 
DOCKED: REMARK  7 active torsions:
DOCKED: REMARK  status: ('A' for Active; 'I' for Inactive)
DOCKED: REMARK    1  A    between atoms: C_3  and  C_4
DOCKED: REMARK    2  A    between atoms: C_4  and  C_5
DOCKED: REMARK    3  A    between atoms: C_5  and  C_6
DOCKED: REMARK    4  A    between atoms: C_6  and  C_7
DOCKED: REMARK    5  A    between atoms: C_7  and  C_8
DOCKED: REMARK    6  A    between atoms: C_8  and  C_9
DOCKED: REMARK    7  A    between atoms: C_9  and  C_10
DOCKED: REMARK                            x       y       z     vdW  Elec       q    Type
DOCKED: REMARK                         _______ _______ _______ _____ _____    ______ ____
DOCKED: USER                              x       y       z     vdW  Elec       q    Type
DOCKED: USER                           _______ _______ _______ _____ _____    ______ ____
DOCKED: ROOT
DOCKED: ATOM      1  C   UNL     1      25.021 -17.233  -0.320 -0.53 -0.00    +0.000 C 
DOCKED: ENDROOT
DOCKED: BRANCH   1   2
DOCKED: ATOM      2  C   UNL     1      24.048 -17.574  -1.460 -0.72 -0.00    +0.000 C 
DOCKED: BRANCH   2   3
DOCKED: ATOM      3  C   UNL     1      23.328 -18.898  -1.187 -0.80 -0.00    +0.000 C 
DOCKED: BRANCH   3   6
DOCKED: ATOM      4  O   UNL     1      19.603 -19.498  -1.457 -2.03 -0.00    +0.000 OA
DOCKED: ATOM      5  N   UNL     1      20.941 -19.698  -1.522 -0.75 -0.00    +0.000 N 
DOCKED: ATOM      6  C   UNL     1      21.847 -18.680  -1.095 -0.80 -0.00    +0.000 C 
DOCKED: ATOM      7  O   UNL     1      21.403 -17.578  -0.674 -1.74 -0.00    +0.000 OA
DOCKED: ATOM      8  H   UNL     1      21.291 -20.551  -1.867 -0.36 -0.00    +0.000 HD
DOCKED: ENDBRANCH   3   6
DOCKED: ENDBRANCH   2   3
DOCKED: ENDBRANCH   1   2
DOCKED: BRANCH   1   9
DOCKED: ATOM      9  C   UNL     1      26.204 -16.364  -0.782 -0.50 -0.00    +0.000 C 
DOCKED: BRANCH   9  10
DOCKED: ATOM     10  C   UNL     1      27.085 -15.809   0.353 -0.24 -0.00    +0.000 C 
DOCKED: BRANCH  10  11
DOCKED: ATOM     11  C   UNL     1      27.076 -14.276   0.422 -0.30 -0.00    +0.000 C 
DOCKED: BRANCH  11  12
DOCKED: ATOM     12  C   UNL     1      27.322 -13.815   1.826 -0.30 -0.00    +0.000 C 
DOCKED: ATOM     13  N   UNL     1      28.286 -14.480   2.645 -0.31 -0.00    +0.000 N 
DOCKED: ATOM     14  O   UNL     1      28.499 -14.078   3.920 -0.44 -0.00    +0.000 OA
DOCKED: ATOM     15  O   UNL     1      26.646 -12.861   2.298 -0.41 -0.00    +0.000 OA
DOCKED: ATOM     16  H   UNL     1      28.799 -15.237   2.280 -1.82 -0.00    +0.000 HD
DOCKED: ENDBRANCH  11  12
DOCKED: ENDBRANCH  10  11
DOCKED: ENDBRANCH   9  10
DOCKED: ENDBRANCH   1   9
DOCKED: TORSDOF 7
DOCKED: TER
DOCKED: ENDMDL
________________________________________________________________________________


	BEGINNING GENETIC ALGORITHM DOCKING 86 of 100
Run: 86 Seed: 315479066 866505638 [ Run 86 of 100 GA/GALS ]
Beginning LAMARCKIAN GENETIC ALGORITHM (LGA), with a maximum of 2500000 energy evaluations.

Final-Value: -12.755


	FINAL GENETIC ALGORITHM DOCKED STATE
	_______________________________________________


Detailed state:  trans 24.564 -15.487 -2.391 quatxyzw -0.169257 -0.248310 0.441518 -0.845432 center 0.010 0.634 0.018 ntor 7 -128.3921 17.9929 19.8305 2.1228 -152.1987 -60.5808 -31.1020
State:	 24.564 -15.487  -2.391  -0.317 -0.465  0.827 -64.563   -128.39   17.99   19.83    2.12 -152.20  -60.58  -31.10

DOCKED: MODEL       86
DOCKED: USER    Run = 86
DOCKED: USER    DPF = ligand_dock.biased.dpf
DOCKED: USER  
DOCKED: USER    Estimated Free Energy of Binding    =  -10.22 kcal/mol  [=(1)+(2)+(3)-(4)]
DOCKED: USER    Estimated Inhibition Constant, Ki   =   32.07 nM (nanomolar)  [Temperature = 298.15 K]
DOCKED: USER    
DOCKED: USER    (1) Final Intermolecular Energy     =  -12.31 kcal/mol
DOCKED: USER        vdW + Hbond + desolv Energy     =  -12.31 kcal/mol
DOCKED: USER        Electrostatic Energy            =   +0.00 kcal/mol
DOCKED: USER    (2) Final Total Internal Energy     =   -0.44 kcal/mol
DOCKED: USER    (3) Torsional Free Energy           =   +2.09 kcal/mol
DOCKED: USER    (4) Unbound System's Energy  [=(2)] =   -0.44 kcal/mol
DOCKED: USER    
DOCKED: USER    
DOCKED: USER    NEWDPF move ligand.pdbqt
DOCKED: USER    NEWDPF about 0.010000 0.634000 0.018000
DOCKED: USER    NEWDPF tran0 24.563975 -15.487312 -2.391383
DOCKED: USER    NEWDPF quaternion0 -0.169257 -0.248310 0.441518 -0.845432
DOCKED: USER    NEWDPF axisangle0 -0.316912 -0.464928 0.826685 -64.563393
DOCKED: USER    NEWDPF quat0 -0.316912 -0.464928 0.826685 -64.563393
DOCKED: USER    NEWDPF dihe0 -128.39 17.99 19.83 2.12 -152.20 -60.58 -31.10 
DOCKED: USER  keepresnum = 1 
DOCKED: USER  
DOCKED: REMARK  Name = 
DOCKED: REMARK  7 active torsions:
DOCKED: REMARK  status: ('A' for Active; 'I' for Inactive)
DOCKED: REMARK    1  A    between atoms: C_3  and  C_4
DOCKED: REMARK    2  A    between atoms: C_4  and  C_5
DOCKED: REMARK    3  A    between atoms: C_5  and  C_6
DOCKED: REMARK    4  A    between atoms: C_6  and  C_7
DOCKED: REMARK    5  A    between atoms: C_7  and  C_8
DOCKED: REMARK    6  A    between atoms: C_8  and  C_9
DOCKED: REMARK    7  A    between atoms: C_9  and  C_10
DOCKED: REMARK                            x       y       z     vdW  Elec       q    Type
DOCKED: REMARK                         _______ _______ _______ _____ _____    ______ ____
DOCKED: USER                              x       y       z     vdW  Elec       q    Type
DOCKED: USER                           _______ _______ _______ _____ _____    ______ ____
DOCKED: ROOT
DOCKED: ATOM      1  C   UNL     1      25.944 -16.219  -0.831 -0.49 -0.00    +0.000 C 
DOCKED: ENDROOT
DOCKED: BRANCH   1   2
DOCKED: ATOM      2  C   UNL     1      26.446 -15.390  -2.023 -0.41 -0.00    +0.000 C 
DOCKED: BRANCH   2   3
DOCKED: ATOM      3  C   UNL     1      25.531 -15.567  -3.238 -0.56 -0.00    +0.000 C 
DOCKED: BRANCH   3   6
DOCKED: ATOM      4  O   UNL     1      27.679 -13.654  -5.693 -0.33 -0.00    +0.000 OA
DOCKED: ATOM      5  N   UNL     1      27.040 -14.003  -4.552 -0.32 -0.00    +0.000 N 
DOCKED: ATOM      6  C   UNL     1      26.254 -15.195  -4.498 -0.58 -0.00    +0.000 C 
DOCKED: ATOM      7  O   UNL     1      26.134 -15.917  -5.523 -1.12 +0.00    +0.000 OA
DOCKED: ATOM      8  H   UNL     1      27.117 -13.432  -3.754 +0.00 -0.00    +0.000 HD
DOCKED: ENDBRANCH   3   6
DOCKED: ENDBRANCH   2   3
DOCKED: ENDBRANCH   1   2
DOCKED: BRANCH   1   9
DOCKED: ATOM      9  C   UNL     1      25.315 -17.559  -1.253 -0.65 -0.00    +0.000 C 
DOCKED: BRANCH   9  10
DOCKED: ATOM     10  C   UNL     1      23.791 -17.523  -1.469 -0.69 -0.00    +0.000 C 
DOCKED: BRANCH  10  11
DOCKED: ATOM     11  C   UNL     1      23.038 -18.521  -0.579 -0.83 -0.00    +0.000 C 
DOCKED: BRANCH  11  12
DOCKED: ATOM     12  C   UNL     1      21.600 -18.608  -0.994 -0.82 -0.00    +0.000 C 
DOCKED: ATOM     13  N   UNL     1      21.135 -19.728  -1.750 -0.62 -0.00    +0.000 N 
DOCKED: ATOM     14  O   UNL     1      19.841 -19.803  -2.142 -2.25 -0.00    +0.000 OA
DOCKED: ATOM     15  O   UNL     1      20.809 -17.670  -0.708 -2.17 +0.00    +0.000 OA
DOCKED: ATOM     16  H   UNL     1      21.760 -20.450  -1.989 -0.47 -0.00    +0.000 HD
DOCKED: ENDBRANCH  11  12
DOCKED: ENDBRANCH  10  11
DOCKED: ENDBRANCH   9  10
DOCKED: ENDBRANCH   1   9
DOCKED: TORSDOF 7
DOCKED: TER
DOCKED: ENDMDL
________________________________________________________________________________


	BEGINNING GENETIC ALGORITHM DOCKING 87 of 100
Run: 87 Seed: 1938454462 556096895 [ Run 87 of 100 GA/GALS ]
Beginning LAMARCKIAN GENETIC ALGORITHM (LGA), with a maximum of 2500000 energy evaluations.

Final-Value: -12.394


	FINAL GENETIC ALGORITHM DOCKED STATE
	_______________________________________________


Detailed state:  trans 26.831 -15.866 -0.198 quatxyzw -0.484531 -0.313787 0.235236 0.781941 center 0.010 0.634 0.018 ntor 7 -157.4219 78.3247 82.7355 -31.7642 92.7980 -179.7295 180.0000
State:	 26.831 -15.866  -0.198  -0.777 -0.503  0.377 77.123   -157.42   78.32   82.74  -31.76   92.80 -179.73  180.00

DOCKED: MODEL       87
DOCKED: USER    Run = 87
DOCKED: USER    DPF = ligand_dock.biased.dpf
DOCKED: USER  
DOCKED: USER    Estimated Free Energy of Binding    =   -9.84 kcal/mol  [=(1)+(2)+(3)-(4)]
DOCKED: USER    Estimated Inhibition Constant, Ki   =   61.14 nM (nanomolar)  [Temperature = 298.15 K]
DOCKED: USER    
DOCKED: USER    (1) Final Intermolecular Energy     =  -11.93 kcal/mol
DOCKED: USER        vdW + Hbond + desolv Energy     =  -11.93 kcal/mol
DOCKED: USER        Electrostatic Energy            =   +0.00 kcal/mol
DOCKED: USER    (2) Final Total Internal Energy     =   -0.47 kcal/mol
DOCKED: USER    (3) Torsional Free Energy           =   +2.09 kcal/mol
DOCKED: USER    (4) Unbound System's Energy  [=(2)] =   -0.47 kcal/mol
DOCKED: USER    
DOCKED: USER    
DOCKED: USER    NEWDPF move ligand.pdbqt
DOCKED: USER    NEWDPF about 0.010000 0.634000 0.018000
DOCKED: USER    NEWDPF tran0 26.831261 -15.866352 -0.197774
DOCKED: USER    NEWDPF quaternion0 -0.484531 -0.313787 0.235236 0.781941
DOCKED: USER    NEWDPF axisangle0 -0.777299 -0.503386 0.377372 77.122746
DOCKED: USER    NEWDPF quat0 -0.777299 -0.503386 0.377372 77.122746
DOCKED: USER    NEWDPF dihe0 -157.42 78.32 82.74 -31.76 92.80 -179.73 180.00 
DOCKED: USER  keepresnum = 1 
DOCKED: USER  
DOCKED: REMARK  Name = 
DOCKED: REMARK  7 active torsions:
DOCKED: REMARK  status: ('A' for Active; 'I' for Inactive)
DOCKED: REMARK    1  A    between atoms: C_3  and  C_4
DOCKED: REMARK    2  A    between atoms: C_4  and  C_5
DOCKED: REMARK    3  A    between atoms: C_5  and  C_6
DOCKED: REMARK    4  A    between atoms: C_6  and  C_7
DOCKED: REMARK    5  A    between atoms: C_7  and  C_8
DOCKED: REMARK    6  A    between atoms: C_8  and  C_9
DOCKED: REMARK    7  A    between atoms: C_9  and  C_10
DOCKED: REMARK                            x       y       z     vdW  Elec       q    Type
DOCKED: REMARK                         _______ _______ _______ _____ _____    ______ ____
DOCKED: USER                              x       y       z     vdW  Elec       q    Type
DOCKED: USER                           _______ _______ _______ _____ _____    ______ ____
DOCKED: ROOT
DOCKED: ATOM      1  C   UNL     1      25.868 -17.184  -1.685 -0.55 -0.00    +0.000 C 
DOCKED: ENDROOT
DOCKED: BRANCH   1   2
DOCKED: ATOM      2  C   UNL     1      26.464 -15.824  -2.082 -0.44 -0.00    +0.000 C 
DOCKED: BRANCH   2   3
DOCKED: ATOM      3  C   UNL     1      25.594 -15.131  -3.134 -0.54 -0.00    +0.000 C 
DOCKED: BRANCH   3   6
DOCKED: ATOM      4  O   UNL     1      27.789 -14.949  -6.208 -0.80 +0.00    +0.000 OA
DOCKED: ATOM      5  N   UNL     1      27.313 -14.731  -4.960 -0.41 -0.00    +0.000 N 
DOCKED: ATOM      6  C   UNL     1      26.129 -15.391  -4.511 -0.57 -0.00    +0.000 C 
DOCKED: ATOM      7  O   UNL     1      25.507 -16.166  -5.287 -0.97 -0.00    +0.000 OA
DOCKED: ATOM      8  H   UNL     1      27.786 -14.112  -4.357 +0.00 -0.00    +0.000 HD
DOCKED: ENDBRANCH   3   6
DOCKED: ENDBRANCH   2   3
DOCKED: ENDBRANCH   1   2
DOCKED: BRANCH   1   9
DOCKED: ATOM      9  C   UNL     1      24.712 -17.062  -0.676 -0.63 -0.00    +0.000 C 
DOCKED: BRANCH   9  10
DOCKED: ATOM     10  C   UNL     1      23.355 -17.594  -1.173 -0.72 -0.00    +0.000 C 
DOCKED: BRANCH  10  11
DOCKED: ATOM     11  C   UNL     1      22.817 -18.750  -0.321 -0.80 -0.00    +0.000 C 
DOCKED: BRANCH  11  12
DOCKED: ATOM     12  C   UNL     1      21.326 -18.838  -0.441 -0.84 -0.00    +0.000 C 
DOCKED: ATOM     13  N   UNL     1      20.639 -20.022  -0.032 -0.72 -0.00    +0.000 N 
DOCKED: ATOM     14  O   UNL     1      19.293 -20.112  -0.154 -1.24 -0.00    +0.000 OA
DOCKED: ATOM     15  O   UNL     1      20.682 -17.877  -0.942 -2.24 -0.00    +0.000 OA
DOCKED: ATOM     16  H   UNL     1      21.146 -20.778   0.341 -0.47 -0.00    +0.000 HD
DOCKED: ENDBRANCH  11  12
DOCKED: ENDBRANCH  10  11
DOCKED: ENDBRANCH   9  10
DOCKED: ENDBRANCH   1   9
DOCKED: TORSDOF 7
DOCKED: TER
DOCKED: ENDMDL
________________________________________________________________________________


	BEGINNING GENETIC ALGORITHM DOCKING 88 of 100
Run: 88 Seed: 1321560379 272073667 [ Run 88 of 100 GA/GALS ]
Beginning LAMARCKIAN GENETIC ALGORITHM (LGA), with a maximum of 2500000 energy evaluations.

Final-Value: -12.948


	FINAL GENETIC ALGORITHM DOCKED STATE
	_______________________________________________


Detailed state:  trans 25.832 -16.818 0.309 quatxyzw 0.727579 0.103592 -0.079532 -0.673478 center 0.010 0.634 0.018 ntor 7 -145.8178 16.7814 148.7898 -72.1527 101.1267 -167.3452 -75.1312
State:	 25.832 -16.818   0.309   0.984  0.140 -0.108 -95.328   -145.82   16.78  148.79  -72.15  101.13 -167.35  -75.13

DOCKED: MODEL       88
DOCKED: USER    Run = 88
DOCKED: USER    DPF = ligand_dock.biased.dpf
DOCKED: USER  
DOCKED: USER    Estimated Free Energy of Binding    =  -10.30 kcal/mol  [=(1)+(2)+(3)-(4)]
DOCKED: USER    Estimated Inhibition Constant, Ki   =   28.40 nM (nanomolar)  [Temperature = 298.15 K]
DOCKED: USER    
DOCKED: USER    (1) Final Intermolecular Energy     =  -12.38 kcal/mol
DOCKED: USER        vdW + Hbond + desolv Energy     =  -12.38 kcal/mol
DOCKED: USER        Electrostatic Energy            =   +0.00 kcal/mol
DOCKED: USER    (2) Final Total Internal Energy     =   -0.56 kcal/mol
DOCKED: USER    (3) Torsional Free Energy           =   +2.09 kcal/mol
DOCKED: USER    (4) Unbound System's Energy  [=(2)] =   -0.56 kcal/mol
DOCKED: USER    
DOCKED: USER    
DOCKED: USER    NEWDPF move ligand.pdbqt
DOCKED: USER    NEWDPF about 0.010000 0.634000 0.018000
DOCKED: USER    NEWDPF tran0 25.831872 -16.817880 0.308588
DOCKED: USER    NEWDPF quaternion0 0.727579 0.103592 -0.079532 -0.673478
DOCKED: USER    NEWDPF axisangle0 0.984269 0.140139 -0.107591 -95.327904
DOCKED: USER    NEWDPF quat0 0.984269 0.140139 -0.107591 -95.327904
DOCKED: USER    NEWDPF dihe0 -145.82 16.78 148.79 -72.15 101.13 -167.35 -75.13 
DOCKED: USER  keepresnum = 1 
DOCKED: USER  
DOCKED: REMARK  Name = 
DOCKED: REMARK  7 active torsions:
DOCKED: REMARK  status: ('A' for Active; 'I' for Inactive)
DOCKED: REMARK    1  A    between atoms: C_3  and  C_4
DOCKED: REMARK    2  A    between atoms: C_4  and  C_5
DOCKED: REMARK    3  A    between atoms: C_5  and  C_6
DOCKED: REMARK    4  A    between atoms: C_6  and  C_7
DOCKED: REMARK    5  A    between atoms: C_7  and  C_8
DOCKED: REMARK    6  A    between atoms: C_8  and  C_9
DOCKED: REMARK    7  A    between atoms: C_9  and  C_10
DOCKED: REMARK                            x       y       z     vdW  Elec       q    Type
DOCKED: REMARK                         _______ _______ _______ _____ _____    ______ ____
DOCKED: USER                              x       y       z     vdW  Elec       q    Type
DOCKED: USER                           _______ _______ _______ _____ _____    ______ ____
DOCKED: ROOT
DOCKED: ATOM      1  C   UNL     1      25.768 -17.089  -1.882 -0.55 -0.00    +0.000 C 
DOCKED: ENDROOT
DOCKED: BRANCH   1   2
DOCKED: ATOM      2  C   UNL     1      26.518 -15.911  -1.239 -0.43 -0.00    +0.000 C 
DOCKED: BRANCH   2   3
DOCKED: ATOM      3  C   UNL     1      26.189 -14.597  -1.952 -0.36 -0.00    +0.000 C 
DOCKED: BRANCH   3   6
DOCKED: ATOM      4  O   UNL     1      26.624 -15.603  -5.572 -1.21 +0.00    +0.000 OA
DOCKED: ATOM      5  N   UNL     1      26.887 -15.393  -4.260 -0.45 -0.00    +0.000 N 
DOCKED: ATOM      6  C   UNL     1      25.886 -14.847  -3.399 -0.52 -0.00    +0.000 C 
DOCKED: ATOM      7  O   UNL     1      24.756 -14.537  -3.864 -0.97 -0.00    +0.000 OA
DOCKED: ATOM      8  H   UNL     1      27.774 -15.617  -3.898 -0.01 -0.00    +0.000 HD
DOCKED: ENDBRANCH   3   6
DOCKED: ENDBRANCH   2   3
DOCKED: ENDBRANCH   1   2
DOCKED: BRANCH   1   9
DOCKED: ATOM      9  C   UNL     1      24.257 -17.070  -1.591 -0.64 -0.00    +0.000 C 
DOCKED: BRANCH   9  10
DOCKED: ATOM     10  C   UNL     1      23.649 -18.435  -1.220 -0.79 -0.00    +0.000 C 
DOCKED: BRANCH  10  11
DOCKED: ATOM     11  C   UNL     1      22.776 -18.378   0.041 -0.76 -0.00    +0.000 C 
DOCKED: BRANCH  11  12
DOCKED: ATOM     12  C   UNL     1      21.349 -18.688  -0.298 -0.80 -0.00    +0.000 C 
DOCKED: ATOM     13  N   UNL     1      20.806 -19.979  -0.015 -0.70 -0.00    +0.000 N 
DOCKED: ATOM     14  O   UNL     1      19.523 -20.270  -0.334 -1.32 -0.00    +0.000 OA
DOCKED: ATOM     15  O   UNL     1      20.639 -17.819  -0.871 -2.27 -0.00    +0.000 OA
DOCKED: ATOM     16  H   UNL     1      21.368 -20.663   0.416 -0.60 -0.00    +0.000 HD
DOCKED: ENDBRANCH  11  12
DOCKED: ENDBRANCH  10  11
DOCKED: ENDBRANCH   9  10
DOCKED: ENDBRANCH   1   9
DOCKED: TORSDOF 7
DOCKED: TER
DOCKED: ENDMDL
________________________________________________________________________________


	BEGINNING GENETIC ALGORITHM DOCKING 89 of 100
Run: 89 Seed: 1775623266 526881498 [ Run 89 of 100 GA/GALS ]
Beginning LAMARCKIAN GENETIC ALGORITHM (LGA), with a maximum of 2500000 energy evaluations.

Final-Value: -12.702


	FINAL GENETIC ALGORITHM DOCKED STATE
	_______________________________________________


Detailed state:  trans 25.040 -16.187 -0.574 quatxyzw 0.109926 -0.076173 0.087572 -0.987140 center 0.010 0.634 0.018 ntor 7 30.0582 19.9956 5.7232 81.5538 -179.7716 -75.1127 -22.1946
State:	 25.040 -16.187  -0.574   0.688 -0.477  0.548 -18.397     30.06   20.00    5.72   81.55 -179.77  -75.11  -22.19

DOCKED: MODEL       89
DOCKED: USER    Run = 89
DOCKED: USER    DPF = ligand_dock.biased.dpf
DOCKED: USER  
DOCKED: USER    Estimated Free Energy of Binding    =  -10.13 kcal/mol  [=(1)+(2)+(3)-(4)]
DOCKED: USER    Estimated Inhibition Constant, Ki   =   37.82 nM (nanomolar)  [Temperature = 298.15 K]
DOCKED: USER    
DOCKED: USER    (1) Final Intermolecular Energy     =  -12.21 kcal/mol
DOCKED: USER        vdW + Hbond + desolv Energy     =  -12.21 kcal/mol
DOCKED: USER        Electrostatic Energy            =   +0.00 kcal/mol
DOCKED: USER    (2) Final Total Internal Energy     =   -0.49 kcal/mol
DOCKED: USER    (3) Torsional Free Energy           =   +2.09 kcal/mol
DOCKED: USER    (4) Unbound System's Energy  [=(2)] =   -0.49 kcal/mol
DOCKED: USER    
DOCKED: USER    
DOCKED: USER    NEWDPF move ligand.pdbqt
DOCKED: USER    NEWDPF about 0.010000 0.634000 0.018000
DOCKED: USER    NEWDPF tran0 25.039908 -16.186550 -0.573644
DOCKED: USER    NEWDPF quaternion0 0.109926 -0.076173 0.087572 -0.987140
DOCKED: USER    NEWDPF axisangle0 0.687643 -0.476501 0.547808 -18.397413
DOCKED: USER    NEWDPF quat0 0.687643 -0.476501 0.547808 -18.397413
DOCKED: USER    NEWDPF dihe0 30.06 20.00 5.72 81.55 -179.77 -75.11 -22.19 
DOCKED: USER  keepresnum = 1 
DOCKED: USER  
DOCKED: REMARK  Name = 
DOCKED: REMARK  7 active torsions:
DOCKED: REMARK  status: ('A' for Active; 'I' for Inactive)
DOCKED: REMARK    1  A    between atoms: C_3  and  C_4
DOCKED: REMARK    2  A    between atoms: C_4  and  C_5
DOCKED: REMARK    3  A    between atoms: C_5  and  C_6
DOCKED: REMARK    4  A    between atoms: C_6  and  C_7
DOCKED: REMARK    5  A    between atoms: C_7  and  C_8
DOCKED: REMARK    6  A    between atoms: C_8  and  C_9
DOCKED: REMARK    7  A    between atoms: C_9  and  C_10
DOCKED: REMARK                            x       y       z     vdW  Elec       q    Type
DOCKED: REMARK                         _______ _______ _______ _____ _____    ______ ____
DOCKED: USER                              x       y       z     vdW  Elec       q    Type
DOCKED: USER                           _______ _______ _______ _____ _____    ______ ____
DOCKED: ROOT
DOCKED: ATOM      1  C   UNL     1      25.854 -18.238  -0.492 -0.66 -0.00    +0.000 C 
DOCKED: ENDROOT
DOCKED: BRANCH   1   2
DOCKED: ATOM      2  C   UNL     1      26.469 -17.164  -1.404 -0.51 -0.00    +0.000 C 
DOCKED: BRANCH   2   3
DOCKED: ATOM      3  C   UNL     1      25.408 -16.554  -2.324 -0.57 -0.00    +0.000 C 
DOCKED: BRANCH   3   6
DOCKED: ATOM      4  O   UNL     1      26.630 -15.123  -5.605 -1.03 +0.00    +0.000 OA
DOCKED: ATOM      5  N   UNL     1      26.040 -15.949  -4.708 -0.48 -0.00    +0.000 N 
DOCKED: ATOM      6  C   UNL     1      26.045 -15.627  -3.316 -0.54 -0.00    +0.000 C 
DOCKED: ATOM      7  O   UNL     1      26.619 -14.580  -2.914 -0.34 -0.00    +0.000 OA
DOCKED: ATOM      8  H   UNL     1      25.606 -16.776  -5.017 -0.05 +0.00    +0.000 HD
DOCKED: ENDBRANCH   3   6
DOCKED: ENDBRANCH   2   3
DOCKED: ENDBRANCH   1   2
DOCKED: BRANCH   1   9
DOCKED: ATOM      9  C   UNL     1      24.394 -18.565  -0.850 -0.75 -0.00    +0.000 C 
DOCKED: BRANCH   9  10
DOCKED: ATOM     10  C   UNL     1      23.346 -17.612  -0.246 -0.67 -0.00    +0.000 C 
DOCKED: BRANCH  10  11
DOCKED: ATOM     11  C   UNL     1      22.126 -18.347   0.323 -0.67 -0.00    +0.000 C 
DOCKED: BRANCH  11  12
DOCKED: ATOM     12  C   UNL     1      21.064 -18.486  -0.725 -0.80 -0.00    +0.000 C 
DOCKED: ATOM     13  N   UNL     1      20.832 -19.749  -1.353 -0.77 -0.00    +0.000 N 
DOCKED: ATOM     14  O   UNL     1      19.885 -19.875  -2.312 -2.17 -0.00    +0.000 OA
DOCKED: ATOM     15  O   UNL     1      20.401 -17.475  -1.081 -2.05 -0.00    +0.000 OA
DOCKED: ATOM     16  H   UNL     1      21.364 -20.533  -1.086 -0.16 -0.00    +0.000 HD
DOCKED: ENDBRANCH  11  12
DOCKED: ENDBRANCH  10  11
DOCKED: ENDBRANCH   9  10
DOCKED: ENDBRANCH   1   9
DOCKED: TORSDOF 7
DOCKED: TER
DOCKED: ENDMDL
________________________________________________________________________________


	BEGINNING GENETIC ALGORITHM DOCKING 90 of 100
Run: 90 Seed: 1469118750 1385139831 [ Run 90 of 100 GA/GALS ]
Beginning LAMARCKIAN GENETIC ALGORITHM (LGA), with a maximum of 2500000 energy evaluations.

Final-Value: -11.601


	FINAL GENETIC ALGORITHM DOCKED STATE
	_______________________________________________


Detailed state:  trans 22.404 -17.047 -0.647 quatxyzw -0.569544 0.809362 0.118652 0.080465 center 0.010 0.634 0.018 ntor 7 -80.5373 171.1864 -104.9681 173.0377 -111.6718 -84.5575 -141.0493
State:	 22.404 -17.047  -0.647  -0.571  0.812  0.119 170.769    -80.54  171.19 -104.97  173.04 -111.67  -84.56 -141.05

DOCKED: MODEL       90
DOCKED: USER    Run = 90
DOCKED: USER    DPF = ligand_dock.biased.dpf
DOCKED: USER  
DOCKED: USER    Estimated Free Energy of Binding    =   -8.89 kcal/mol  [=(1)+(2)+(3)-(4)]
DOCKED: USER    Estimated Inhibition Constant, Ki   =  306.85 nM (nanomolar)  [Temperature = 298.15 K]
DOCKED: USER    
DOCKED: USER    (1) Final Intermolecular Energy     =  -10.97 kcal/mol
DOCKED: USER        vdW + Hbond + desolv Energy     =  -10.97 kcal/mol
DOCKED: USER        Electrostatic Energy            =   +0.00 kcal/mol
DOCKED: USER    (2) Final Total Internal Energy     =   -0.63 kcal/mol
DOCKED: USER    (3) Torsional Free Energy           =   +2.09 kcal/mol
DOCKED: USER    (4) Unbound System's Energy  [=(2)] =   -0.63 kcal/mol
DOCKED: USER    
DOCKED: USER    
DOCKED: USER    NEWDPF move ligand.pdbqt
DOCKED: USER    NEWDPF about 0.010000 0.634000 0.018000
DOCKED: USER    NEWDPF tran0 22.403711 -17.047016 -0.647436
DOCKED: USER    NEWDPF quaternion0 -0.569544 0.809362 0.118652 0.080465
DOCKED: USER    NEWDPF axisangle0 -0.571397 0.811995 0.119038 170.769462
DOCKED: USER    NEWDPF quat0 -0.571397 0.811995 0.119038 170.769462
DOCKED: USER    NEWDPF dihe0 -80.54 171.19 -104.97 173.04 -111.67 -84.56 -141.05 
DOCKED: USER  keepresnum = 1 
DOCKED: USER  
DOCKED: REMARK  Name = 
DOCKED: REMARK  7 active torsions:
DOCKED: REMARK  status: ('A' for Active; 'I' for Inactive)
DOCKED: REMARK    1  A    between atoms: C_3  and  C_4
DOCKED: REMARK    2  A    between atoms: C_4  and  C_5
DOCKED: REMARK    3  A    between atoms: C_5  and  C_6
DOCKED: REMARK    4  A    between atoms: C_6  and  C_7
DOCKED: REMARK    5  A    between atoms: C_7  and  C_8
DOCKED: REMARK    6  A    between atoms: C_8  and  C_9
DOCKED: REMARK    7  A    between atoms: C_9  and  C_10
DOCKED: REMARK                            x       y       z     vdW  Elec       q    Type
DOCKED: REMARK                         _______ _______ _______ _____ _____    ______ ____
DOCKED: USER                              x       y       z     vdW  Elec       q    Type
DOCKED: USER                           _______ _______ _______ _____ _____    ______ ____
DOCKED: ROOT
DOCKED: ATOM      1  C   UNL     1      24.025 -18.141  -1.674 -0.69 -0.00    +0.000 C 
DOCKED: ENDROOT
DOCKED: BRANCH   1   2
DOCKED: ATOM      2  C   UNL     1      23.480 -18.601  -0.312 -0.78 -0.00    +0.000 C 
DOCKED: BRANCH   2   3
DOCKED: ATOM      3  C   UNL     1      22.165 -17.891   0.021 -0.73 -0.00    +0.000 C 
DOCKED: BRANCH   3   6
DOCKED: ATOM      4  O   UNL     1      20.256 -20.104  -2.380 -2.13 -0.00    +0.000 OA
DOCKED: ATOM      5  N   UNL     1      21.268 -19.585  -1.645 -0.63 -0.00    +0.000 N 
DOCKED: ATOM      6  C   UNL     1      21.037 -18.475  -0.776 -0.79 -0.00    +0.000 C 
DOCKED: ATOM      7  O   UNL     1      19.890 -17.958  -0.707 -1.88 +0.00    +0.000 OA
DOCKED: ATOM      8  H   UNL     1      22.169 -19.976  -1.710 -0.40 -0.00    +0.000 HD
DOCKED: ENDBRANCH   3   6
DOCKED: ENDBRANCH   2   3
DOCKED: ENDBRANCH   1   2
DOCKED: BRANCH   1   9
DOCKED: ATOM      9  C   UNL     1      24.663 -16.742  -1.623 -0.63 -0.00    +0.000 C 
DOCKED: BRANCH   9  10
DOCKED: ATOM     10  C   UNL     1      25.676 -16.446  -2.744 -0.48 -0.00    +0.000 C 
DOCKED: BRANCH  10  11
DOCKED: ATOM     11  C   UNL     1      26.829 -15.544  -2.287 -0.38 -0.00    +0.000 C 
DOCKED: BRANCH  11  12
DOCKED: ATOM     12  C   UNL     1      26.674 -15.190  -0.839 -0.36 -0.00    +0.000 C 
DOCKED: ATOM     13  N   UNL     1      26.204 -13.895  -0.461 -0.30 -0.00    +0.000 N 
DOCKED: ATOM     14  O   UNL     1      26.079 -13.565   0.847 -0.38 -0.00    +0.000 OA
DOCKED: ATOM     15  O   UNL     1      26.998 -16.026   0.047 -0.42 -0.00    +0.000 OA
DOCKED: ATOM     16  H   UNL     1      25.970 -13.237  -1.154 -0.00 -0.00    +0.000 HD
DOCKED: ENDBRANCH  11  12
DOCKED: ENDBRANCH  10  11
DOCKED: ENDBRANCH   9  10
DOCKED: ENDBRANCH   1   9
DOCKED: TORSDOF 7
DOCKED: TER
DOCKED: ENDMDL
________________________________________________________________________________


	BEGINNING GENETIC ALGORITHM DOCKING 91 of 100
Run: 91 Seed: 74397642 1904867047 [ Run 91 of 100 GA/GALS ]
Beginning LAMARCKIAN GENETIC ALGORITHM (LGA), with a maximum of 2500000 energy evaluations.

Final-Value: -12.631


	FINAL GENETIC ALGORITHM DOCKED STATE
	_______________________________________________


Detailed state:  trans 27.509 -16.531 -2.036 quatxyzw 0.706367 0.646095 -0.282818 0.060165 center 0.010 0.634 0.018 ntor 7 127.2086 102.3684 50.5424 27.6327 147.8031 178.2941 -169.1561
State:	 27.509 -16.531  -2.036   0.708  0.647 -0.283 173.101    127.21  102.37   50.54   27.63  147.80  178.29 -169.16

DOCKED: MODEL       91
DOCKED: USER    Run = 91
DOCKED: USER    DPF = ligand_dock.biased.dpf
DOCKED: USER  
DOCKED: USER    Estimated Free Energy of Binding    =  -10.07 kcal/mol  [=(1)+(2)+(3)-(4)]
DOCKED: USER    Estimated Inhibition Constant, Ki   =   41.51 nM (nanomolar)  [Temperature = 298.15 K]
DOCKED: USER    
DOCKED: USER    (1) Final Intermolecular Energy     =  -12.16 kcal/mol
DOCKED: USER        vdW + Hbond + desolv Energy     =  -12.16 kcal/mol
DOCKED: USER        Electrostatic Energy            =   +0.00 kcal/mol
DOCKED: USER    (2) Final Total Internal Energy     =   -0.47 kcal/mol
DOCKED: USER    (3) Torsional Free Energy           =   +2.09 kcal/mol
DOCKED: USER    (4) Unbound System's Energy  [=(2)] =   -0.47 kcal/mol
DOCKED: USER    
DOCKED: USER    
DOCKED: USER    NEWDPF move ligand.pdbqt
DOCKED: USER    NEWDPF about 0.010000 0.634000 0.018000
DOCKED: USER    NEWDPF tran0 27.508868 -16.530906 -2.036470
DOCKED: USER    NEWDPF quaternion0 0.706367 0.646095 -0.282818 0.060165
DOCKED: USER    NEWDPF axisangle0 0.707649 0.647268 -0.283332 173.101414
DOCKED: USER    NEWDPF quat0 0.707649 0.647268 -0.283332 173.101414
DOCKED: USER    NEWDPF dihe0 127.21 102.37 50.54 27.63 147.80 178.29 -169.16 
DOCKED: USER  keepresnum = 1 
DOCKED: USER  
DOCKED: REMARK  Name = 
DOCKED: REMARK  7 active torsions:
DOCKED: REMARK  status: ('A' for Active; 'I' for Inactive)
DOCKED: REMARK    1  A    between atoms: C_3  and  C_4
DOCKED: REMARK    2  A    between atoms: C_4  and  C_5
DOCKED: REMARK    3  A    between atoms: C_5  and  C_6
DOCKED: REMARK    4  A    between atoms: C_6  and  C_7
DOCKED: REMARK    5  A    between atoms: C_7  and  C_8
DOCKED: REMARK    6  A    between atoms: C_8  and  C_9
DOCKED: REMARK    7  A    between atoms: C_9  and  C_10
DOCKED: REMARK                            x       y       z     vdW  Elec       q    Type
DOCKED: REMARK                         _______ _______ _______ _____ _____    ______ ____
DOCKED: USER                              x       y       z     vdW  Elec       q    Type
DOCKED: USER                           _______ _______ _______ _____ _____    ______ ____
DOCKED: ROOT
DOCKED: ATOM      1  C   UNL     1      25.447 -15.862  -1.613 -0.52 -0.00    +0.000 C 
DOCKED: ENDROOT
DOCKED: BRANCH   1   2
DOCKED: ATOM      2  C   UNL     1      26.667 -15.061  -1.133 -0.35 -0.00    +0.000 C 
DOCKED: BRANCH   2   3
DOCKED: ATOM      3  C   UNL     1      27.155 -15.568   0.227 -0.30 -0.00    +0.000 C 
DOCKED: BRANCH   3   6
DOCKED: ATOM      4  O   UNL     1      28.395 -13.458   3.110 -0.30 -0.00    +0.000 OA
DOCKED: ATOM      5  N   UNL     1      28.279 -14.476   2.225 -0.28 -0.00    +0.000 N 
DOCKED: ATOM      6  C   UNL     1      27.293 -14.429   1.193 -0.23 -0.00    +0.000 C 
DOCKED: ATOM      7  O   UNL     1      26.509 -13.446   1.115 -0.38 -0.00    +0.000 OA
DOCKED: ATOM      8  H   UNL     1      28.879 -15.254   2.294 -1.89 -0.00    +0.000 HD
DOCKED: ENDBRANCH   3   6
DOCKED: ENDBRANCH   2   3
DOCKED: ENDBRANCH   1   2
DOCKED: BRANCH   1   9
DOCKED: ATOM      9  C   UNL     1      25.380 -17.275  -1.005 -0.65 -0.00    +0.000 C 
DOCKED: BRANCH   9  10
DOCKED: ATOM     10  C   UNL     1      24.027 -17.647  -0.370 -0.70 -0.00    +0.000 C 
DOCKED: BRANCH  10  11
DOCKED: ATOM     11  C   UNL     1      23.339 -18.823  -1.075 -0.81 -0.00    +0.000 C 
DOCKED: BRANCH  11  12
DOCKED: ATOM     12  C   UNL     1      21.852 -18.636  -1.073 -0.81 -0.00    +0.000 C 
DOCKED: ATOM     13  N   UNL     1      20.994 -19.684  -1.528 -0.75 -0.00    +0.000 N 
DOCKED: ATOM     14  O   UNL     1      19.650 -19.512  -1.545 -2.04 -0.00    +0.000 OA
DOCKED: ATOM     15  O   UNL     1      21.361 -17.534  -0.707 -1.78 -0.00    +0.000 OA
DOCKED: ATOM     16  H   UNL     1      21.380 -20.536  -1.832 -0.37 -0.00    +0.000 HD
DOCKED: ENDBRANCH  11  12
DOCKED: ENDBRANCH  10  11
DOCKED: ENDBRANCH   9  10
DOCKED: ENDBRANCH   1   9
DOCKED: TORSDOF 7
DOCKED: TER
DOCKED: ENDMDL
________________________________________________________________________________


	BEGINNING GENETIC ALGORITHM DOCKING 92 of 100
Run: 92 Seed: 95656313 2022986532 [ Run 92 of 100 GA/GALS ]
Beginning LAMARCKIAN GENETIC ALGORITHM (LGA), with a maximum of 2500000 energy evaluations.

Final-Value: -13.159


	FINAL GENETIC ALGORITHM DOCKED STATE
	_______________________________________________


Detailed state:  trans 24.061 -18.769 -2.011 quatxyzw -0.673376 0.407356 -0.608045 -0.104435 center 0.010 0.634 0.018 ntor 7 164.8163 -42.8530 15.1224 -140.5610 -145.6279 -164.2080 -132.0167
State:	 24.061 -18.769  -2.011  -0.677  0.410 -0.611 -168.011    164.82  -42.85   15.12 -140.56 -145.63 -164.21 -132.02

DOCKED: MODEL       92
DOCKED: USER    Run = 92
DOCKED: USER    DPF = ligand_dock.biased.dpf
DOCKED: USER  
DOCKED: USER    Estimated Free Energy of Binding    =  -10.47 kcal/mol  [=(1)+(2)+(3)-(4)]
DOCKED: USER    Estimated Inhibition Constant, Ki   =   21.17 nM (nanomolar)  [Temperature = 298.15 K]
DOCKED: USER    
DOCKED: USER    (1) Final Intermolecular Energy     =  -12.56 kcal/mol
DOCKED: USER        vdW + Hbond + desolv Energy     =  -12.56 kcal/mol
DOCKED: USER        Electrostatic Energy            =   +0.00 kcal/mol
DOCKED: USER    (2) Final Total Internal Energy     =   -0.60 kcal/mol
DOCKED: USER    (3) Torsional Free Energy           =   +2.09 kcal/mol
DOCKED: USER    (4) Unbound System's Energy  [=(2)] =   -0.60 kcal/mol
DOCKED: USER    
DOCKED: USER    
DOCKED: USER    NEWDPF move ligand.pdbqt
DOCKED: USER    NEWDPF about 0.010000 0.634000 0.018000
DOCKED: USER    NEWDPF tran0 24.061231 -18.769120 -2.011419
DOCKED: USER    NEWDPF quaternion0 -0.673376 0.407356 -0.608045 -0.104435
DOCKED: USER    NEWDPF axisangle0 -0.677078 0.409596 -0.611389 -168.010730
DOCKED: USER    NEWDPF quat0 -0.677078 0.409596 -0.611389 -168.010730
DOCKED: USER    NEWDPF dihe0 164.82 -42.85 15.12 -140.56 -145.63 -164.21 -132.02 
DOCKED: USER  keepresnum = 1 
DOCKED: USER  
DOCKED: REMARK  Name = 
DOCKED: REMARK  7 active torsions:
DOCKED: REMARK  status: ('A' for Active; 'I' for Inactive)
DOCKED: REMARK    1  A    between atoms: C_3  and  C_4
DOCKED: REMARK    2  A    between atoms: C_4  and  C_5
DOCKED: REMARK    3  A    between atoms: C_5  and  C_6
DOCKED: REMARK    4  A    between atoms: C_6  and  C_7
DOCKED: REMARK    5  A    between atoms: C_7  and  C_8
DOCKED: REMARK    6  A    between atoms: C_8  and  C_9
DOCKED: REMARK    7  A    between atoms: C_9  and  C_10
DOCKED: REMARK                            x       y       z     vdW  Elec       q    Type
DOCKED: REMARK                         _______ _______ _______ _____ _____    ______ ____
DOCKED: USER                              x       y       z     vdW  Elec       q    Type
DOCKED: USER                           _______ _______ _______ _____ _____    ______ ____
DOCKED: ROOT
DOCKED: ATOM      1  C   UNL     1      25.317 -17.893  -0.420 -0.69 -0.00    +0.000 C 
DOCKED: ENDROOT
DOCKED: BRANCH   1   2
DOCKED: ATOM      2  C   UNL     1      23.875 -18.348  -0.147 -0.72 -0.00    +0.000 C 
DOCKED: BRANCH   2   3
DOCKED: ATOM      3  C   UNL     1      23.072 -18.434  -1.448 -0.74 -0.00    +0.000 C 
DOCKED: BRANCH   3   6
DOCKED: ATOM      4  O   UNL     1      19.532 -19.738  -1.175 -1.95 -0.00    +0.000 OA
DOCKED: ATOM      5  N   UNL     1      20.862 -19.686  -1.421 -0.78 -0.00    +0.000 N 
DOCKED: ATOM      6  C   UNL     1      21.602 -18.494  -1.155 -0.66 -0.00    +0.000 C 
DOCKED: ATOM      7  O   UNL     1      21.013 -17.473  -0.707 -2.06 -0.00    +0.000 OA
DOCKED: ATOM      8  H   UNL     1      21.323 -20.475  -1.787 -0.39 -0.00    +0.000 HD
DOCKED: ENDBRANCH   3   6
DOCKED: ENDBRANCH   2   3
DOCKED: ENDBRANCH   1   2
DOCKED: BRANCH   1   9
DOCKED: ATOM      9  C   UNL     1      25.402 -16.758  -1.456 -0.60 -0.00    +0.000 C 
DOCKED: BRANCH   9  10
DOCKED: ATOM     10  C   UNL     1      26.765 -16.045  -1.531 -0.42 -0.00    +0.000 C 
DOCKED: BRANCH  10  11
DOCKED: ATOM     11  C   UNL     1      27.254 -15.839  -2.971 -0.35 -0.00    +0.000 C 
DOCKED: BRANCH  11  12
DOCKED: ATOM     12  C   UNL     1      26.152 -15.289  -3.824 -0.56 -0.00    +0.000 C 
DOCKED: ATOM     13  N   UNL     1      25.302 -14.255  -3.324 -0.47 -0.00    +0.000 N 
DOCKED: ATOM     14  O   UNL     1      24.294 -13.766  -4.085 -1.14 -0.00    +0.000 OA
DOCKED: ATOM     15  O   UNL     1      25.951 -15.769  -4.972 -1.00 -0.00    +0.000 OA
DOCKED: ATOM     16  H   UNL     1      25.449 -13.895  -2.419 -0.02 -0.00    +0.000 HD
DOCKED: ENDBRANCH  11  12
DOCKED: ENDBRANCH  10  11
DOCKED: ENDBRANCH   9  10
DOCKED: ENDBRANCH   1   9
DOCKED: TORSDOF 7
DOCKED: TER
DOCKED: ENDMDL
________________________________________________________________________________


	BEGINNING GENETIC ALGORITHM DOCKING 93 of 100
Run: 93 Seed: 832980148 728092297 [ Run 93 of 100 GA/GALS ]
Beginning LAMARCKIAN GENETIC ALGORITHM (LGA), with a maximum of 2500000 energy evaluations.

Final-Value: -13.105


	FINAL GENETIC ALGORITHM DOCKED STATE
	_______________________________________________


Detailed state:  trans 23.253 -15.714 -0.983 quatxyzw -0.458642 0.875091 0.139843 -0.065627 center 0.010 0.634 0.018 ntor 7 72.7164 -10.6286 56.7121 157.3726 10.1315 154.5075 -167.0503
State:	 23.253 -15.714  -0.983  -0.460  0.877  0.140 -172.474     72.72  -10.63   56.71  157.37   10.13  154.51 -167.05

DOCKED: MODEL       93
DOCKED: USER    Run = 93
DOCKED: USER    DPF = ligand_dock.biased.dpf
DOCKED: USER  
DOCKED: USER    Estimated Free Energy of Binding    =  -10.54 kcal/mol  [=(1)+(2)+(3)-(4)]
DOCKED: USER    Estimated Inhibition Constant, Ki   =   18.86 nM (nanomolar)  [Temperature = 298.15 K]
DOCKED: USER    
DOCKED: USER    (1) Final Intermolecular Energy     =  -12.63 kcal/mol
DOCKED: USER        vdW + Hbond + desolv Energy     =  -12.63 kcal/mol
DOCKED: USER        Electrostatic Energy            =   +0.00 kcal/mol
DOCKED: USER    (2) Final Total Internal Energy     =   -0.48 kcal/mol
DOCKED: USER    (3) Torsional Free Energy           =   +2.09 kcal/mol
DOCKED: USER    (4) Unbound System's Energy  [=(2)] =   -0.48 kcal/mol
DOCKED: USER    
DOCKED: USER    
DOCKED: USER    NEWDPF move ligand.pdbqt
DOCKED: USER    NEWDPF about 0.010000 0.634000 0.018000
DOCKED: USER    NEWDPF tran0 23.252502 -15.713537 -0.982775
DOCKED: USER    NEWDPF quaternion0 -0.458642 0.875091 0.139843 -0.065627
DOCKED: USER    NEWDPF axisangle0 -0.459633 0.876982 0.140145 -172.474337
DOCKED: USER    NEWDPF quat0 -0.459633 0.876982 0.140145 -172.474337
DOCKED: USER    NEWDPF dihe0 72.72 -10.63 56.71 157.37 10.13 154.51 -167.05 
DOCKED: USER  keepresnum = 1 
DOCKED: USER  
DOCKED: REMARK  Name = 
DOCKED: REMARK  7 active torsions:
DOCKED: REMARK  status: ('A' for Active; 'I' for Inactive)
DOCKED: REMARK    1  A    between atoms: C_3  and  C_4
DOCKED: REMARK    2  A    between atoms: C_4  and  C_5
DOCKED: REMARK    3  A    between atoms: C_5  and  C_6
DOCKED: REMARK    4  A    between atoms: C_6  and  C_7
DOCKED: REMARK    5  A    between atoms: C_7  and  C_8
DOCKED: REMARK    6  A    between atoms: C_8  and  C_9
DOCKED: REMARK    7  A    between atoms: C_9  and  C_10
DOCKED: REMARK                            x       y       z     vdW  Elec       q    Type
DOCKED: REMARK                         _______ _______ _______ _____ _____    ______ ____
DOCKED: USER                              x       y       z     vdW  Elec       q    Type
DOCKED: USER                           _______ _______ _______ _____ _____    ______ ____
DOCKED: ROOT
DOCKED: ATOM      1  C   UNL     1      24.700 -17.098  -1.913 -0.62 -0.00    +0.000 C 
DOCKED: ENDROOT
DOCKED: BRANCH   1   2
DOCKED: ATOM      2  C   UNL     1      23.769 -17.552  -0.777 -0.75 -0.00    +0.000 C 
DOCKED: BRANCH   2   3
DOCKED: ATOM      3  C   UNL     1      23.146 -18.915  -1.091 -0.81 -0.00    +0.000 C 
DOCKED: BRANCH   3   6
DOCKED: ATOM      4  O   UNL     1      19.513 -19.677  -1.812 -2.07 -0.00    +0.000 OA
DOCKED: ATOM      5  N   UNL     1      20.864 -19.767  -1.808 -0.68 -0.00    +0.000 N 
DOCKED: ATOM      6  C   UNL     1      21.650 -18.824  -1.077 -0.83 -0.00    +0.000 C 
DOCKED: ATOM      7  O   UNL     1      21.087 -17.888  -0.448 -1.94 -0.00    +0.000 OA
DOCKED: ATOM      8  H   UNL     1      21.308 -20.486  -2.312 -0.52 -0.00    +0.000 HD
DOCKED: ENDBRANCH   3   6
DOCKED: ENDBRANCH   2   3
DOCKED: ENDBRANCH   1   2
DOCKED: BRANCH   1   9
DOCKED: ATOM      9  C   UNL     1      25.666 -15.979  -1.486 -0.53 -0.00    +0.000 C 
DOCKED: BRANCH   9  10
DOCKED: ATOM     10  C   UNL     1      27.140 -16.211  -1.866 -0.39 -0.00    +0.000 C 
DOCKED: BRANCH  10  11
DOCKED: ATOM     11  C   UNL     1      27.517 -15.580  -3.213 -0.34 -0.00    +0.000 C 
DOCKED: BRANCH  11  12
DOCKED: ATOM     12  C   UNL     1      26.284 -15.218  -3.984 -0.55 -0.00    +0.000 C 
DOCKED: ATOM     13  N   UNL     1      25.508 -14.079  -3.607 -0.47 -0.00    +0.000 N 
DOCKED: ATOM     14  O   UNL     1      24.383 -13.758  -4.290 -1.11 -0.00    +0.000 OA
DOCKED: ATOM     15  O   UNL     1      25.911 -15.945  -4.943 -1.00 -0.00    +0.000 OA
DOCKED: ATOM     16  H   UNL     1      25.791 -13.524  -2.845 -0.02 -0.00    +0.000 HD
DOCKED: ENDBRANCH  11  12
DOCKED: ENDBRANCH  10  11
DOCKED: ENDBRANCH   9  10
DOCKED: ENDBRANCH   1   9
DOCKED: TORSDOF 7
DOCKED: TER
DOCKED: ENDMDL
________________________________________________________________________________


	BEGINNING GENETIC ALGORITHM DOCKING 94 of 100
Run: 94 Seed: 2051484157 372411476 [ Run 94 of 100 GA/GALS ]
Beginning LAMARCKIAN GENETIC ALGORITHM (LGA), with a maximum of 2500000 energy evaluations.

Final-Value: -12.277


	FINAL GENETIC ALGORITHM DOCKED STATE
	_______________________________________________


Detailed state:  trans 26.309 -16.300 -2.801 quatxyzw 0.593261 0.633380 -0.278971 0.411153 center 0.010 0.634 0.018 ntor 7 -178.3959 177.9852 144.7537 31.9501 -65.1094 179.7798 -163.3451
State:	 26.309 -16.300  -2.801   0.651  0.695 -0.306 131.445   -178.40  177.99  144.75   31.95  -65.11  179.78 -163.35

DOCKED: MODEL       94
DOCKED: USER    Run = 94
DOCKED: USER    DPF = ligand_dock.biased.dpf
DOCKED: USER  
DOCKED: USER    Estimated Free Energy of Binding    =   -9.64 kcal/mol  [=(1)+(2)+(3)-(4)]
DOCKED: USER    Estimated Inhibition Constant, Ki   =   85.48 nM (nanomolar)  [Temperature = 298.15 K]
DOCKED: USER    
DOCKED: USER    (1) Final Intermolecular Energy     =  -11.73 kcal/mol
DOCKED: USER        vdW + Hbond + desolv Energy     =  -11.73 kcal/mol
DOCKED: USER        Electrostatic Energy            =   +0.00 kcal/mol
DOCKED: USER    (2) Final Total Internal Energy     =   -0.55 kcal/mol
DOCKED: USER    (3) Torsional Free Energy           =   +2.09 kcal/mol
DOCKED: USER    (4) Unbound System's Energy  [=(2)] =   -0.55 kcal/mol
DOCKED: USER    
DOCKED: USER    
DOCKED: USER    NEWDPF move ligand.pdbqt
DOCKED: USER    NEWDPF about 0.010000 0.634000 0.018000
DOCKED: USER    NEWDPF tran0 26.308657 -16.299801 -2.801063
DOCKED: USER    NEWDPF quaternion0 0.593261 0.633380 -0.278971 0.411153
DOCKED: USER    NEWDPF axisangle0 0.650815 0.694826 -0.306034 131.445403
DOCKED: USER    NEWDPF quat0 0.650815 0.694826 -0.306034 131.445403
DOCKED: USER    NEWDPF dihe0 -178.40 177.99 144.75 31.95 -65.11 179.78 -163.35 
DOCKED: USER  keepresnum = 1 
DOCKED: USER  
DOCKED: REMARK  Name = 
DOCKED: REMARK  7 active torsions:
DOCKED: REMARK  status: ('A' for Active; 'I' for Inactive)
DOCKED: REMARK    1  A    between atoms: C_3  and  C_4
DOCKED: REMARK    2  A    between atoms: C_4  and  C_5
DOCKED: REMARK    3  A    between atoms: C_5  and  C_6
DOCKED: REMARK    4  A    between atoms: C_6  and  C_7
DOCKED: REMARK    5  A    between atoms: C_7  and  C_8
DOCKED: REMARK    6  A    between atoms: C_8  and  C_9
DOCKED: REMARK    7  A    between atoms: C_9  and  C_10
DOCKED: REMARK                            x       y       z     vdW  Elec       q    Type
DOCKED: REMARK                         _______ _______ _______ _____ _____    ______ ____
DOCKED: USER                              x       y       z     vdW  Elec       q    Type
DOCKED: USER                           _______ _______ _______ _____ _____    ______ ____
DOCKED: ROOT
DOCKED: ATOM      1  C   UNL     1      24.850 -16.059  -1.160 -0.44 -0.00    +0.000 C 
DOCKED: ENDROOT
DOCKED: BRANCH   1   2
DOCKED: ATOM      2  C   UNL     1      26.285 -15.520  -1.046 -0.42 -0.00    +0.000 C 
DOCKED: BRANCH   2   3
DOCKED: ATOM      3  C   UNL     1      26.573 -14.494  -2.146 -0.33 -0.00    +0.000 C 
DOCKED: BRANCH   3   6
DOCKED: ATOM      4  O   UNL     1      25.876 -15.929  -5.575 -1.12 +0.00    +0.000 OA
DOCKED: ATOM      5  N   UNL     1      26.518 -15.611  -4.426 -0.52 -0.00    +0.000 N 
DOCKED: ATOM      6  C   UNL     1      25.852 -14.861  -3.408 -0.53 -0.00    +0.000 C 
DOCKED: ATOM      7  O   UNL     1      24.667 -14.472  -3.587 -0.89 -0.00    +0.000 OA
DOCKED: ATOM      8  H   UNL     1      27.450 -15.899  -4.291 -0.02 -0.00    +0.000 HD
DOCKED: ENDBRANCH   3   6
DOCKED: ENDBRANCH   2   3
DOCKED: ENDBRANCH   1   2
DOCKED: BRANCH   1   9
DOCKED: ATOM      9  C   UNL     1      24.795 -17.589  -1.319 -0.70 -0.00    +0.000 C 
DOCKED: BRANCH   9  10
DOCKED: ATOM     10  C   UNL     1      23.743 -18.297  -0.446 -0.79 -0.00    +0.000 C 
DOCKED: BRANCH  10  11
DOCKED: ATOM     11  C   UNL     1      22.682 -19.039  -1.269 -0.77 -0.00    +0.000 C 
DOCKED: BRANCH  11  12
DOCKED: ATOM     12  C   UNL     1      21.329 -18.876  -0.648 -0.87 -0.00    +0.000 C 
DOCKED: ATOM     13  N   UNL     1      20.806 -19.886   0.217 -0.67 -0.00    +0.000 N 
DOCKED: ATOM     14  O   UNL     1      19.576 -19.750   0.767 -0.81 -0.00    +0.000 OA
DOCKED: ATOM     15  O   UNL     1      20.634 -17.860  -0.922 -2.28 -0.00    +0.000 OA
DOCKED: ATOM     16  H   UNL     1      21.343 -20.687   0.414 -0.59 -0.00    +0.000 HD
DOCKED: ENDBRANCH  11  12
DOCKED: ENDBRANCH  10  11
DOCKED: ENDBRANCH   9  10
DOCKED: ENDBRANCH   1   9
DOCKED: TORSDOF 7
DOCKED: TER
DOCKED: ENDMDL
________________________________________________________________________________


	BEGINNING GENETIC ALGORITHM DOCKING 95 of 100
Run: 95 Seed: 873885205 998625278 [ Run 95 of 100 GA/GALS ]
Beginning LAMARCKIAN GENETIC ALGORITHM (LGA), with a maximum of 2500000 energy evaluations.

Final-Value: -12.402


	FINAL GENETIC ALGORITHM DOCKED STATE
	_______________________________________________


Detailed state:  trans 25.516 -16.835 -4.032 quatxyzw 0.584676 0.524436 -0.356142 0.506245 center 0.010 0.634 0.018 ntor 7 40.4754 -50.8263 -112.0680 -111.1901 -88.7973 115.8123 176.9156
State:	 25.516 -16.835  -4.032   0.678  0.608 -0.413 119.172     40.48  -50.83 -112.07 -111.19  -88.80  115.81  176.92

DOCKED: MODEL       95
DOCKED: USER    Run = 95
DOCKED: USER    DPF = ligand_dock.biased.dpf
DOCKED: USER  
DOCKED: USER    Estimated Free Energy of Binding    =   -9.78 kcal/mol  [=(1)+(2)+(3)-(4)]
DOCKED: USER    Estimated Inhibition Constant, Ki   =   67.47 nM (nanomolar)  [Temperature = 298.15 K]
DOCKED: USER    
DOCKED: USER    (1) Final Intermolecular Energy     =  -11.87 kcal/mol
DOCKED: USER        vdW + Hbond + desolv Energy     =  -11.87 kcal/mol
DOCKED: USER        Electrostatic Energy            =   +0.00 kcal/mol
DOCKED: USER    (2) Final Total Internal Energy     =   -0.53 kcal/mol
DOCKED: USER    (3) Torsional Free Energy           =   +2.09 kcal/mol
DOCKED: USER    (4) Unbound System's Energy  [=(2)] =   -0.53 kcal/mol
DOCKED: USER    
DOCKED: USER    
DOCKED: USER    NEWDPF move ligand.pdbqt
DOCKED: USER    NEWDPF about 0.010000 0.634000 0.018000
DOCKED: USER    NEWDPF tran0 25.515999 -16.834881 -4.031808
DOCKED: USER    NEWDPF quaternion0 0.584676 0.524436 -0.356142 0.506245
DOCKED: USER    NEWDPF axisangle0 0.677972 0.608119 -0.412971 119.171917
DOCKED: USER    NEWDPF quat0 0.677972 0.608119 -0.412971 119.171917
DOCKED: USER    NEWDPF dihe0 40.48 -50.83 -112.07 -111.19 -88.80 115.81 176.92 
DOCKED: USER  keepresnum = 1 
DOCKED: USER  
DOCKED: REMARK  Name = 
DOCKED: REMARK  7 active torsions:
DOCKED: REMARK  status: ('A' for Active; 'I' for Inactive)
DOCKED: REMARK    1  A    between atoms: C_3  and  C_4
DOCKED: REMARK    2  A    between atoms: C_4  and  C_5
DOCKED: REMARK    3  A    between atoms: C_5  and  C_6
DOCKED: REMARK    4  A    between atoms: C_6  and  C_7
DOCKED: REMARK    5  A    between atoms: C_7  and  C_8
DOCKED: REMARK    6  A    between atoms: C_8  and  C_9
DOCKED: REMARK    7  A    between atoms: C_9  and  C_10
DOCKED: REMARK                            x       y       z     vdW  Elec       q    Type
DOCKED: REMARK                         _______ _______ _______ _____ _____    ______ ____
DOCKED: USER                              x       y       z     vdW  Elec       q    Type
DOCKED: USER                           _______ _______ _______ _____ _____    ______ ____
DOCKED: ROOT
DOCKED: ATOM      1  C   UNL     1      24.658 -16.397  -2.045 -0.49 -0.00    +0.000 C 
DOCKED: ENDROOT
DOCKED: BRANCH   1   2
DOCKED: ATOM      2  C   UNL     1      26.106 -16.020  -2.396 -0.50 -0.00    +0.000 C 
DOCKED: BRANCH   2   3
DOCKED: ATOM      3  C   UNL     1      26.216 -15.573  -3.857 -0.54 -0.00    +0.000 C 
DOCKED: BRANCH   3   6
DOCKED: ATOM      4  O   UNL     1      25.613 -11.952  -4.768 -0.40 -0.00    +0.000 OA
DOCKED: ATOM      5  N   UNL     1      26.231 -13.145  -4.602 -0.33 -0.00    +0.000 N 
DOCKED: ATOM      6  C   UNL     1      25.522 -14.259  -4.057 -0.55 -0.00    +0.000 C 
DOCKED: ATOM      7  O   UNL     1      24.318 -14.129  -3.707 -0.97 -0.00    +0.000 OA
DOCKED: ATOM      8  H   UNL     1      27.177 -13.245  -4.858 -0.01 -0.00    +0.000 HD
DOCKED: ENDBRANCH   3   6
DOCKED: ENDBRANCH   2   3
DOCKED: ENDBRANCH   1   2
DOCKED: BRANCH   1   9
DOCKED: ATOM      9  C   UNL     1      24.403 -17.913  -2.096 -0.47 -0.00    +0.000 C 
DOCKED: BRANCH   9  10
DOCKED: ATOM     10  C   UNL     1      24.044 -18.559  -0.745 -0.80 -0.00    +0.000 C 
DOCKED: BRANCH  10  11
DOCKED: ATOM     11  C   UNL     1      22.851 -17.883  -0.057 -0.72 -0.00    +0.000 C 
DOCKED: BRANCH  11  12
DOCKED: ATOM     12  C   UNL     1      21.567 -18.294  -0.712 -0.84 -0.00    +0.000 C 
DOCKED: ATOM     13  N   UNL     1      21.418 -19.614  -1.238 -0.68 -0.00    +0.000 N 
DOCKED: ATOM     14  O   UNL     1      20.266 -19.985  -1.846 -2.32 -0.00    +0.000 OA
DOCKED: ATOM     15  O   UNL     1      20.632 -17.458  -0.834 -2.06 +0.00    +0.000 OA
DOCKED: ATOM     16  H   UNL     1      22.157 -20.259  -1.159 -0.22 -0.00    +0.000 HD
DOCKED: ENDBRANCH  11  12
DOCKED: ENDBRANCH  10  11
DOCKED: ENDBRANCH   9  10
DOCKED: ENDBRANCH   1   9
DOCKED: TORSDOF 7
DOCKED: TER
DOCKED: ENDMDL
________________________________________________________________________________


	BEGINNING GENETIC ALGORITHM DOCKING 96 of 100
Run: 96 Seed: 418516189 1970425355 [ Run 96 of 100 GA/GALS ]
Beginning LAMARCKIAN GENETIC ALGORITHM (LGA), with a maximum of 2500000 energy evaluations.

Final-Value: -11.695


	FINAL GENETIC ALGORITHM DOCKED STATE
	_______________________________________________


Detailed state:  trans 26.042 -15.397 -0.642 quatxyzw 0.072240 0.146060 -0.078384 -0.983516 center 0.010 0.634 0.018 ntor 7 -150.0311 -179.6950 -22.8642 62.5865 138.7304 -50.4515 170.7373
State:	 26.042 -15.397  -0.642   0.400  0.808 -0.433 -20.835   -150.03 -179.69  -22.86   62.59  138.73  -50.45  170.74

DOCKED: MODEL       96
DOCKED: USER    Run = 96
DOCKED: USER    DPF = ligand_dock.biased.dpf
DOCKED: USER  
DOCKED: USER    Estimated Free Energy of Binding    =   -8.99 kcal/mol  [=(1)+(2)+(3)-(4)]
DOCKED: USER    Estimated Inhibition Constant, Ki   =  255.50 nM (nanomolar)  [Temperature = 298.15 K]
DOCKED: USER    
DOCKED: USER    (1) Final Intermolecular Energy     =  -11.08 kcal/mol
DOCKED: USER        vdW + Hbond + desolv Energy     =  -11.08 kcal/mol
DOCKED: USER        Electrostatic Energy            =   +0.00 kcal/mol
DOCKED: USER    (2) Final Total Internal Energy     =   -0.61 kcal/mol
DOCKED: USER    (3) Torsional Free Energy           =   +2.09 kcal/mol
DOCKED: USER    (4) Unbound System's Energy  [=(2)] =   -0.61 kcal/mol
DOCKED: USER    
DOCKED: USER    
DOCKED: USER    NEWDPF move ligand.pdbqt
DOCKED: USER    NEWDPF about 0.010000 0.634000 0.018000
DOCKED: USER    NEWDPF tran0 26.041705 -15.397389 -0.641502
DOCKED: USER    NEWDPF quaternion0 0.072240 0.146060 -0.078384 -0.983516
DOCKED: USER    NEWDPF axisangle0 0.399512 0.807760 -0.433490 -20.835237
DOCKED: USER    NEWDPF quat0 0.399512 0.807760 -0.433490 -20.835237
DOCKED: USER    NEWDPF dihe0 -150.03 -179.69 -22.86 62.59 138.73 -50.45 170.74 
DOCKED: USER  keepresnum = 1 
DOCKED: USER  
DOCKED: REMARK  Name = 
DOCKED: REMARK  7 active torsions:
DOCKED: REMARK  status: ('A' for Active; 'I' for Inactive)
DOCKED: REMARK    1  A    between atoms: C_3  and  C_4
DOCKED: REMARK    2  A    between atoms: C_4  and  C_5
DOCKED: REMARK    3  A    between atoms: C_5  and  C_6
DOCKED: REMARK    4  A    between atoms: C_6  and  C_7
DOCKED: REMARK    5  A    between atoms: C_7  and  C_8
DOCKED: REMARK    6  A    between atoms: C_8  and  C_9
DOCKED: REMARK    7  A    between atoms: C_9  and  C_10
DOCKED: REMARK                            x       y       z     vdW  Elec       q    Type
DOCKED: REMARK                         _______ _______ _______ _____ _____    ______ ____
DOCKED: USER                              x       y       z     vdW  Elec       q    Type
DOCKED: USER                           _______ _______ _______ _____ _____    ______ ____
DOCKED: ROOT
DOCKED: ATOM      1  C   UNL     1      26.254 -17.595  -0.617 -0.61 -0.00    +0.000 C 
DOCKED: ENDROOT
DOCKED: BRANCH   1   2
DOCKED: ATOM      2  C   UNL     1      26.626 -16.765  -1.856 -0.45 -0.00    +0.000 C 
DOCKED: BRANCH   2   3
DOCKED: ATOM      3  C   UNL     1      25.471 -16.731  -2.860 -0.36 -0.00    +0.000 C 
DOCKED: BRANCH   3   6
DOCKED: ATOM      4  O   UNL     1      25.560 -13.149  -4.070 -0.49 -0.00    +0.000 OA
DOCKED: ATOM      5  N   UNL     1      25.462 -14.221  -3.249 -0.44 -0.00    +0.000 N 
DOCKED: ATOM      6  C   UNL     1      25.600 -15.545  -3.768 -0.56 -0.00    +0.000 C 
DOCKED: ATOM      7  O   UNL     1      25.794 -15.721  -5.001 -0.97 -0.00    +0.000 OA
DOCKED: ATOM      8  H   UNL     1      25.293 -14.088  -2.289 -0.02 -0.00    +0.000 HD
DOCKED: ENDBRANCH   3   6
DOCKED: ENDBRANCH   2   3
DOCKED: ENDBRANCH   1   2
DOCKED: BRANCH   1   9
DOCKED: ATOM      9  C   UNL     1      24.764 -17.486  -0.247 -0.57 -0.00    +0.000 C 
DOCKED: BRANCH   9  10
DOCKED: ATOM     10  C   UNL     1      23.934 -18.756  -0.506 -0.70 -0.00    +0.000 C 
DOCKED: BRANCH  10  11
DOCKED: ATOM     11  C   UNL     1      22.911 -18.582  -1.636 -0.57 -0.00    +0.000 C 
DOCKED: BRANCH  11  12
DOCKED: ATOM     12  C   UNL     1      21.518 -18.565  -1.083 -0.78 -0.00    +0.000 C 
DOCKED: ATOM     13  N   UNL     1      20.748 -19.768  -1.032 -0.79 -0.00    +0.000 N 
DOCKED: ATOM     14  O   UNL     1      19.484 -19.754  -0.549 -1.53 -0.00    +0.000 OA
DOCKED: ATOM     15  O   UNL     1      21.012 -17.477  -0.698 -2.04 -0.00    +0.000 OA
DOCKED: ATOM     16  H   UNL     1      21.140 -20.613  -1.351 -0.19 -0.00    +0.000 HD
DOCKED: ENDBRANCH  11  12
DOCKED: ENDBRANCH  10  11
DOCKED: ENDBRANCH   9  10
DOCKED: ENDBRANCH   1   9
DOCKED: TORSDOF 7
DOCKED: TER
DOCKED: ENDMDL
________________________________________________________________________________


	BEGINNING GENETIC ALGORITHM DOCKING 97 of 100
Run: 97 Seed: 1649341533 282856568 [ Run 97 of 100 GA/GALS ]
Beginning LAMARCKIAN GENETIC ALGORITHM (LGA), with a maximum of 2500000 energy evaluations.

Final-Value: -13.307


	FINAL GENETIC ALGORITHM DOCKED STATE
	_______________________________________________


Detailed state:  trans 24.472 -17.682 0.277 quatxyzw -0.186475 0.610000 0.768600 0.048792 center 0.010 0.634 0.018 ntor 7 -16.8065 52.5114 -90.5381 -98.6933 -68.1964 -108.0022 14.4150
State:	 24.472 -17.682   0.277  -0.187  0.611  0.770 174.407    -16.81   52.51  -90.54  -98.69  -68.20 -108.00   14.41

DOCKED: MODEL       97
DOCKED: USER    Run = 97
DOCKED: USER    DPF = ligand_dock.biased.dpf
DOCKED: USER  
DOCKED: USER    Estimated Free Energy of Binding    =  -10.70 kcal/mol  [=(1)+(2)+(3)-(4)]
DOCKED: USER    Estimated Inhibition Constant, Ki   =   14.41 nM (nanomolar)  [Temperature = 298.15 K]
DOCKED: USER    
DOCKED: USER    (1) Final Intermolecular Energy     =  -12.79 kcal/mol
DOCKED: USER        vdW + Hbond + desolv Energy     =  -12.79 kcal/mol
DOCKED: USER        Electrostatic Energy            =   +0.00 kcal/mol
DOCKED: USER    (2) Final Total Internal Energy     =   -0.52 kcal/mol
DOCKED: USER    (3) Torsional Free Energy           =   +2.09 kcal/mol
DOCKED: USER    (4) Unbound System's Energy  [=(2)] =   -0.52 kcal/mol
DOCKED: USER    
DOCKED: USER    
DOCKED: USER    NEWDPF move ligand.pdbqt
DOCKED: USER    NEWDPF about 0.010000 0.634000 0.018000
DOCKED: USER    NEWDPF tran0 24.471546 -17.681705 0.276512
DOCKED: USER    NEWDPF quaternion0 -0.186475 0.610000 0.768600 0.048792
DOCKED: USER    NEWDPF axisangle0 -0.186697 0.610727 0.769517 174.406601
DOCKED: USER    NEWDPF quat0 -0.186697 0.610727 0.769517 174.406601
DOCKED: USER    NEWDPF dihe0 -16.81 52.51 -90.54 -98.69 -68.20 -108.00 14.41 
DOCKED: USER  keepresnum = 1 
DOCKED: USER  
DOCKED: REMARK  Name = 
DOCKED: REMARK  7 active torsions:
DOCKED: REMARK  status: ('A' for Active; 'I' for Inactive)
DOCKED: REMARK    1  A    between atoms: C_3  and  C_4
DOCKED: REMARK    2  A    between atoms: C_4  and  C_5
DOCKED: REMARK    3  A    between atoms: C_5  and  C_6
DOCKED: REMARK    4  A    between atoms: C_6  and  C_7
DOCKED: REMARK    5  A    between atoms: C_7  and  C_8
DOCKED: REMARK    6  A    between atoms: C_8  and  C_9
DOCKED: REMARK    7  A    between atoms: C_9  and  C_10
DOCKED: REMARK                            x       y       z     vdW  Elec       q    Type
DOCKED: REMARK                         _______ _______ _______ _____ _____    ______ ____
DOCKED: USER                              x       y       z     vdW  Elec       q    Type
DOCKED: USER                           _______ _______ _______ _____ _____    ______ ____
DOCKED: ROOT
DOCKED: ATOM      1  C   UNL     1      24.189 -16.891  -1.766 -0.52 -0.00    +0.000 C 
DOCKED: ENDROOT
DOCKED: BRANCH   1   2
DOCKED: ATOM      2  C   UNL     1      23.930 -18.369  -1.433 -0.74 -0.00    +0.000 C 
DOCKED: BRANCH   2   3
DOCKED: ATOM      3  C   UNL     1      22.895 -18.505  -0.314 -0.82 -0.00    +0.000 C 
DOCKED: BRANCH   3   6
DOCKED: ATOM      4  O   UNL     1      19.886 -19.808  -2.199 -2.29 -0.00    +0.000 OA
DOCKED: ATOM      5  N   UNL     1      21.128 -19.731  -1.664 -0.65 -0.00    +0.000 N 
DOCKED: ATOM      6  C   UNL     1      21.512 -18.596  -0.887 -0.83 -0.00    +0.000 C 
DOCKED: ATOM      7  O   UNL     1      20.700 -17.648  -0.713 -2.18 +0.00    +0.000 OA
DOCKED: ATOM      8  H   UNL     1      21.770 -20.462  -1.813 -0.42 -0.00    +0.000 HD
DOCKED: ENDBRANCH   3   6
DOCKED: ENDBRANCH   2   3
DOCKED: ENDBRANCH   1   2
DOCKED: BRANCH   1   9
DOCKED: ATOM      9  C   UNL     1      25.652 -16.472  -1.538 -0.57 -0.00    +0.000 C 
DOCKED: BRANCH   9  10
DOCKED: ATOM     10  C   UNL     1      26.256 -16.921  -0.195 -0.46 -0.00    +0.000 C 
DOCKED: BRANCH  10  11
DOCKED: ATOM     11  C   UNL     1      27.613 -16.268   0.099 -0.32 -0.00    +0.000 C 
DOCKED: BRANCH  11  12
DOCKED: ATOM     12  C   UNL     1      27.423 -14.969   0.823 -0.26 -0.00    +0.000 C 
DOCKED: ATOM     13  N   UNL     1      28.272 -14.623   1.918 -0.23 -0.00    +0.000 N 
DOCKED: ATOM     14  O   UNL     1      28.092 -13.459   2.586 -0.30 -0.00    +0.000 OA
DOCKED: ATOM     15  O   UNL     1      26.483 -14.199   0.487 -0.35 -0.00    +0.000 OA
DOCKED: ATOM     16  H   UNL     1      28.993 -15.236   2.191 -1.83 -0.00    +0.000 HD
DOCKED: ENDBRANCH  11  12
DOCKED: ENDBRANCH  10  11
DOCKED: ENDBRANCH   9  10
DOCKED: ENDBRANCH   1   9
DOCKED: TORSDOF 7
DOCKED: TER
DOCKED: ENDMDL
________________________________________________________________________________


	BEGINNING GENETIC ALGORITHM DOCKING 98 of 100
Run: 98 Seed: 78800749 940658324 [ Run 98 of 100 GA/GALS ]
Beginning LAMARCKIAN GENETIC ALGORITHM (LGA), with a maximum of 2500000 energy evaluations.

Final-Value: -12.602


	FINAL GENETIC ALGORITHM DOCKED STATE
	_______________________________________________


Detailed state:  trans 24.730 -15.947 0.281 quatxyzw 0.027160 -0.845000 -0.533843 -0.015791 center 0.010 0.634 0.018 ntor 7 86.1782 180.0000 74.4343 121.4777 70.8708 -1.5916 -57.9595
State:	 24.730 -15.947   0.281   0.027 -0.845 -0.534 -178.190     86.18  180.00   74.43  121.48   70.87   -1.59  -57.96

DOCKED: MODEL       98
DOCKED: USER    Run = 98
DOCKED: USER    DPF = ligand_dock.biased.dpf
DOCKED: USER  
DOCKED: USER    Estimated Free Energy of Binding    =   -9.98 kcal/mol  [=(1)+(2)+(3)-(4)]
DOCKED: USER    Estimated Inhibition Constant, Ki   =   48.04 nM (nanomolar)  [Temperature = 298.15 K]
DOCKED: USER    
DOCKED: USER    (1) Final Intermolecular Energy     =  -12.07 kcal/mol
DOCKED: USER        vdW + Hbond + desolv Energy     =  -12.07 kcal/mol
DOCKED: USER        Electrostatic Energy            =   +0.00 kcal/mol
DOCKED: USER    (2) Final Total Internal Energy     =   -0.53 kcal/mol
DOCKED: USER    (3) Torsional Free Energy           =   +2.09 kcal/mol
DOCKED: USER    (4) Unbound System's Energy  [=(2)] =   -0.53 kcal/mol
DOCKED: USER    
DOCKED: USER    
DOCKED: USER    NEWDPF move ligand.pdbqt
DOCKED: USER    NEWDPF about 0.010000 0.634000 0.018000
DOCKED: USER    NEWDPF tran0 24.730074 -15.946750 0.280532
DOCKED: USER    NEWDPF quaternion0 0.027160 -0.845000 -0.533843 -0.015791
DOCKED: USER    NEWDPF axisangle0 0.027164 -0.845105 -0.533909 -178.190406
DOCKED: USER    NEWDPF quat0 0.027164 -0.845105 -0.533909 -178.190406
DOCKED: USER    NEWDPF dihe0 86.18 180.00 74.43 121.48 70.87 -1.59 -57.96 
DOCKED: USER  keepresnum = 1 
DOCKED: USER  
DOCKED: REMARK  Name = 
DOCKED: REMARK  7 active torsions:
DOCKED: REMARK  status: ('A' for Active; 'I' for Inactive)
DOCKED: REMARK    1  A    between atoms: C_3  and  C_4
DOCKED: REMARK    2  A    between atoms: C_4  and  C_5
DOCKED: REMARK    3  A    between atoms: C_5  and  C_6
DOCKED: REMARK    4  A    between atoms: C_6  and  C_7
DOCKED: REMARK    5  A    between atoms: C_7  and  C_8
DOCKED: REMARK    6  A    between atoms: C_8  and  C_9
DOCKED: REMARK    7  A    between atoms: C_9  and  C_10
DOCKED: REMARK                            x       y       z     vdW  Elec       q    Type
DOCKED: REMARK                         _______ _______ _______ _____ _____    ______ ____
DOCKED: USER                              x       y       z     vdW  Elec       q    Type
DOCKED: USER                           _______ _______ _______ _____ _____    ______ ____
DOCKED: ROOT
DOCKED: ATOM      1  C   UNL     1      24.282 -16.480  -1.815 -0.41 -0.00    +0.000 C 
DOCKED: ENDROOT
DOCKED: BRANCH   1   2
DOCKED: ATOM      2  C   UNL     1      23.718 -17.294  -0.640 -0.70 -0.00    +0.000 C 
DOCKED: BRANCH   2   3
DOCKED: ATOM      3  C   UNL     1      23.197 -18.654  -1.114 -0.81 -0.00    +0.000 C 
DOCKED: BRANCH   3   6
DOCKED: ATOM      4  O   UNL     1      19.644 -19.732  -1.831 -2.24 -0.00    +0.000 OA
DOCKED: ATOM      5  N   UNL     1      20.997 -19.735  -1.776 -0.69 -0.00    +0.000 N 
DOCKED: ATOM      6  C   UNL     1      21.699 -18.657  -1.155 -0.73 -0.00    +0.000 C 
DOCKED: ATOM      7  O   UNL     1      21.059 -17.683  -0.674 -2.03 -0.00    +0.000 OA
DOCKED: ATOM      8  H   UNL     1      21.501 -20.485  -2.167 -0.51 -0.00    +0.000 HD
DOCKED: ENDBRANCH   3   6
DOCKED: ENDBRANCH   2   3
DOCKED: ENDBRANCH   1   2
DOCKED: BRANCH   1   9
DOCKED: ATOM      9  C   UNL     1      25.819 -16.502  -1.877 -0.55 -0.00    +0.000 C 
DOCKED: BRANCH   9  10
DOCKED: ATOM     10  C   UNL     1      26.495 -15.124  -1.756 -0.38 -0.00    +0.000 C 
DOCKED: BRANCH  10  11
DOCKED: ATOM     11  C   UNL     1      26.133 -14.176  -2.907 -0.38 -0.00    +0.000 C 
DOCKED: BRANCH  11  12
DOCKED: ATOM     12  C   UNL     1      26.355 -14.850  -4.227 -0.53 -0.00    +0.000 C 
DOCKED: ATOM     13  N   UNL     1      27.587 -14.672  -4.929 -0.37 -0.00    +0.000 N 
DOCKED: ATOM     14  O   UNL     1      27.785 -15.265  -6.130 -0.91 +0.00    +0.000 OA
DOCKED: ATOM     15  O   UNL     1      25.433 -15.542  -4.738 -0.84 -0.00    +0.000 OA
DOCKED: ATOM     16  H   UNL     1      28.297 -14.115  -4.537 +0.00 -0.00    +0.000 HD
DOCKED: ENDBRANCH  11  12
DOCKED: ENDBRANCH  10  11
DOCKED: ENDBRANCH   9  10
DOCKED: ENDBRANCH   1   9
DOCKED: TORSDOF 7
DOCKED: TER
DOCKED: ENDMDL
________________________________________________________________________________


	BEGINNING GENETIC ALGORITHM DOCKING 99 of 100
Run: 99 Seed: 271175711 1117639134 [ Run 99 of 100 GA/GALS ]
Beginning LAMARCKIAN GENETIC ALGORITHM (LGA), with a maximum of 2500000 energy evaluations.

Final-Value: -12.973


	FINAL GENETIC ALGORITHM DOCKED STATE
	_______________________________________________


Detailed state:  trans 25.563 -18.293 -2.263 quatxyzw 0.393642 -0.409230 0.715886 0.406307 center 0.010 0.634 0.018 ntor 7 -108.4347 -147.0095 44.2490 19.8299 127.0296 -148.1701 -1.0662
State:	 25.563 -18.293  -2.263   0.431 -0.448  0.783 132.054   -108.43 -147.01   44.25   19.83  127.03 -148.17   -1.07

DOCKED: MODEL       99
DOCKED: USER    Run = 99
DOCKED: USER    DPF = ligand_dock.biased.dpf
DOCKED: USER  
DOCKED: USER    Estimated Free Energy of Binding    =  -10.29 kcal/mol  [=(1)+(2)+(3)-(4)]
DOCKED: USER    Estimated Inhibition Constant, Ki   =   28.45 nM (nanomolar)  [Temperature = 298.15 K]
DOCKED: USER    
DOCKED: USER    (1) Final Intermolecular Energy     =  -12.38 kcal/mol
DOCKED: USER        vdW + Hbond + desolv Energy     =  -12.38 kcal/mol
DOCKED: USER        Electrostatic Energy            =   +0.00 kcal/mol
DOCKED: USER    (2) Final Total Internal Energy     =   -0.59 kcal/mol
DOCKED: USER    (3) Torsional Free Energy           =   +2.09 kcal/mol
DOCKED: USER    (4) Unbound System's Energy  [=(2)] =   -0.59 kcal/mol
DOCKED: USER    
DOCKED: USER    
DOCKED: USER    NEWDPF move ligand.pdbqt
DOCKED: USER    NEWDPF about 0.010000 0.634000 0.018000
DOCKED: USER    NEWDPF tran0 25.563362 -18.293434 -2.262622
DOCKED: USER    NEWDPF quaternion0 0.393642 -0.409230 0.715886 0.406307
DOCKED: USER    NEWDPF axisangle0 0.430804 -0.447864 0.783470 132.053949
DOCKED: USER    NEWDPF quat0 0.430804 -0.447864 0.783470 132.053949
DOCKED: USER    NEWDPF dihe0 -108.43 -147.01 44.25 19.83 127.03 -148.17 -1.07 
DOCKED: USER  keepresnum = 1 
DOCKED: USER  
DOCKED: REMARK  Name = 
DOCKED: REMARK  7 active torsions:
DOCKED: REMARK  status: ('A' for Active; 'I' for Inactive)
DOCKED: REMARK    1  A    between atoms: C_3  and  C_4
DOCKED: REMARK    2  A    between atoms: C_4  and  C_5
DOCKED: REMARK    3  A    between atoms: C_5  and  C_6
DOCKED: REMARK    4  A    between atoms: C_6  and  C_7
DOCKED: REMARK    5  A    between atoms: C_7  and  C_8
DOCKED: REMARK    6  A    between atoms: C_8  and  C_9
DOCKED: REMARK    7  A    between atoms: C_9  and  C_10
DOCKED: REMARK                            x       y       z     vdW  Elec       q    Type
DOCKED: REMARK                         _______ _______ _______ _____ _____    ______ ____
DOCKED: USER                              x       y       z     vdW  Elec       q    Type
DOCKED: USER                           _______ _______ _______ _____ _____    ______ ____
DOCKED: ROOT
DOCKED: ATOM      1  C   UNL     1      25.239 -18.145  -0.083 -0.67 -0.00    +0.000 C 
DOCKED: ENDROOT
DOCKED: BRANCH   1   2
DOCKED: ATOM      2  C   UNL     1      24.127 -18.620  -1.031 -0.77 -0.00    +0.000 C 
DOCKED: BRANCH   2   3
DOCKED: ATOM      3  C   UNL     1      23.039 -17.553  -1.178 -0.65 -0.00    +0.000 C 
DOCKED: BRANCH   3   6
DOCKED: ATOM      4  O   UNL     1      20.257 -20.111  -1.322 -2.09 -0.00    +0.000 OA
DOCKED: ATOM      5  N   UNL     1      21.488 -19.552  -1.397 -0.66 -0.00    +0.000 N 
DOCKED: ATOM      6  C   UNL     1      21.678 -18.174  -1.074 -0.69 -0.00    +0.000 C 
DOCKED: ATOM      7  O   UNL     1      20.692 -17.464  -0.736 -2.05 +0.00    +0.000 OA
DOCKED: ATOM      8  H   UNL     1      22.257 -20.099  -1.677 -0.43 -0.00    +0.000 HD
DOCKED: ENDBRANCH   3   6
DOCKED: ENDBRANCH   2   3
DOCKED: ENDBRANCH   1   2
DOCKED: BRANCH   1   9
DOCKED: ATOM      9  C   UNL     1      25.692 -16.702  -0.365 -0.43 -0.00    +0.000 C 
DOCKED: BRANCH   9  10
DOCKED: ATOM     10  C   UNL     1      26.312 -16.474  -1.756 -0.50 -0.00    +0.000 C 
DOCKED: BRANCH  10  11
DOCKED: ATOM     11  C   UNL     1      26.090 -15.051  -2.285 -0.43 -0.00    +0.000 C 
DOCKED: BRANCH  11  12
DOCKED: ATOM     12  C   UNL     1      26.085 -15.045  -3.784 -0.55 -0.00    +0.000 C 
DOCKED: ATOM     13  N   UNL     1      27.246 -15.453  -4.510 -0.42 -0.00    +0.000 N 
DOCKED: ATOM     14  O   UNL     1      27.252 -15.433  -5.863 -1.03 +0.00    +0.000 OA
DOCKED: ATOM     15  O   UNL     1      25.066 -14.638  -4.403 -1.00 -0.00    +0.000 OA
DOCKED: ATOM     16  H   UNL     1      28.048 -15.752  -4.023 -0.01 -0.00    +0.000 HD
DOCKED: ENDBRANCH  11  12
DOCKED: ENDBRANCH  10  11
DOCKED: ENDBRANCH   9  10
DOCKED: ENDBRANCH   1   9
DOCKED: TORSDOF 7
DOCKED: TER
DOCKED: ENDMDL
________________________________________________________________________________


	BEGINNING GENETIC ALGORITHM DOCKING 100 of 100
Run: 100 Seed: 2004906636 884951814 [ Run 100 of 100 GA/GALS ]
Beginning LAMARCKIAN GENETIC ALGORITHM (LGA), with a maximum of 2500000 energy evaluations.

Final-Value: -13.448


	FINAL GENETIC ALGORITHM DOCKED STATE
	_______________________________________________


Detailed state:  trans 25.373 -15.880 -2.785 quatxyzw 0.344459 0.440197 -0.358744 0.747581 center 0.010 0.634 0.018 ntor 7 -122.8032 -24.7219 89.1890 7.0977 -72.3707 -20.2773 -59.2469
State:	 25.373 -15.880  -2.785   0.519  0.663 -0.540 83.237   -122.80  -24.72   89.19    7.10  -72.37  -20.28  -59.25

DOCKED: MODEL      100
DOCKED: USER    Run = 100
DOCKED: USER    DPF = ligand_dock.biased.dpf
DOCKED: USER  
DOCKED: USER    Estimated Free Energy of Binding    =  -10.70 kcal/mol  [=(1)+(2)+(3)-(4)]
DOCKED: USER    Estimated Inhibition Constant, Ki   =   14.25 nM (nanomolar)  [Temperature = 298.15 K]
DOCKED: USER    
DOCKED: USER    (1) Final Intermolecular Energy     =  -12.79 kcal/mol
DOCKED: USER        vdW + Hbond + desolv Energy     =  -12.79 kcal/mol
DOCKED: USER        Electrostatic Energy            =   +0.00 kcal/mol
DOCKED: USER    (2) Final Total Internal Energy     =   -0.66 kcal/mol
DOCKED: USER    (3) Torsional Free Energy           =   +2.09 kcal/mol
DOCKED: USER    (4) Unbound System's Energy  [=(2)] =   -0.66 kcal/mol
DOCKED: USER    
DOCKED: USER    
DOCKED: USER    NEWDPF move ligand.pdbqt
DOCKED: USER    NEWDPF about 0.010000 0.634000 0.018000
DOCKED: USER    NEWDPF tran0 25.372679 -15.880247 -2.784661
DOCKED: USER    NEWDPF quaternion0 0.344459 0.440197 -0.358744 0.747581
DOCKED: USER    NEWDPF axisangle0 0.518629 0.662777 -0.540139 83.237478
DOCKED: USER    NEWDPF quat0 0.518629 0.662777 -0.540139 83.237478
DOCKED: USER    NEWDPF dihe0 -122.80 -24.72 89.19 7.10 -72.37 -20.28 -59.25 
DOCKED: USER  keepresnum = 1 
DOCKED: USER  
DOCKED: REMARK  Name = 
DOCKED: REMARK  7 active torsions:
DOCKED: REMARK  status: ('A' for Active; 'I' for Inactive)
DOCKED: REMARK    1  A    between atoms: C_3  and  C_4
DOCKED: REMARK    2  A    between atoms: C_4  and  C_5
DOCKED: REMARK    3  A    between atoms: C_5  and  C_6
DOCKED: REMARK    4  A    between atoms: C_6  and  C_7
DOCKED: REMARK    5  A    between atoms: C_7  and  C_8
DOCKED: REMARK    6  A    between atoms: C_8  and  C_9
DOCKED: REMARK    7  A    between atoms: C_9  and  C_10
DOCKED: REMARK                            x       y       z     vdW  Elec       q    Type
DOCKED: REMARK                         _______ _______ _______ _____ _____    ______ ____
DOCKED: USER                              x       y       z     vdW  Elec       q    Type
DOCKED: USER                           _______ _______ _______ _____ _____    ______ ____
DOCKED: ROOT
DOCKED: ATOM      1  C   UNL     1      25.635 -16.449  -0.667 -0.49 -0.00    +0.000 C 
DOCKED: ENDROOT
DOCKED: BRANCH   1   2
DOCKED: ATOM      2  C   UNL     1      26.774 -15.808  -1.474 -0.40 -0.00    +0.000 C 
DOCKED: BRANCH   2   3
DOCKED: ATOM      3  C   UNL     1      26.313 -14.506  -2.136 -0.35 -0.00    +0.000 C 
DOCKED: BRANCH   3   6
DOCKED: ATOM      4  O   UNL     1      25.876 -15.986  -5.588 -1.12 +0.00    +0.000 OA
DOCKED: ATOM      5  N   UNL     1      26.368 -15.748  -4.350 -0.46 -0.00    +0.000 N 
DOCKED: ATOM      6  C   UNL     1      25.752 -14.781  -3.499 -0.54 -0.00    +0.000 C 
DOCKED: ATOM      7  O   UNL     1      24.755 -14.126  -3.908 -1.07 -0.00    +0.000 OA
DOCKED: ATOM      8  H   UNL     1      27.157 -16.245  -4.034 -0.02 -0.00    +0.000 HD
DOCKED: ENDBRANCH   3   6
DOCKED: ENDBRANCH   2   3
DOCKED: ENDBRANCH   1   2
DOCKED: BRANCH   1   9
DOCKED: ATOM      9  C   UNL     1      25.187 -17.807  -1.235 -0.66 -0.00    +0.000 C 
DOCKED: BRANCH   9  10
DOCKED: ATOM     10  C   UNL     1      23.706 -17.882  -1.652 -0.65 -0.00    +0.000 C 
DOCKED: BRANCH  10  11
DOCKED: ATOM     11  C   UNL     1      22.764 -18.143  -0.470 -0.82 -0.00    +0.000 C 
DOCKED: BRANCH  11  12
DOCKED: ATOM     12  C   UNL     1      21.410 -18.555  -0.962 -0.80 -0.00    +0.000 C 
DOCKED: ATOM     13  N   UNL     1      21.259 -19.735  -1.754 -0.55 -0.00    +0.000 N 
DOCKED: ATOM     14  O   UNL     1      20.040 -20.102  -2.215 -2.20 -0.00    +0.000 OA
DOCKED: ATOM     15  O   UNL     1      20.407 -17.834  -0.710 -2.21 +0.00    +0.000 OA
DOCKED: ATOM     16  H   UNL     1      22.047 -20.286  -1.965 -0.45 -0.00    +0.000 HD
DOCKED: ENDBRANCH  11  12
DOCKED: ENDBRANCH  10  11
DOCKED: ENDBRANCH   9  10
DOCKED: ENDBRANCH   1   9
DOCKED: TORSDOF 7
DOCKED: TER
DOCKED: ENDMDL
________________________________________________________________________________

DPF>                           # do this many hybrid GA-LS runs

DPF> analysis                             # perform a ranked cluster analysis


		CLUSTER ANALYSIS OF CONFORMATIONS
		_________________________________

Number of conformations = 100

RMSD cluster analysis will be performed using the ligand atoms only (16 / 16 total atoms).

Outputting structurally similar clusters, ranked in order of increasing energy.


________________________________________________________________________________

Number of distinct conformational clusters found = 3,  out of 100 runs,
Using an rmsd-tolerance of 2.0 A


	CLUSTERING HISTOGRAM
	____________________

________________________________________________________________________________
     |           |     |           |     |                                    
Clus | Lowest    | Run | Mean      | Num | Histogram                          
-ter | Binding   |     | Binding   | in  |                                    
Rank | Energy    |     | Energy    | Clus|    5    10   15   20   25   30   35
_____|___________|_____|___________|_____|____:____|____:____|____:____|____:___
   1 |    -11.14 |  75 |     -9.97 |  87 |#######################################################################################
   2 |    -10.93 |  79 |    -10.04 |  12 |############
   3 |     -9.28 |  36 |     -9.28 |   1 |#
_____|___________|_____|___________|_____|______________________________________


Number of multi-member conformational clusters found = 2, out of 100 runs.

	RMSD TABLE
	__________

_____________________________________________________________________
     |      |      |           |         |                 |
Rank | Sub- | Run  | Binding   | Cluster | Reference       | Grep
     | Rank |      | Energy    | RMSD    | RMSD            | Pattern
_____|______|______|___________|_________|_________________|___________
   1      1     75      -11.14      0.00     27.14           RANKING
   1      2     55      -10.80      0.53     27.22           RANKING
   1      3    100      -10.70      0.59     27.27           RANKING
   1      4     59      -10.67      0.44     27.04           RANKING
   1      5     47      -10.64      0.61     27.20           RANKING
   1      6      7      -10.60      0.57     27.32           RANKING
   1      7     69      -10.58      0.62     27.23           RANKING
   1      8     35      -10.58      0.56     27.20           RANKING
   1      9     93      -10.54      1.26     27.07           RANKING
   1     10     71      -10.52      0.95     27.53           RANKING
   1     11     50      -10.52      0.49     27.21           RANKING
   1     12     63      -10.50      0.82     27.34           RANKING
   1     13     44      -10.49      0.59     27.22           RANKING
   1     14     70      -10.49      0.56     27.15           RANKING
   1     15     92      -10.47      1.20     27.07           RANKING
   1     16     72      -10.46      0.60     27.15           RANKING
   1     17     56      -10.44      1.19     27.38           RANKING
   1     18      9      -10.42      0.85     27.46           RANKING
   1     19      5      -10.39      1.12     27.60           RANKING
   1     20     80      -10.36      1.05     27.54           RANKING
   1     21     33      -10.32      1.09     27.48           RANKING
   1     22     65      -10.30      0.54     27.24           RANKING
   1     23     88      -10.30      0.94     27.30           RANKING
   1     24     99      -10.29      0.90     27.53           RANKING
   1     25     15      -10.25      0.80     27.47           RANKING
   1     26     60      -10.24      0.74     27.17           RANKING
   1     27     48      -10.24      1.47     27.87           RANKING
   1     28     86      -10.22      1.23     27.31           RANKING
   1     29     29      -10.22      0.67     27.24           RANKING
   1     30     66      -10.20      1.23     27.17           RANKING
   1     31     68      -10.19      1.12     27.13           RANKING
   1     32     38      -10.18      1.20     26.89           RANKING
   1     33     74      -10.16      1.24     27.31           RANKING
   1     34      2      -10.15      0.83     27.26           RANKING
   1     35     89      -10.13      1.08     27.37           RANKING
   1     36     24      -10.11      1.34     27.47           RANKING
   1     37     83      -10.11      0.91     27.51           RANKING
   1     38     78      -10.11      0.93     27.21           RANKING
   1     39     76      -10.09      0.66     27.31           RANKING
   1     40     64      -10.06      1.07     27.15           RANKING
   1     41     67      -10.05      1.55     26.68           RANKING
   1     42     41      -10.04      1.37     26.92           RANKING
   1     43     57      -10.04      0.84     27.33           RANKING
   1     44     12      -10.03      0.67     27.17           RANKING
   1     45     42      -10.03      0.90     27.45           RANKING
   1     46     37       -9.98      0.64     27.39           RANKING
   1     47     98       -9.98      1.13     27.34           RANKING
   1     48     77       -9.97      1.23     27.50           RANKING
   1     49      4       -9.97      1.16     27.18           RANKING
   1     50     58       -9.95      0.69     27.08           RANKING
   1     51     32       -9.94      1.29     27.08           RANKING
   1     52     20       -9.93      0.98     27.47           RANKING
   1     53     81       -9.91      1.35     27.08           RANKING
   1     54     87       -9.84      1.32     27.40           RANKING
   1     55     21       -9.84      1.40     27.40           RANKING
   1     56     45       -9.83      1.52     26.91           RANKING
   1     57     54       -9.82      1.21     27.51           RANKING
   1     58     28       -9.80      1.27     27.35           RANKING
   1     59     95       -9.78      1.33     26.82           RANKING
   1     60     43       -9.74      1.44     27.81           RANKING
   1     61     53       -9.73      1.53     27.19           RANKING
   1     62      6       -9.73      1.56     27.13           RANKING
   1     63     61       -9.73      1.04     27.40           RANKING
   1     64      1       -9.72      1.34     27.31           RANKING
   1     65     27       -9.69      1.41     27.05           RANKING
   1     66     46       -9.67      1.56     26.65           RANKING
   1     67     94       -9.64      1.13     27.22           RANKING
   1     68     62       -9.63      1.28     27.25           RANKING
   1     69      8       -9.62      1.40     27.19           RANKING
   1     70     14       -9.62      1.50     27.24           RANKING
   1     71     52       -9.61      1.13     27.37           RANKING
   1     72     84       -9.59      1.41     27.65           RANKING
   1     73     16       -9.47      1.24     27.19           RANKING
   1     74     49       -9.41      1.29     26.98           RANKING
   1     75     34       -9.39      1.32     27.09           RANKING
   1     76     10       -9.34      1.64     26.68           RANKING
   1     77     11       -9.28      1.79     26.78           RANKING
   1     78     39       -9.26      1.60     27.22           RANKING
   1     79     82       -9.26      1.30     27.53           RANKING
   1     80     25       -9.25      1.00     27.32           RANKING
   1     81     19       -9.16      1.33     27.38           RANKING
   1     82     17       -9.13      1.39     27.32           RANKING
   1     83     51       -9.07      1.64     26.91           RANKING
   1     84     31       -9.01      1.53     27.17           RANKING
   1     85     40       -9.01      1.31     27.29           RANKING
   1     86     96       -8.99      1.30     27.10           RANKING
   1     87     22       -8.75      0.86     27.25           RANKING
   2      1     79      -10.93      0.00     27.76           RANKING
   2      2     97      -10.70      0.70     27.77           RANKING
   2      3     23      -10.54      0.73     27.71           RANKING
   2      4     30      -10.41      0.49     27.83           RANKING
   2      5      3      -10.40      0.71     27.79           RANKING
   2      6     26      -10.18      0.74     27.90           RANKING
   2      7     91      -10.07      0.72     27.70           RANKING
   2      8     85       -9.98      0.88     27.77           RANKING
   2      9     13       -9.76      1.08     27.99           RANKING
   2     10     18       -9.59      1.27     28.05           RANKING
   2     11     73       -9.02      1.36     27.02           RANKING
   2     12     90       -8.89      1.87     27.07           RANKING
   3      1     36       -9.28      0.00     28.42           RANKING
_______________________________________________________________________



	INFORMATION ENTROPY ANALYSIS FOR THIS CLUSTERING
	________________________________________________


Information entropy for this clustering = 0.09  (rmstol = 2.00 Angstrom)

_______________________________________________________________________


	STATISTICAL MECHANICAL ANALYSIS
	_______________________________


Partition function, Q =   101.70            at Temperature, T = 298.15 K
Free energy,        A ~ -2738.45 kcal/mol   at Temperature, T = 298.15 K
Internal energy,    U =    -9.97 kcal/mol   at Temperature, T = 298.15 K
Entropy,            S =     9.15 kcal/mol/K at Temperature, T = 298.15 K

_______________________________________________________________________


	LOWEST ENERGY DOCKED CONFORMATION from EACH CLUSTER
	___________________________________________________



Keeping original residue number (specified in the input PDBQ file) for outputting.

MODEL       75
USER    Run = 75
USER    Cluster Rank = 1
USER    Number of conformations in this cluster = 87
USER  
USER    RMSD from reference structure       = 27.143 A
USER  
USER    Estimated Free Energy of Binding    =  -11.14 kcal/mol  [=(1)+(2)+(3)-(4)]
USER    Estimated Inhibition Constant, Ki   =    6.85 nM (nanomolar)  [Temperature = 298.15 K]
USER    
USER    (1) Final Intermolecular Energy     =  -13.23 kcal/mol
USER        vdW + Hbond + desolv Energy     =  -13.23 kcal/mol
USER        Electrostatic Energy            =   +0.00 kcal/mol
USER    (2) Final Total Internal Energy     =   -0.57 kcal/mol
USER    (3) Torsional Free Energy           =   +2.09 kcal/mol
USER    (4) Unbound System's Energy  [=(2)] =   -0.57 kcal/mol
USER    
USER    
USER  
USER    DPF = ligand_dock.biased.dpf
USER    NEWDPF move	ligand.pdbqt
USER    NEWDPF about	0.010000 0.634000 0.018000
USER    NEWDPF tran0	27.348083 -17.072211 -1.293351
USER    NEWDPF axisangle0	-0.704999 -0.646535 0.291495 156.988906
USER    NEWDPF quaternion0	-0.690832 -0.633543 0.285638 0.199463
USER    NEWDPF dihe0	-135.04 -30.64 144.57 -51.33 13.03 -42.14 -135.74 
USER  
USER                              x       y       z    vdW   Elec        q     RMS 
ATOM      1  C   UNL     1      25.216 -16.737  -1.762 -0.62 -0.00    +0.000    27.143
ATOM      2  C   UNL     1      26.130 -15.588  -1.307 -0.44 -0.00    +0.000    27.143
ATOM      3  C   UNL     1      25.865 -14.321  -2.124 -0.27 -0.00    +0.000    27.143
ATOM      4  O   UNL     1      26.044 -15.854  -5.577 -1.13 +0.00    +0.000    27.143
ATOM      5  N   UNL     1      26.351 -15.548  -4.294 -0.53 -0.00    +0.000    27.143
ATOM      6  C   UNL     1      25.511 -14.673  -3.538 -0.55 -0.00    +0.000    27.143
ATOM      7  O   UNL     1      24.489 -14.164  -4.072 -1.09 -0.00    +0.000    27.143
ATOM      8  H   UNL     1      27.158 -15.930  -3.880 -0.02 -0.00    +0.000    27.143
ATOM      9  C   UNL     1      25.066 -17.842  -0.701 -0.71 -0.00    +0.000    27.143
ATOM     10  C   UNL     1      23.871 -18.790  -0.912 -0.77 -0.00    +0.000    27.143
ATOM     11  C   UNL     1      22.699 -18.494   0.032 -0.76 -0.00    +0.000    27.143
ATOM     12  C   UNL     1      21.401 -18.538  -0.716 -0.86 -0.00    +0.000    27.143
ATOM     13  N   UNL     1      21.045 -19.697  -1.473 -0.74 -0.00    +0.000    27.143
ATOM     14  O   UNL     1      19.882 -19.734  -2.165 -2.33 -0.00    +0.000    27.143
ATOM     15  O   UNL     1      20.641 -17.533  -0.709 -2.12 +0.00    +0.000    27.143
ATOM     16  H   UNL     1      21.650 -20.473  -1.493 -0.30 -0.00    +0.000    27.143
TER
ENDMDL
MODEL       79
USER    Run = 79
USER    Cluster Rank = 2
USER    Number of conformations in this cluster = 12
USER  
USER    RMSD from reference structure       = 27.760 A
USER  
USER    Estimated Free Energy of Binding    =  -10.93 kcal/mol  [=(1)+(2)+(3)-(4)]
USER    Estimated Inhibition Constant, Ki   =    9.79 nM (nanomolar)  [Temperature = 298.15 K]
USER    
USER    (1) Final Intermolecular Energy     =  -13.01 kcal/mol
USER        vdW + Hbond + desolv Energy     =  -13.01 kcal/mol
USER        Electrostatic Energy            =   +0.00 kcal/mol
USER    (2) Final Total Internal Energy     =   -0.46 kcal/mol
USER    (3) Torsional Free Energy           =   +2.09 kcal/mol
USER    (4) Unbound System's Energy  [=(2)] =   -0.46 kcal/mol
USER    
USER    
USER  
USER    DPF = ligand_dock.biased.dpf
USER    NEWDPF move	ligand.pdbqt
USER    NEWDPF about	0.010000 0.634000 0.018000
USER    NEWDPF tran0	25.142260 -15.102812 -0.471725
USER    NEWDPF axisangle0	-0.549426 0.692061 -0.468169 37.372422
USER    NEWDPF quaternion0	-0.176028 0.221726 -0.149994 0.947287
USER    NEWDPF dihe0	63.66 44.18 96.36 50.99 -13.15 -50.18 -48.15 
USER  
USER                              x       y       z    vdW   Elec        q     RMS 
ATOM      1  C   UNL     1      26.159 -17.063  -0.432 -0.56 -0.00    +0.000    27.760
ATOM      2  C   UNL     1      26.862 -15.803  -0.962 -0.40 -0.00    +0.000    27.760
ATOM      3  C   UNL     1      28.005 -15.382  -0.034 -0.28 -0.00    +0.000    27.760
ATOM      4  O   UNL     1      27.619 -13.946   3.443 -0.48 -0.00    +0.000    27.760
ATOM      5  N   UNL     1      28.103 -14.657   2.398 -0.25 -0.00    +0.000    27.760
ATOM      6  C   UNL     1      27.477 -14.577   1.116 -0.27 -0.00    +0.000    27.760
ATOM      7  O   UNL     1      26.454 -13.858   0.958 -0.33 -0.00    +0.000    27.760
ATOM      8  H   UNL     1      28.891 -15.234   2.522 -1.95 -0.00    +0.000    27.760
ATOM      9  C   UNL     1      24.914 -17.446  -1.252 -0.69 -0.00    +0.000    27.760
ATOM     10  C   UNL     1      23.570 -17.229  -0.534 -0.66 -0.00    +0.000    27.760
ATOM     11  C   UNL     1      22.854 -18.543  -0.194 -0.80 -0.00    +0.000    27.760
ATOM     12  C   UNL     1      21.499 -18.581  -0.833 -0.84 -0.00    +0.000    27.760
ATOM     13  N   UNL     1      21.099 -19.715  -1.605 -0.68 -0.00    +0.000    27.760
ATOM     14  O   UNL     1      19.882 -19.746  -2.199 -2.32 -0.00    +0.000    27.760
ATOM     15  O   UNL     1      20.728 -17.590  -0.722 -2.14 +0.00    +0.000    27.760
ATOM     16  H   UNL     1      21.711 -20.479  -1.706 -0.38 -0.00    +0.000    27.760
TER
ENDMDL
MODEL       36
USER    Run = 36
USER    Cluster Rank = 3
USER    Number of conformations in this cluster = 1
USER  
USER    RMSD from reference structure       = 28.422 A
USER  
USER    Estimated Free Energy of Binding    =   -9.28 kcal/mol  [=(1)+(2)+(3)-(4)]
USER    Estimated Inhibition Constant, Ki   =  158.43 nM (nanomolar)  [Temperature = 298.15 K]
USER    
USER    (1) Final Intermolecular Energy     =  -11.37 kcal/mol
USER        vdW + Hbond + desolv Energy     =  -11.37 kcal/mol
USER        Electrostatic Energy            =   +0.00 kcal/mol
USER    (2) Final Total Internal Energy     =   -0.42 kcal/mol
USER    (3) Torsional Free Energy           =   +2.09 kcal/mol
USER    (4) Unbound System's Energy  [=(2)] =   -0.42 kcal/mol
USER    
USER    
USER  
USER    DPF = ligand_dock.biased.dpf
USER    NEWDPF move	ligand.pdbqt
USER    NEWDPF about	0.010000 0.634000 0.018000
USER    NEWDPF tran0	26.934254 -17.266843 -2.655259
USER    NEWDPF axisangle0	0.801383 0.508258 -0.315371 158.600183
USER    NEWDPF quaternion0	0.787449 0.499421 -0.309887 0.185665
USER    NEWDPF dihe0	21.79 61.60 -17.48 38.70 161.59 -135.53 -160.09 
USER  
USER                              x       y       z    vdW   Elec        q     RMS 
ATOM      1  C   UNL     1      25.370 -15.925  -1.862 -0.54 -0.00    +0.000    28.422
ATOM      2  C   UNL     1      26.861 -15.669  -1.593 -0.38 -0.00    +0.000    28.422
ATOM      3  C   UNL     1      27.416 -16.672  -0.578 -0.43 -0.00    +0.000    28.422
ATOM      4  O   UNL     1      31.023 -16.056   0.377 -0.16 -0.00    +0.000    28.422
ATOM      5  N   UNL     1      29.670 -16.062   0.420 -0.07 -0.00    +0.000    28.422
ATOM      6  C   UNL     1      28.915 -16.686  -0.619 -0.27 -0.00    +0.000    28.422
ATOM      7  O   UNL     1      29.507 -17.217  -1.596 -0.28 -0.00    +0.000    28.422
ATOM      8  H   UNL     1      29.203 -15.632   1.173 -0.92 -0.00    +0.000    28.422
ATOM      9  C   UNL     1      24.875 -17.258  -1.274 -0.67 -0.00    +0.000    28.422
ATOM     10  C   UNL     1      23.491 -17.200  -0.601 -0.68 -0.00    +0.000    28.422
ATOM     11  C   UNL     1      22.862 -18.585  -0.405 -0.83 -0.00    +0.000    28.422
ATOM     12  C   UNL     1      21.428 -18.574  -0.841 -0.84 -0.00    +0.000    28.422
ATOM     13  N   UNL     1      20.841 -19.741  -1.421 -0.78 -0.00    +0.000    28.422
ATOM     14  O   UNL     1      19.551 -19.730  -1.831 -2.17 -0.00    +0.000    28.422
ATOM     15  O   UNL     1      20.749 -17.517  -0.731 -2.10 +0.00    +0.000    28.422
ATOM     16  H   UNL     1      21.379 -20.559  -1.523 -0.26 -0.00    +0.000    28.422
TER
ENDMDL


AVSFLD: # AVS field file
AVSFLD: #
AVSFLD: # Created by AutoDock
AVSFLD: #
AVSFLD: ndim=2           # number of dimensions in the field
AVSFLD: nspace=1         # number of physical coordinates
AVSFLD: veclen=7         # vector size
AVSFLD: dim1=16          # atoms
AVSFLD: dim2=3           # conformations
AVSFLD: data=Real       # data type (byte,integer,Real,double)
AVSFLD: field=uniform    # field coordinate layout
AVSFLD: label= x y z vdW Elec q RMS
AVSFLD: variable 1 file = ligand_dock.biased.dlg.pdb filetype = ascii offset = 5 stride = 12
AVSFLD: variable 2 file = ligand_dock.biased.dlg.pdb filetype = ascii offset = 6 stride = 12
AVSFLD: variable 3 file = ligand_dock.biased.dlg.pdb filetype = ascii offset = 7 stride = 12
AVSFLD: variable 4 file = ligand_dock.biased.dlg.pdb filetype = ascii offset = 8 stride = 12
AVSFLD: variable 5 file = ligand_dock.biased.dlg.pdb filetype = ascii offset = 9 stride = 12
AVSFLD: variable 6 file = ligand_dock.biased.dlg.pdb filetype = ascii offset = 10 stride = 12
AVSFLD: variable 7 file = ligand_dock.biased.dlg.pdb filetype = ascii offset = 11 stride = 12
AVSFLD: # end of file

>>> Closing the docking parameter file (DPF)...
This docking finished at:			11:13 54" a.m., 11/08/2024


________________________________________________________________________________

autodock4: Successful Completion on "ThinkStation-P620"

Real= 8m 35.61s,  CPU= 8m 35.16s,  System= 0.28s
________________________________________________________________________________

