REMARK  Name = 
REMARK  10 active torsions:
REMARK  status: ('A' for Active; 'I' for Inactive)
REMARK    1  A    between atoms: C_2  and  C_5
REMARK    2  A    between atoms: C_6  and  C_7
REMARK    3  A    between atoms: C_10  and  C_11
REMARK    4  A    between atoms: C_11  and  N_12
REMARK    5  A    between atoms: N_12  and  C_13
REMARK    6  A    between atoms: N_12  and  C_16
REMARK    7  A    between atoms: C_13  and  C_14
REMARK    8  A    between atoms: C_14  and  O_15
REMARK    9  A    between atoms: C_16  and  C_17
REMARK   10  A    between atoms: C_17  and  C_18
REMARK                            x       y       z     vdW  Elec       q    Type
REMARK                         _______ _______ _______ _____ _____    ______ ____
ROOT
ATOM      1  N   UNL     1      -1.012  -0.298  -0.055  0.00  0.00    +0.000 N 
ATOM      2  H   UNL     1      -1.931   0.050  -0.328  0.00  0.00    +0.000 HD
ENDROOT
BRANCH   1   3
ATOM      3  C   UNL     1      -0.080   0.429  -0.956  0.00  0.00    +0.000 C 
BRANCH   3   7
ATOM      4  C   UNL     1       4.146  -0.184  -0.164  0.00  0.00    +0.000 A 
ATOM      5  C   UNL     1       3.466  -0.995  -1.085  0.00  0.00    +0.000 A 
ATOM      6  C   UNL     1       2.107  -0.796  -1.342  0.00  0.00    +0.000 A 
ATOM      7  C   UNL     1       1.390   0.201  -0.662  0.00  0.00    +0.000 A 
ATOM      8  C   UNL     1       2.071   1.023   0.251  0.00  0.00    +0.000 A 
ATOM      9  C   UNL     1       3.431   0.826   0.509  0.00  0.00    +0.000 A 
BRANCH   4  11
ATOM     10  C   UNL     1       6.429   0.462   0.601  0.00  0.00    +0.000 C 
ATOM     11  C   UNL     1       5.587  -0.443   0.082  0.00  0.00    +0.000 C 
BRANCH  10  13
ATOM     12  O   UNL     1       8.333  -0.967   0.545  0.00  0.00    +0.000 OA
ATOM     13  C   UNL     1       7.859   0.169   0.821  0.00  0.00    +0.000 C 
ATOM     14  N   UNL     1       8.716   1.181   1.354  0.00  0.00    +0.000 N 
ATOM     15  O   UNL     1      10.030   0.928   1.562  0.00  0.00    +0.000 OA
ATOM     16  H   UNL     1       8.349   2.069   1.571  0.00  0.00    +0.000 HD
ENDBRANCH  10  13
ENDBRANCH   4  11
ENDBRANCH   3   7
ENDBRANCH   1   3
BRANCH   1  17
ATOM     17  C   UNL     1      -0.899   0.055   1.379  0.00  0.00    +0.000 C 
BRANCH  17  18
ATOM     18  C   UNL     1      -1.425   1.466   1.656  0.00  0.00    +0.000 C 
BRANCH  18  19
ATOM     19  O   UNL     1      -2.738   1.586   1.183  0.00  0.00    +0.000 OA
ATOM     20  H   UNL     1      -2.753   1.424   0.227  0.00  0.00    +0.000 HD
ENDBRANCH  18  19
ENDBRANCH  17  18
ENDBRANCH   1  17
BRANCH   1  21
ATOM     21  C   UNL     1      -1.040  -1.761  -0.289  0.00  0.00    +0.000 C 
BRANCH  21  22
ATOM     22  C   UNL     1      -2.069  -2.112  -1.369  0.00  0.00    +0.000 C 
BRANCH  22  23
ATOM     23  C   UNL     1      -3.450  -1.700  -0.948  0.00  0.00    +0.000 A 
ATOM     24  C   UNL     1      -4.299  -2.409  -0.105  0.00  0.00    +0.000 A 
ATOM     25  N   UNL     1      -5.408  -1.685   0.168  0.00  0.00    +0.000 N 
ATOM     26  C   UNL     1      -5.259  -0.518  -0.483  0.00  0.00    +0.000 A 
ATOM     27  C   UNL     1      -4.074  -0.487  -1.173  0.00  0.00    +0.000 A 
ATOM     28  C   UNL     1      -3.678   0.636  -1.901  0.00  0.00    +0.000 A 
ATOM     29  C   UNL     1      -4.538   1.749  -1.910  0.00  0.00    +0.000 A 
ATOM     30  C   UNL     1      -5.758   1.717  -1.200  0.00  0.00    +0.000 A 
ATOM     31  C   UNL     1      -6.129   0.572  -0.472  0.00  0.00    +0.000 A 
ATOM     32  H   UNL     1      -6.170  -1.956   0.729  0.00  0.00    +0.000 HD
ENDBRANCH  22  23
ENDBRANCH  21  22
ENDBRANCH   1  21
TORSDOF 10
