          AutoDock 4.2 Release 4.2.6   
         (C) 1989-2012 The Scripps Research Institute
        AutoDock comes with ABSOLUTELY NO WARRANTY.
        AutoDock is free software, and you are welcome
        to redistribute it under certain conditions;
        for details type 'autodock4 -C'

                     main.cc  $Revision: 1.213 $

                   Compiled on Feb 20 2022 at 09:48:33


This file was created at:			6:07 09" p.m., 11/08/2024
                   on host:		"ThinkStation-P620"
Current Working Directory = "/home/antonio/Documenti/buccheri/IDROSSAMICO HDAC/HDAC 8/DP (copia)/Ligand_7"

      ________________________________________________________________

                   SETTING UP DEFAULT PARAMETER LIBRARY
      ________________________________________________________________


Random number generator was seeded with values 355275, 1731085629.
Docking parameter file (DPF) used for this docking:		ligand_dock.biased.dpf
DPF> parameter_file ad4_arom_params.dat

Using read_parameter_library() to try to open and read "ad4_arom_params.dat".

DPF> autodock_parameter_version 4.2       # used by autodock to validate parameter set

	Autodock parameter version 4.2.
DPF> outlev 1                             # diagnostic output level

Output Level = 1  ADT-COMPATIBLE OUTPUT DURING DOCKING.
DPF> intelec                              # calculate internal electrostatics

Electrostatic energies will be calculated for all non-bonds between moving atoms.
DPF> seed pid time                        # seeds for random generator

Random number generator was seeded with values 355275, 1731085629.
DPF> ligand_types A C OA HD N AC

WARNING: pairwise distance, Rij, 0.00, is not a very reasonable value for the equilibrium separation of two atoms! (0.90 Angstroms <= Rij <= 6.00 Angstroms)

Perhaps you meant to use "intnbp_coeffs" instead of "intnbp_r_eps"?

DPF> fld receptor.maps.fld                # grid_data_file

Opening Grid Map Dimensions file:		receptor.maps.fld
Grid Point Spacing =				0.375 Angstroms

Even Number of User-specified Grid Points =	70 x-points
						70 y-points
						70 z-points

Coordinates of Central Grid Point of Maps =	(36.691, 12.592, 124.207)
Macromolecule file used to create Grid Maps =	receptor.pdbqt
Grid Parameter file used to create Grid Maps =	receptor.gpf
Minimum coordinates in grid = (23.566, -0.533, 111.082)
Maximum coordinates in grid = (49.816, 25.717, 137.332)

DPF> map receptor.A.map                   # atom-specific affinity map

DPF> map receptor.C.map                   # atom-specific affinity map

DPF> map receptor.OA.biased.map

DPF> map receptor.HD.map                  # atom-specific affinity map

DPF> map receptor.N.map                   # atom-specific affinity map

DPF> map receptor.AC.biased.map

DPF> elecmap receptor.e.map               # electrostatics map

DPF> desolvmap receptor.d.map             # desolvation map

DPF> move ligand.dum.pdbqt

1,4-interactions will be _ignored_ in the non-bonded internal energy calculation.

Ligand PDBQT file = "ligand.dum.pdbqt"

INPUT LIGAND PDBQT FILE:
________________________

INPUT-LIGAND-PDBQT: REMARK  Name = 
INPUT-LIGAND-PDBQT: REMARK  10 active torsions:
INPUT-LIGAND-PDBQT: REMARK  status: ('A' for Active; 'I' for Inactive)
INPUT-LIGAND-PDBQT: REMARK    1  A    between atoms: C_2  and  C_5
INPUT-LIGAND-PDBQT: REMARK    2  A    between atoms: C_6  and  C_7
INPUT-LIGAND-PDBQT: REMARK    3  A    between atoms: C_10  and  C_11
INPUT-LIGAND-PDBQT: REMARK    4  A    between atoms: C_11  and  N_12
INPUT-LIGAND-PDBQT: REMARK    5  A    between atoms: N_12  and  C_13
INPUT-LIGAND-PDBQT: REMARK    6  A    between atoms: N_12  and  C_16
INPUT-LIGAND-PDBQT: REMARK    7  A    between atoms: C_13  and  C_14
INPUT-LIGAND-PDBQT: REMARK    8  A    between atoms: C_14  and  O_15
INPUT-LIGAND-PDBQT: REMARK    9  A    between atoms: C_16  and  C_17
INPUT-LIGAND-PDBQT: REMARK   10  A    between atoms: C_17  and  C_18
INPUT-LIGAND-PDBQT: REMARK                            x       y       z     vdW  Elec       q    Type
INPUT-LIGAND-PDBQT: REMARK                         _______ _______ _______ _____ _____    ______ ____
INPUT-LIGAND-PDBQT: ROOT
INPUT-LIGAND-PDBQT: ATOM      1  N   UNL     1      -1.012  -0.298  -0.055  0.00  0.00     0.000 N 
INPUT-LIGAND-PDBQT: ATOM      2  H   UNL     1      -1.931   0.050  -0.328  0.00  0.00     0.000 HD
INPUT-LIGAND-PDBQT: ENDROOT
INPUT-LIGAND-PDBQT: BRANCH   1   3
INPUT-LIGAND-PDBQT: ATOM      3  C   UNL     1      -0.080   0.429  -0.956  0.00  0.00     0.000 C 
INPUT-LIGAND-PDBQT: BRANCH   3   7
INPUT-LIGAND-PDBQT: ATOM      4  C   UNL     1       4.146  -0.184  -0.164  0.00  0.00     0.000 A 
INPUT-LIGAND-PDBQT: ATOM      5  C   UNL     1       3.466  -0.995  -1.085  0.00  0.00     0.000 A 
INPUT-LIGAND-PDBQT: ATOM      6  C   UNL     1       2.107  -0.796  -1.342  0.00  0.00     0.000 A 
INPUT-LIGAND-PDBQT: ATOM      7  C   UNL     1       1.390   0.201  -0.662  0.00  0.00     0.000 A 
INPUT-LIGAND-PDBQT: ATOM      8  C   UNL     1       2.071   1.023   0.251  0.00  0.00     0.000 A 
INPUT-LIGAND-PDBQT: ATOM      9  C   UNL     1       3.431   0.826   0.509  0.00  0.00     0.000 A 
INPUT-LIGAND-PDBQT: ATOM     33  CM  UNL     1       2.769   0.012  -0.416  1.00  0.00     0.000 AC
INPUT-LIGAND-PDBQT: BRANCH   4  11
INPUT-LIGAND-PDBQT: ATOM     10  C   UNL     1       6.429   0.462   0.601  0.00  0.00     0.000 C 
INPUT-LIGAND-PDBQT: ATOM     11  C   UNL     1       5.587  -0.443   0.082  0.00  0.00     0.000 C 
INPUT-LIGAND-PDBQT: BRANCH  10  13
INPUT-LIGAND-PDBQT: ATOM     12  O   UNL     1       8.333  -0.967   0.545  0.00  0.00     0.000 OA
INPUT-LIGAND-PDBQT: ATOM     13  C   UNL     1       7.859   0.169   0.821  0.00  0.00     0.000 C 
INPUT-LIGAND-PDBQT: ATOM     14  N   UNL     1       8.716   1.181   1.354  0.00  0.00     0.000 N 
INPUT-LIGAND-PDBQT: ATOM     15  O   UNL     1      10.030   0.928   1.562  0.00  0.00     0.000 OA
INPUT-LIGAND-PDBQT: ATOM     16  H   UNL     1       8.349   2.069   1.571  0.00  0.00     0.000 HD
INPUT-LIGAND-PDBQT: ENDBRANCH  10  13
INPUT-LIGAND-PDBQT: ENDBRANCH   4  11
INPUT-LIGAND-PDBQT: ENDBRANCH   3   7
INPUT-LIGAND-PDBQT: ENDBRANCH   1   3
INPUT-LIGAND-PDBQT: BRANCH   1  17
INPUT-LIGAND-PDBQT: ATOM     17  C   UNL     1      -0.899   0.055   1.379  0.00  0.00     0.000 C 
INPUT-LIGAND-PDBQT: BRANCH  17  18
INPUT-LIGAND-PDBQT: ATOM     18  C   UNL     1      -1.425   1.466   1.656  0.00  0.00     0.000 C 
INPUT-LIGAND-PDBQT: BRANCH  18  19
INPUT-LIGAND-PDBQT: ATOM     19  O   UNL     1      -2.738   1.586   1.183  0.00  0.00     0.000 OA
INPUT-LIGAND-PDBQT: ATOM     20  H   UNL     1      -2.753   1.424   0.227  0.00  0.00     0.000 HD
INPUT-LIGAND-PDBQT: ENDBRANCH  18  19
INPUT-LIGAND-PDBQT: ENDBRANCH  17  18
INPUT-LIGAND-PDBQT: ENDBRANCH   1  17
INPUT-LIGAND-PDBQT: BRANCH   1  21
INPUT-LIGAND-PDBQT: ATOM     21  C   UNL     1      -1.040  -1.761  -0.289  0.00  0.00     0.000 C 
INPUT-LIGAND-PDBQT: BRANCH  21  22
INPUT-LIGAND-PDBQT: ATOM     22  C   UNL     1      -2.069  -2.112  -1.369  0.00  0.00     0.000 C 
INPUT-LIGAND-PDBQT: BRANCH  22  23
INPUT-LIGAND-PDBQT: ATOM     23  C   UNL     1      -3.450  -1.700  -0.948  0.00  0.00     0.000 A 
INPUT-LIGAND-PDBQT: ATOM     24  C   UNL     1      -4.299  -2.409  -0.105  0.00  0.00     0.000 A 
INPUT-LIGAND-PDBQT: ATOM     25  N   UNL     1      -5.408  -1.685   0.168  0.00  0.00     0.000 N 
INPUT-LIGAND-PDBQT: ATOM     26  C   UNL     1      -5.259  -0.518  -0.483  0.00  0.00     0.000 A 
INPUT-LIGAND-PDBQT: ATOM     27  C   UNL     1      -4.074  -0.487  -1.173  0.00  0.00     0.000 A 
INPUT-LIGAND-PDBQT: ATOM     28  C   UNL     1      -3.678   0.636  -1.901  0.00  0.00     0.000 A 
INPUT-LIGAND-PDBQT: ATOM     29  C   UNL     1      -4.538   1.749  -1.910  0.00  0.00     0.000 A 
INPUT-LIGAND-PDBQT: ATOM     30  C   UNL     1      -5.758   1.717  -1.200  0.00  0.00     0.000 A 
INPUT-LIGAND-PDBQT: ATOM     31  C   UNL     1      -6.129   0.572  -0.472  0.00  0.00     0.000 A 
INPUT-LIGAND-PDBQT: ATOM     32  H   UNL     1      -6.170  -1.956   0.729  0.00  0.00     0.000 HD
INPUT-LIGAND-PDBQT: ATOM     34  CM  UNL     1      -4.527  -1.370  -0.486  1.00  0.00     0.000 AC
INPUT-LIGAND-PDBQT: ATOM     35  CM  UNL     1      -4.906   0.611  -1.190  1.00  0.00     0.000 AC
INPUT-LIGAND-PDBQT: ENDBRANCH  22  23
INPUT-LIGAND-PDBQT: ENDBRANCH  21  22
INPUT-LIGAND-PDBQT: ENDBRANCH   1  21
INPUT-LIGAND-PDBQT: TORSDOF 10________________________________________________________________________________

Total charge on ligand                               =	+0.000 e
REMARK  Name = 
REMARK  10 active torsions:
REMARK  status: ('A' for Active; 'I' for Inactive)
REMARK    1  A    between atoms: C_2  and  C_5
REMARK    2  A    between atoms: C_6  and  C_7
REMARK    3  A    between atoms: C_10  and  C_11
REMARK    4  A    between atoms: C_11  and  N_12
REMARK    5  A    between atoms: N_12  and  C_13
REMARK    6  A    between atoms: N_12  and  C_16
REMARK    7  A    between atoms: C_13  and  C_14
REMARK    8  A    between atoms: C_14  and  O_15
REMARK    9  A    between atoms: C_16  and  C_17
REMARK   10  A    between atoms: C_17  and  C_18
REMARK                            x       y       z     vdW  Elec       q    Type
REMARK                         _______ _______ _______ _____ _____    ______ ____


Number of Rotatable Bonds in Small Molecule =	10 torsions
Number of atoms in ligand:  35

Number of non-hydrogen atoms in ligand:  31

Number of vibrational degrees of freedom of ligand:  99


Number of torsional degrees of freedom = 10
Estimated loss of torsional free energy upon binding = +2.9830 kcal/mol


DPF> about 0.288 0.007 -0.056            # small molecule center

Small molecule center of rotation =	(+0.288, +0.007, -0.056)

DPF> tran0 random                         # initial coordinates/A or random

Initial translation =			(44.898, 8.064, 116.899) Angstroms
DPF> quaternion0 random                   # initial orientation

Each run will begin with a new, random initial orientation.
Initial quaternion,  (x,y,z,w) =	( 0.538, 0.612, -0.426, 0.392 ),
DPF> dihe0 random                         # initial dihedrals (relative) or random

DPF> torsdof 10                            # torsional degrees of freedom

Number of torsional degrees of freedom = 10
Free energy coefficient for torsional degrees of freedom = 0.2983 as specified in parameter library "ad4_arom_params.dat".

Estimated loss of torsional free energy upon binding = +2.9830 kcal/mol

DPF> rmstol 2.0                           # cluster_tolerance/A

Maximum RMS tolerance for conformational cluster analysis = 2.00 Angstroms
DPF> extnrg 1000.0                        # external grid energy

External grid energy (beyond grid map walls) = 1000.00

DPF> e0max 0.0 10000                      # max initial energy; max number of retries

Using user-specified maximum number of retries for simanneal initialization, 10000 retries.
If the simanneal initial energy is greater than e0max, 0.000,
then a new, random initial state will be created.

DPF> ga_pop_size 150                      # number of individuals in population

A population of 150 individuals will be used
DPF> ga_num_evals 2500000                 # maximum number of energy evaluations

There will be at most 2500000 function evaluations used.
DPF> ga_num_generations 27000             # maximum number of generations

The GA will run for at most 27000 generations.
DPF> ga_elitism 1                         # number of top individuals to survive to next generation

The 1 best will be preserved each GA generation.
DPF> ga_mutation_rate 0.02                # rate of gene mutation

The mutation rate is 0.020000.
DPF> ga_crossover_rate 0.8                # rate of crossover

The crossover rate is 0.800000.
DPF> ga_window_size 10                    # 

The GA's selection window is 10 generations.
DPF> ga_cauchy_alpha 0.0                  # Alpha parameter of Cauchy distribution

The alpha parameter (for the Cauchy distribution) is being set to 0.000000.
DPF> ga_cauchy_beta 1.0                   # Beta parameter Cauchy distribution

The beta parameter (for the Cauchy distribution) is being set to 1.000000.
DPF> set_ga                               # set the above parameters for GA or LGA

DPF> sw_max_its 300                       # iterations of Solis & Wets local search

Solis & Wets algorithms will perform at most 300 iterations.
DPF> sw_max_succ 4                        # consecutive successes before changing rho

Solis & Wets algorithms expand rho every 4 in a row successes.
DPF> sw_max_fail 4                        # consecutive failures before changing rho

Solis & Wets algorithms contract rho every 4 in a row failures.
DPF> sw_rho 1.0                           # size of local search space to sample

rho is set to 1.000000.
DPF> sw_lb_rho 0.01                       # lower bound on rho

rho will never get smaller than 0.010000.
DPF> ls_search_freq 0.06                  # probability of performing local search on individual

Local search will be performed with frequency 0.060000.
DPF> set_psw1                             # set the above pseudo-Solis & Wets parameters

Creating a new Local Search object using the pseudo-Solis-Wets algorithm (pSW1) with the current settings.

DPF> unbound_model bound                  # state of unbound ligand

DPF> ga_run 100                           # do this many hybrid GA-LS runs

centering ligand on specified point: 0.288 0.007 -0.056
Furthest true ligand atom from "about" center is 9.918 Angstroms (maxrad).
Number of requested GA dockings = 100 runs
Unbound model to be used is 'same as bound' [AutoDock 4.2 default].

	BEGINNING GENETIC ALGORITHM DOCKING 1 of 100
Run: 1 Seed: 1930567064 834684025 [ Run 1 of 100 GA/GALS ]
Beginning LAMARCKIAN GENETIC ALGORITHM (LGA), with a maximum of 2500000 energy evaluations.

Final-Value: -15.896


	FINAL GENETIC ALGORITHM DOCKED STATE
	_______________________________________________


Detailed state:  trans 36.101 18.608 122.074 quatxyzw -0.647416 -0.418859 -0.635608 -0.037578 center 0.288 0.007 -0.056 ntor 10 138.2706 -13.9472 31.4287 -176.9551 164.4830 76.6513 -118.9110 -81.7608 44.2307 -160.1903
State:	 36.101  18.608 122.074  -0.648 -0.419 -0.636 -175.693    138.27  -13.95   31.43 -176.96  164.48   76.65 -118.91  -81.76   44.23 -160.19

DOCKED: MODEL        1
DOCKED: USER    Run = 1
DOCKED: USER    DPF = ligand_dock.biased.dpf
DOCKED: USER  
DOCKED: USER    Estimated Free Energy of Binding    =  -10.83 kcal/mol  [=(1)+(2)+(3)-(4)]
DOCKED: USER    Estimated Inhibition Constant, Ki   =   11.60 nM (nanomolar)  [Temperature = 298.15 K]
DOCKED: USER    
DOCKED: USER    (1) Final Intermolecular Energy     =  -13.81 kcal/mol
DOCKED: USER        vdW + Hbond + desolv Energy     =  -13.81 kcal/mol
DOCKED: USER        Electrostatic Energy            =   +0.00 kcal/mol
DOCKED: USER    (2) Final Total Internal Energy     =   -2.09 kcal/mol
DOCKED: USER    (3) Torsional Free Energy           =   +2.98 kcal/mol
DOCKED: USER    (4) Unbound System's Energy  [=(2)] =   -2.09 kcal/mol
DOCKED: USER    
DOCKED: USER    
DOCKED: USER    NEWDPF move ligand.dum.pdbqt
DOCKED: USER    NEWDPF about 0.288000 0.007000 -0.056000
DOCKED: USER    NEWDPF tran0 36.100988 18.607712 122.074057
DOCKED: USER    NEWDPF quaternion0 -0.647416 -0.418859 -0.635608 -0.037578
DOCKED: USER    NEWDPF axisangle0 -0.647874 -0.419155 -0.636057 -175.692810
DOCKED: USER    NEWDPF quat0 -0.647874 -0.419155 -0.636057 -175.692810
DOCKED: USER    NEWDPF dihe0 138.27 -13.95 31.43 -176.96 164.48 76.65 -118.91 -81.76 44.23 -160.19 
DOCKED: USER  keepresnum = 1 
DOCKED: USER  
DOCKED: REMARK  Name = 
DOCKED: REMARK  10 active torsions:
DOCKED: REMARK  status: ('A' for Active; 'I' for Inactive)
DOCKED: REMARK    1  A    between atoms: C_2  and  C_5
DOCKED: REMARK    2  A    between atoms: C_6  and  C_7
DOCKED: REMARK    3  A    between atoms: C_10  and  C_11
DOCKED: REMARK    4  A    between atoms: C_11  and  N_12
DOCKED: REMARK    5  A    between atoms: N_12  and  C_13
DOCKED: REMARK    6  A    between atoms: N_12  and  C_16
DOCKED: REMARK    7  A    between atoms: C_13  and  C_14
DOCKED: REMARK    8  A    between atoms: C_14  and  O_15
DOCKED: REMARK    9  A    between atoms: C_16  and  C_17
DOCKED: REMARK   10  A    between atoms: C_17  and  C_18
DOCKED: REMARK                            x       y       z     vdW  Elec       q    Type
DOCKED: REMARK                         _______ _______ _______ _____ _____    ______ ____
DOCKED: USER                              x       y       z     vdW  Elec       q    Type
DOCKED: USER                           _______ _______ _______ _____ _____    ______ ____
DOCKED: ROOT
DOCKED: ATOM      1  N   UNL     1      36.128  18.162 120.815 -0.16 -0.00    +0.000 N 
DOCKED: ATOM      2  H   UNL     1      36.264  17.324 120.250 -0.00 -0.00    +0.000 HD
DOCKED: ENDROOT
DOCKED: BRANCH   1   3
DOCKED: ATOM      3  C   UNL     1      35.696  17.630 122.134 -0.27 -0.00    +0.000 C 
DOCKED: BRANCH   3   7
DOCKED: ATOM      4  C   UNL     1      36.374  13.376 122.688 -0.42 -0.00    +0.000 A 
DOCKED: ATOM      5  C   UNL     1      36.921  14.050 121.586 -0.24 -0.00    +0.000 A 
DOCKED: ATOM      6  C   UNL     1      36.705  15.419 121.409 -0.16 -0.00    +0.000 A 
DOCKED: ATOM      7  C   UNL     1      35.913  16.140 122.316 -0.23 -0.00    +0.000 A 
DOCKED: ATOM      8  C   UNL     1      35.376  15.471 123.428 -0.42 -0.00    +0.000 A 
DOCKED: ATOM      9  C   UNL     1      35.591  14.102 123.607 -0.46 -0.00    +0.000 A 
DOCKED: ATOM     10  CM  UNL     1      36.147  14.759 122.505 +0.00 -0.00    +0.000 AC
DOCKED: BRANCH   4  11
DOCKED: ATOM     11  C   UNL     1      36.684  11.072 121.787 -0.58 -0.00    +0.000 C 
DOCKED: ATOM     12  C   UNL     1      36.623  11.919 122.825 -0.66 -0.00    +0.000 C 
DOCKED: BRANCH  10  13
DOCKED: ATOM     13  O   UNL     1      37.008   8.860 120.967 -2.69 -0.00    +0.000 OA
DOCKED: ATOM     14  C   UNL     1      36.924   9.627 121.966 -0.63 -0.00    +0.000 C 
DOCKED: ATOM     15  N   UNL     1      37.059   9.088 123.283 -0.62 -0.00    +0.000 N 
DOCKED: ATOM     16  O   UNL     1      37.279   7.764 123.463 -2.62 -0.00    +0.000 OA
DOCKED: ATOM     17  H   UNL     1      36.993   9.684 124.065 -0.52 -0.00    +0.000 HD
DOCKED: ENDBRANCH  10  13
DOCKED: ENDBRANCH   4  11
DOCKED: ENDBRANCH   3   7
DOCKED: ENDBRANCH   1   3
DOCKED: BRANCH   1  17
DOCKED: ATOM     18  C   UNL     1      37.454  18.824 120.812 -0.09 -0.00    +0.000 C 
DOCKED: BRANCH  17  18
DOCKED: ATOM     19  C   UNL     1      38.537  17.912 120.230 -0.06 -0.00    +0.000 C 
DOCKED: BRANCH  18  19
DOCKED: ATOM     20  O   UNL     1      38.036  17.229 119.114 -0.07 -0.00    +0.000 OA
DOCKED: ATOM     21  H   UNL     1      38.029  17.824 118.348 +0.00 -0.00    +0.000 HD
DOCKED: ENDBRANCH  18  19
DOCKED: ENDBRANCH  17  18
DOCKED: ENDBRANCH   1  17
DOCKED: BRANCH   1  21
DOCKED: ATOM     22  C   UNL     1      35.084  18.958 120.128 -0.23 -0.00    +0.000 C 
DOCKED: BRANCH  21  22
DOCKED: ATOM     23  C   UNL     1      33.722  18.264 120.236 -0.33 -0.00    +0.000 C 
DOCKED: BRANCH  22  23
DOCKED: ATOM     24  C   UNL     1      32.657  19.062 119.542 -0.33 -0.00    +0.000 A 
DOCKED: ATOM     25  C   UNL     1      32.815  20.315 118.961 -0.09 -0.00    +0.000 A 
DOCKED: ATOM     26  N   UNL     1      31.688  20.681 118.309 -0.21 -0.00    +0.000 N 
DOCKED: ATOM     27  C   UNL     1      30.825  19.661 118.460 -0.28 -0.00    +0.000 A 
DOCKED: ATOM     28  C   UNL     1      31.381  18.652 119.204 -0.40 -0.00    +0.000 A 
DOCKED: ATOM     29  C   UNL     1      30.688  17.469 119.470 -0.12 -0.00    +0.000 A 
DOCKED: ATOM     30  C   UNL     1      29.388  17.339 118.949 -0.42 -0.00    +0.000 A 
DOCKED: ATOM     31  C   UNL     1      28.816  18.378 118.183 -0.28 -0.00    +0.000 A 
DOCKED: ATOM     32  C   UNL     1      29.539  19.557 117.929 -0.20 -0.00    +0.000 A 
DOCKED: ATOM     33  H   UNL     1      31.531  21.521 117.822 -0.01 -0.00    +0.000 HD
DOCKED: ATOM     34  CM  UNL     1      31.867  19.706 118.876 +0.00 -0.00    +0.000 AC
DOCKED: ATOM     35  CM  UNL     1      30.106  18.510 118.700 +0.00 -0.00    +0.000 AC
DOCKED: ENDBRANCH  22  23
DOCKED: ENDBRANCH  21  22
DOCKED: ENDBRANCH   1  21
DOCKED: TORSDOF 10DOCKED: TER
DOCKED: ENDMDL
________________________________________________________________________________


	BEGINNING GENETIC ALGORITHM DOCKING 2 of 100
Run: 2 Seed: 1745111365 703301251 [ Run 2 of 100 GA/GALS ]
Beginning LAMARCKIAN GENETIC ALGORITHM (LGA), with a maximum of 2500000 energy evaluations.

Final-Value: -16.646


	FINAL GENETIC ALGORITHM DOCKED STATE
	_______________________________________________


Detailed state:  trans 36.145 18.390 123.682 quatxyzw -0.156106 0.215398 0.925229 -0.270528 center 0.288 0.007 -0.056 ntor 10 102.4401 -140.5474 -69.8682 142.7448 177.4386 -137.6819 172.7706 -168.4444 -81.8530 -161.4808
State:	 36.145  18.390 123.682  -0.162  0.224  0.961 -148.609    102.44 -140.55  -69.87  142.74  177.44 -137.68  172.77 -168.44  -81.85 -161.48

DOCKED: MODEL        2
DOCKED: USER    Run = 2
DOCKED: USER    DPF = ligand_dock.biased.dpf
DOCKED: USER  
DOCKED: USER    Estimated Free Energy of Binding    =  -11.72 kcal/mol  [=(1)+(2)+(3)-(4)]
DOCKED: USER    Estimated Inhibition Constant, Ki   =    2.58 nM (nanomolar)  [Temperature = 298.15 K]
DOCKED: USER    
DOCKED: USER    (1) Final Intermolecular Energy     =  -14.70 kcal/mol
DOCKED: USER        vdW + Hbond + desolv Energy     =  -14.70 kcal/mol
DOCKED: USER        Electrostatic Energy            =   +0.00 kcal/mol
DOCKED: USER    (2) Final Total Internal Energy     =   -1.95 kcal/mol
DOCKED: USER    (3) Torsional Free Energy           =   +2.98 kcal/mol
DOCKED: USER    (4) Unbound System's Energy  [=(2)] =   -1.95 kcal/mol
DOCKED: USER    
DOCKED: USER    
DOCKED: USER    NEWDPF move ligand.dum.pdbqt
DOCKED: USER    NEWDPF about 0.288000 0.007000 -0.056000
DOCKED: USER    NEWDPF tran0 36.145040 18.389914 123.681967
DOCKED: USER    NEWDPF quaternion0 -0.156106 0.215398 0.925229 -0.270528
DOCKED: USER    NEWDPF axisangle0 -0.162152 0.223741 0.961065 -148.608640
DOCKED: USER    NEWDPF quat0 -0.162152 0.223741 0.961065 -148.608640
DOCKED: USER    NEWDPF dihe0 102.44 -140.55 -69.87 142.74 177.44 -137.68 172.77 -168.44 -81.85 -161.48 
DOCKED: USER  keepresnum = 1 
DOCKED: USER  
DOCKED: REMARK  Name = 
DOCKED: REMARK  10 active torsions:
DOCKED: REMARK  status: ('A' for Active; 'I' for Inactive)
DOCKED: REMARK    1  A    between atoms: C_2  and  C_5
DOCKED: REMARK    2  A    between atoms: C_6  and  C_7
DOCKED: REMARK    3  A    between atoms: C_10  and  C_11
DOCKED: REMARK    4  A    between atoms: C_11  and  N_12
DOCKED: REMARK    5  A    between atoms: N_12  and  C_13
DOCKED: REMARK    6  A    between atoms: N_12  and  C_16
DOCKED: REMARK    7  A    between atoms: C_13  and  C_14
DOCKED: REMARK    8  A    between atoms: C_14  and  O_15
DOCKED: REMARK    9  A    between atoms: C_16  and  C_17
DOCKED: REMARK   10  A    between atoms: C_17  and  C_18
DOCKED: REMARK                            x       y       z     vdW  Elec       q    Type
DOCKED: REMARK                         _______ _______ _______ _____ _____    ______ ____
DOCKED: USER                              x       y       z     vdW  Elec       q    Type
DOCKED: USER                           _______ _______ _______ _____ _____    ______ ____
DOCKED: ROOT
DOCKED: ATOM      1  N   UNL     1      37.364  18.059 124.114 -0.19 -0.00    +0.000 N 
DOCKED: ATOM      2  H   UNL     1      37.954  17.264 124.362 -0.02 -0.00    +0.000 HD
DOCKED: ENDROOT
DOCKED: BRANCH   1   3
DOCKED: ATOM      3  C   UNL     1      36.357  17.475 123.191 -0.26 -0.00    +0.000 C 
DOCKED: BRANCH   3   7
DOCKED: ATOM      4  C   UNL     1      36.317  13.132 123.164 -0.53 -0.00    +0.000 A 
DOCKED: ATOM      5  C   UNL     1      37.327  13.842 122.499 -0.44 -0.00    +0.000 A 
DOCKED: ATOM      6  C   UNL     1      37.342  15.239 122.510 -0.32 -0.00    +0.000 A 
DOCKED: ATOM      7  C   UNL     1      36.329  15.959 123.163 -0.33 -0.00    +0.000 A 
DOCKED: ATOM      8  C   UNL     1      35.324  15.251 123.842 -0.49 -0.00    +0.000 A 
DOCKED: ATOM      9  C   UNL     1      35.308  13.853 123.832 -0.31 -0.00    +0.000 A 
DOCKED: ATOM     10  CM  UNL     1      36.325  14.545 123.168 +0.00 -0.00    +0.000 AC
DOCKED: BRANCH   4  11
DOCKED: ATOM     11  C   UNL     1      36.953  10.945 122.151 -0.57 -0.00    +0.000 C 
DOCKED: ATOM     12  C   UNL     1      36.340  11.648 123.114 -0.70 -0.00    +0.000 C 
DOCKED: BRANCH  10  13
DOCKED: ATOM     13  O   UNL     1      36.836   8.841 121.042 -2.65 -0.00    +0.000 OA
DOCKED: ATOM     14  C   UNL     1      36.945   9.469 122.131 -0.65 -0.00    +0.000 C 
DOCKED: ATOM     15  N   UNL     1      37.059   8.742 123.356 -0.65 -0.00    +0.000 N 
DOCKED: ATOM     16  O   UNL     1      37.053   7.388 123.354 -2.42 -0.00    +0.000 OA
DOCKED: ATOM     17  H   UNL     1      37.144   9.229 124.208 -0.60 -0.00    +0.000 HD
DOCKED: ENDBRANCH  10  13
DOCKED: ENDBRANCH   4  11
DOCKED: ENDBRANCH   3   7
DOCKED: ENDBRANCH   1   3
DOCKED: BRANCH   1  17
DOCKED: ATOM     18  C   UNL     1      36.826  18.532 125.410 -0.18 -0.00    +0.000 C 
DOCKED: BRANCH  17  18
DOCKED: ATOM     19  C   UNL     1      35.317  18.293 125.516 -0.27 -0.00    +0.000 C 
DOCKED: BRANCH  18  19
DOCKED: ATOM     20  O   UNL     1      34.624  19.361 124.933 -0.26 -0.00    +0.000 OA
DOCKED: ATOM     21  H   UNL     1      35.061  19.617 124.106 -0.01 -0.00    +0.000 HD
DOCKED: ENDBRANCH  18  19
DOCKED: ENDBRANCH  17  18
DOCKED: ENDBRANCH   1  17
DOCKED: BRANCH   1  21
DOCKED: ATOM     22  C   UNL     1      38.258  19.047 123.465 -0.11 -0.00    +0.000 C 
DOCKED: BRANCH  21  22
DOCKED: ATOM     23  C   UNL     1      39.421  19.411 124.395 -0.12 -0.00    +0.000 C 
DOCKED: BRANCH  22  23
DOCKED: ATOM     24  C   UNL     1      40.722  18.889 123.856 -0.16 -0.00    +0.000 A 
DOCKED: ATOM     25  C   UNL     1      41.948  19.545 123.889 -0.12 -0.00    +0.000 A 
DOCKED: ATOM     26  N   UNL     1      42.931  18.733 123.439 -0.08 -0.00    +0.000 N 
DOCKED: ATOM     27  C   UNL     1      42.338  17.564 123.136 -0.29 -0.00    +0.000 A 
DOCKED: ATOM     28  C   UNL     1      40.989  17.619 123.381 -0.26 -0.00    +0.000 A 
DOCKED: ATOM     29  C   UNL     1      40.161  16.514 123.176 -0.21 -0.00    +0.000 A 
DOCKED: ATOM     30  C   UNL     1      40.754  15.329 122.705 -0.41 -0.00    +0.000 A 
DOCKED: ATOM     31  C   UNL     1      42.142  15.272 122.453 -0.44 -0.00    +0.000 A 
DOCKED: ATOM     32  C   UNL     1      42.952  16.401 122.672 -0.39 -0.00    +0.000 A 
DOCKED: ATOM     33  H   UNL     1      43.886  18.951 123.350 -0.27 -0.00    +0.000 HD
DOCKED: ATOM     34  CM  UNL     1      41.822  18.478 123.537 +0.00 -0.00    +0.000 AC
DOCKED: ATOM     35  CM  UNL     1      41.556  16.450 122.920 +0.00 -0.00    +0.000 AC
DOCKED: ENDBRANCH  22  23
DOCKED: ENDBRANCH  21  22
DOCKED: ENDBRANCH   1  21
DOCKED: TORSDOF 10DOCKED: TER
DOCKED: ENDMDL
________________________________________________________________________________


	BEGINNING GENETIC ALGORITHM DOCKING 3 of 100
Run: 3 Seed: 475870950 246411015 [ Run 3 of 100 GA/GALS ]
Beginning LAMARCKIAN GENETIC ALGORITHM (LGA), with a maximum of 2500000 energy evaluations.

Final-Value: -17.321


	FINAL GENETIC ALGORITHM DOCKED STATE
	_______________________________________________


Detailed state:  trans 37.254 18.770 122.402 quatxyzw -0.882813 -0.247558 0.036660 -0.397509 center 0.288 0.007 -0.056 ntor 10 -18.2049 -20.5795 52.5693 -166.6359 -74.0300 149.8432 -51.5600 -113.7280 57.8387 177.5466
State:	 37.254  18.770 122.402  -0.962 -0.270  0.040 -133.155    -18.20  -20.58   52.57 -166.64  -74.03  149.84  -51.56 -113.73   57.84  177.55

DOCKED: MODEL        3
DOCKED: USER    Run = 3
DOCKED: USER    DPF = ligand_dock.biased.dpf
DOCKED: USER  
DOCKED: USER    Estimated Free Energy of Binding    =  -11.90 kcal/mol  [=(1)+(2)+(3)-(4)]
DOCKED: USER    Estimated Inhibition Constant, Ki   =    1.89 nM (nanomolar)  [Temperature = 298.15 K]
DOCKED: USER    
DOCKED: USER    (1) Final Intermolecular Energy     =  -14.89 kcal/mol
DOCKED: USER        vdW + Hbond + desolv Energy     =  -14.89 kcal/mol
DOCKED: USER        Electrostatic Energy            =   +0.00 kcal/mol
DOCKED: USER    (2) Final Total Internal Energy     =   -2.44 kcal/mol
DOCKED: USER    (3) Torsional Free Energy           =   +2.98 kcal/mol
DOCKED: USER    (4) Unbound System's Energy  [=(2)] =   -2.44 kcal/mol
DOCKED: USER    
DOCKED: USER    
DOCKED: USER    NEWDPF move ligand.dum.pdbqt
DOCKED: USER    NEWDPF about 0.288000 0.007000 -0.056000
DOCKED: USER    NEWDPF tran0 37.253965 18.770300 122.401718
DOCKED: USER    NEWDPF quaternion0 -0.882813 -0.247558 0.036660 -0.397509
DOCKED: USER    NEWDPF axisangle0 -0.962090 -0.269789 0.039952 -133.154944
DOCKED: USER    NEWDPF quat0 -0.962090 -0.269789 0.039952 -133.154944
DOCKED: USER    NEWDPF dihe0 -18.20 -20.58 52.57 -166.64 -74.03 149.84 -51.56 -113.73 57.84 177.55 
DOCKED: USER  keepresnum = 1 
DOCKED: USER  
DOCKED: REMARK  Name = 
DOCKED: REMARK  10 active torsions:
DOCKED: REMARK  status: ('A' for Active; 'I' for Inactive)
DOCKED: REMARK    1  A    between atoms: C_2  and  C_5
DOCKED: REMARK    2  A    between atoms: C_6  and  C_7
DOCKED: REMARK    3  A    between atoms: C_10  and  C_11
DOCKED: REMARK    4  A    between atoms: C_11  and  N_12
DOCKED: REMARK    5  A    between atoms: N_12  and  C_13
DOCKED: REMARK    6  A    between atoms: N_12  and  C_16
DOCKED: REMARK    7  A    between atoms: C_13  and  C_14
DOCKED: REMARK    8  A    between atoms: C_14  and  O_15
DOCKED: REMARK    9  A    between atoms: C_16  and  C_17
DOCKED: REMARK   10  A    between atoms: C_17  and  C_18
DOCKED: REMARK                            x       y       z     vdW  Elec       q    Type
DOCKED: REMARK                         _______ _______ _______ _____ _____    ______ ____
DOCKED: USER                              x       y       z     vdW  Elec       q    Type
DOCKED: USER                           _______ _______ _______ _____ _____    ______ ____
DOCKED: ROOT
DOCKED: ATOM      1  N   UNL     1      35.992  18.336 122.449 -0.20 -0.00    +0.000 N 
DOCKED: ATOM      2  H   UNL     1      35.402  17.526 122.263 -0.00 -0.00    +0.000 HD
DOCKED: ENDROOT
DOCKED: BRANCH   1   3
DOCKED: ATOM      3  C   UNL     1      37.340  17.746 122.662 -0.17 -0.00    +0.000 C 
DOCKED: BRANCH   3   7
DOCKED: ATOM      4  C   UNL     1      37.383  13.407 122.834 -0.49 -0.00    +0.000 A 
DOCKED: ATOM      5  C   UNL     1      36.204  14.121 123.093 -0.43 -0.00    +0.000 A 
DOCKED: ATOM      6  C   UNL     1      36.189  15.517 123.035 -0.36 -0.00    +0.000 A 
DOCKED: ATOM      7  C   UNL     1      37.361  16.233 122.744 -0.25 -0.00    +0.000 A 
DOCKED: ATOM      8  C   UNL     1      38.541  15.520 122.472 -0.30 -0.00    +0.000 A 
DOCKED: ATOM      9  C   UNL     1      38.557  14.123 122.529 -0.40 -0.00    +0.000 A 
DOCKED: ATOM     10  CM  UNL     1      37.372  14.820 122.784 +0.00 -0.00    +0.000 AC
DOCKED: BRANCH   4  11
DOCKED: ATOM     11  C   UNL     1      36.974  11.129 121.908 -0.56 -0.00    +0.000 C 
DOCKED: ATOM     12  C   UNL     1      37.350  11.925 122.919 -0.51 -0.00    +0.000 C 
DOCKED: BRANCH  10  13
DOCKED: ATOM     13  O   UNL     1      36.808   8.927 121.017 -2.64 -0.00    +0.000 OA
DOCKED: ATOM     14  C   UNL     1      36.944   9.659 122.036 -0.62 -0.00    +0.000 C 
DOCKED: ATOM     15  N   UNL     1      37.068   9.056 123.326 -0.61 -0.00    +0.000 N 
DOCKED: ATOM     16  O   UNL     1      37.042   7.709 123.460 -2.68 -0.00    +0.000 OA
DOCKED: ATOM     17  H   UNL     1      37.174   9.625 124.124 -0.57 -0.00    +0.000 HD
DOCKED: ENDBRANCH  10  13
DOCKED: ENDBRANCH   4  11
DOCKED: ENDBRANCH   3   7
DOCKED: ENDBRANCH   1   3
DOCKED: BRANCH   1  17
DOCKED: ATOM     18  C   UNL     1      35.860  19.171 121.233 -0.18 -0.00    +0.000 C 
DOCKED: BRANCH  17  18
DOCKED: ATOM     19  C   UNL     1      34.743  18.662 120.317 -0.27 -0.00    +0.000 C 
DOCKED: BRANCH  18  19
DOCKED: ATOM     20  O   UNL     1      33.699  18.136 121.088 -0.44 -0.00    +0.000 OA
DOCKED: ATOM     21  H   UNL     1      33.939  17.247 121.394 -0.03 -0.00    +0.000 HD
DOCKED: ENDBRANCH  18  19
DOCKED: ENDBRANCH  17  18
DOCKED: ENDBRANCH   1  17
DOCKED: BRANCH   1  21
DOCKED: ATOM     22  C   UNL     1      35.432  18.984 123.658 -0.22 -0.00    +0.000 C 
DOCKED: BRANCH  21  22
DOCKED: ATOM     23  C   UNL     1      35.953  18.298 124.925 -0.25 -0.00    +0.000 C 
DOCKED: BRANCH  22  23
DOCKED: ATOM     24  C   UNL     1      34.844  17.585 125.644 -0.28 -0.00    +0.000 A 
DOCKED: ATOM     25  C   UNL     1      34.168  16.455 125.198 -0.43 -0.00    +0.000 A 
DOCKED: ATOM     26  N   UNL     1      33.325  16.000 126.153 -0.32 -0.00    +0.000 N 
DOCKED: ATOM     27  C   UNL     1      33.476  16.825 127.204 -0.38 -0.00    +0.000 A 
DOCKED: ATOM     28  C   UNL     1      34.397  17.804 126.934 -0.22 -0.00    +0.000 A 
DOCKED: ATOM     29  C   UNL     1      34.750  18.762 127.885 -0.14 -0.00    +0.000 A 
DOCKED: ATOM     30  C   UNL     1      34.127  18.698 129.144 -0.10 -0.00    +0.000 A 
DOCKED: ATOM     31  C   UNL     1      33.178  17.690 129.422 -0.19 -0.00    +0.000 A 
DOCKED: ATOM     32  C   UNL     1      32.844  16.735 128.444 -0.37 -0.00    +0.000 A 
DOCKED: ATOM     33  H   UNL     1      32.724  15.223 126.092 -0.21 -0.00    +0.000 HD
DOCKED: ATOM     34  CM  UNL     1      34.020  16.903 126.224 -0.07 -0.00    +0.000 AC
DOCKED: ATOM     35  CM  UNL     1      33.795  17.752 128.172 +0.00 -0.00    +0.000 AC
DOCKED: ENDBRANCH  22  23
DOCKED: ENDBRANCH  21  22
DOCKED: ENDBRANCH   1  21
DOCKED: TORSDOF 10DOCKED: TER
DOCKED: ENDMDL
________________________________________________________________________________


	BEGINNING GENETIC ALGORITHM DOCKING 4 of 100
Run: 4 Seed: 719900130 1864918897 [ Run 4 of 100 GA/GALS ]
Beginning LAMARCKIAN GENETIC ALGORITHM (LGA), with a maximum of 2500000 energy evaluations.

Final-Value: -17.652


	FINAL GENETIC ALGORITHM DOCKED STATE
	_______________________________________________


Detailed state:  trans 35.180 16.920 124.335 quatxyzw 0.276382 -0.363607 -0.445982 -0.769742 center 0.288 0.007 -0.056 ntor 10 61.3296 -180.0000 -68.6633 -149.5141 -60.4611 -131.6756 -43.1107 -141.0374 38.3446 27.5875
State:	 35.180  16.920 124.335   0.433 -0.570 -0.699 -79.339     61.33 -180.00  -68.66 -149.51  -60.46 -131.68  -43.11 -141.04   38.34   27.59

DOCKED: MODEL        4
DOCKED: USER    Run = 4
DOCKED: USER    DPF = ligand_dock.biased.dpf
DOCKED: USER  
DOCKED: USER    Estimated Free Energy of Binding    =  -13.15 kcal/mol  [=(1)+(2)+(3)-(4)]
DOCKED: USER    Estimated Inhibition Constant, Ki   =  228.25 pM (picomolar)  [Temperature = 298.15 K]
DOCKED: USER    
DOCKED: USER    (1) Final Intermolecular Energy     =  -16.14 kcal/mol
DOCKED: USER        vdW + Hbond + desolv Energy     =  -16.14 kcal/mol
DOCKED: USER        Electrostatic Energy            =   +0.00 kcal/mol
DOCKED: USER    (2) Final Total Internal Energy     =   -1.52 kcal/mol
DOCKED: USER    (3) Torsional Free Energy           =   +2.98 kcal/mol
DOCKED: USER    (4) Unbound System's Energy  [=(2)] =   -1.52 kcal/mol
DOCKED: USER    
DOCKED: USER    
DOCKED: USER    NEWDPF move ligand.dum.pdbqt
DOCKED: USER    NEWDPF about 0.288000 0.007000 -0.056000
DOCKED: USER    NEWDPF tran0 35.179600 16.920361 124.334524
DOCKED: USER    NEWDPF quaternion0 0.276382 -0.363607 -0.445982 -0.769742
DOCKED: USER    NEWDPF axisangle0 0.432960 -0.569601 -0.698642 -79.338540
DOCKED: USER    NEWDPF quat0 0.432960 -0.569601 -0.698642 -79.338540
DOCKED: USER    NEWDPF dihe0 61.33 -180.00 -68.66 -149.51 -60.46 -131.68 -43.11 -141.04 38.34 27.59 
DOCKED: USER  keepresnum = 1 
DOCKED: USER  
DOCKED: REMARK  Name = 
DOCKED: REMARK  10 active torsions:
DOCKED: REMARK  status: ('A' for Active; 'I' for Inactive)
DOCKED: REMARK    1  A    between atoms: C_2  and  C_5
DOCKED: REMARK    2  A    between atoms: C_6  and  C_7
DOCKED: REMARK    3  A    between atoms: C_10  and  C_11
DOCKED: REMARK    4  A    between atoms: C_11  and  N_12
DOCKED: REMARK    5  A    between atoms: N_12  and  C_13
DOCKED: REMARK    6  A    between atoms: N_12  and  C_16
DOCKED: REMARK    7  A    between atoms: C_13  and  C_14
DOCKED: REMARK    8  A    between atoms: C_14  and  O_15
DOCKED: REMARK    9  A    between atoms: C_16  and  C_17
DOCKED: REMARK   10  A    between atoms: C_17  and  C_18
DOCKED: REMARK                            x       y       z     vdW  Elec       q    Type
DOCKED: REMARK                         _______ _______ _______ _____ _____    ______ ____
DOCKED: USER                              x       y       z     vdW  Elec       q    Type
DOCKED: USER                           _______ _______ _______ _____ _____    ______ ____
DOCKED: ROOT
DOCKED: ATOM      1  N   UNL     1      34.592  17.937 123.699 -0.34 -0.00    +0.000 N 
DOCKED: ATOM      2  H   UNL     1      34.670  18.937 123.513 -0.02 -0.00    +0.000 HD
DOCKED: ENDROOT
DOCKED: BRANCH   1   3
DOCKED: ATOM      3  C   UNL     1      35.986  17.528 124.011 -0.30 -0.00    +0.000 C 
DOCKED: BRANCH   3   7
DOCKED: ATOM      4  C   UNL     1      36.750  13.291 123.437 -0.53 -0.00    +0.000 A 
DOCKED: ATOM      5  C   UNL     1      35.633  13.724 124.167 -0.29 -0.00    +0.000 A 
DOCKED: ATOM      6  C   UNL     1      35.386  15.087 124.349 -0.43 -0.00    +0.000 A 
DOCKED: ATOM      7  C   UNL     1      36.266  16.049 123.829 -0.34 -0.00    +0.000 A 
DOCKED: ATOM      8  C   UNL     1      37.378  15.619 123.087 -0.32 -0.00    +0.000 A 
DOCKED: ATOM      9  C   UNL     1      37.627  14.255 122.902 -0.43 -0.00    +0.000 A 
DOCKED: ATOM     10  CM  UNL     1      36.506  14.670 123.629 +0.00 -0.00    +0.000 AC
DOCKED: BRANCH   4  11
DOCKED: ATOM     11  C   UNL     1      36.628  11.137 122.188 -0.64 -0.00    +0.000 C 
DOCKED: ATOM     12  C   UNL     1      36.975  11.832 123.281 -0.67 -0.00    +0.000 C 
DOCKED: BRANCH  10  13
DOCKED: ATOM     13  O   UNL     1      37.055   9.148 120.950 -2.73 -0.00    +0.000 OA
DOCKED: ATOM     14  C   UNL     1      36.860   9.684 122.075 -0.64 -0.00    +0.000 C 
DOCKED: ATOM     15  N   UNL     1      36.861   8.873 123.252 -0.65 -0.00    +0.000 N 
DOCKED: ATOM     16  O   UNL     1      37.072   7.538 123.166 -2.45 -0.00    +0.000 OA
DOCKED: ATOM     17  H   UNL     1      36.709   9.287 124.132 -0.48 -0.00    +0.000 HD
DOCKED: ENDBRANCH  10  13
DOCKED: ENDBRANCH   4  11
DOCKED: ENDBRANCH   3   7
DOCKED: ENDBRANCH   1   3
DOCKED: BRANCH   1  17
DOCKED: ATOM     18  C   UNL     1      33.645  17.850 124.835 -0.33 -0.00    +0.000 C 
DOCKED: BRANCH  17  18
DOCKED: ATOM     19  C   UNL     1      34.343  17.389 126.117 -0.35 -0.00    +0.000 C 
DOCKED: BRANCH  18  19
DOCKED: ATOM     20  O   UNL     1      33.690  16.263 126.636 -0.96 -0.00    +0.000 OA
DOCKED: ATOM     21  H   UNL     1      32.953  16.020 126.054 -0.14 -0.00    +0.000 HD
DOCKED: ENDBRANCH  18  19
DOCKED: ENDBRANCH  17  18
DOCKED: ENDBRANCH   1  17
DOCKED: BRANCH   1  21
DOCKED: ATOM     22  C   UNL     1      34.060  17.328 122.457 -0.39 -0.00    +0.000 C 
DOCKED: BRANCH  21  22
DOCKED: ATOM     23  C   UNL     1      35.055  17.505 121.305 -0.29 -0.00    +0.000 C 
DOCKED: BRANCH  22  23
DOCKED: ATOM     24  C   UNL     1      34.599  18.582 120.363 -0.26 -0.00    +0.000 A 
DOCKED: ATOM     25  C   UNL     1      35.417  19.448 119.645 -0.15 -0.00    +0.000 A 
DOCKED: ATOM     26  N   UNL     1      34.681  20.198 118.795 -0.14 -0.00    +0.000 N 
DOCKED: ATOM     27  C   UNL     1      33.406  19.802 118.958 -0.19 -0.00    +0.000 A 
DOCKED: ATOM     28  C   UNL     1      33.315  18.814 119.905 -0.30 -0.00    +0.000 A 
DOCKED: ATOM     29  C   UNL     1      32.096  18.216 120.227 -0.42 -0.00    +0.000 A 
DOCKED: ATOM     30  C   UNL     1      30.947  18.661 119.548 -0.44 -0.00    +0.000 A 
DOCKED: ATOM     31  C   UNL     1      31.041  19.678 118.573 -0.29 -0.00    +0.000 A 
DOCKED: ATOM     32  C   UNL     1      32.284  20.260 118.267 -0.20 -0.00    +0.000 A 
DOCKED: ATOM     33  H   UNL     1      35.010  20.893 118.180 -0.02 -0.00    +0.000 HD
DOCKED: ATOM     34  CM  UNL     1      34.296  19.395 119.509 +0.00 -0.00    +0.000 AC
DOCKED: ATOM     35  CM  UNL     1      32.182  19.239 119.247 +0.00 -0.00    +0.000 AC
DOCKED: ENDBRANCH  22  23
DOCKED: ENDBRANCH  21  22
DOCKED: ENDBRANCH   1  21
DOCKED: TORSDOF 10DOCKED: TER
DOCKED: ENDMDL
________________________________________________________________________________


	BEGINNING GENETIC ALGORITHM DOCKING 5 of 100
Run: 5 Seed: 526448535 1978335875 [ Run 5 of 100 GA/GALS ]
Beginning LAMARCKIAN GENETIC ALGORITHM (LGA), with a maximum of 2500000 energy evaluations.

Final-Value: -16.589


	FINAL GENETIC ALGORITHM DOCKED STATE
	_______________________________________________


Detailed state:  trans 35.579 17.086 122.598 quatxyzw 0.467854 -0.767347 -0.282917 -0.335036 center 0.288 0.007 -0.056 ntor 10 -103.9477 -83.5838 95.1527 -159.0079 -78.2144 49.1604 -135.3906 161.6726 -164.9469 35.8851
State:	 35.579  17.086 122.598   0.497 -0.814 -0.300 -140.851   -103.95  -83.58   95.15 -159.01  -78.21   49.16 -135.39  161.67 -164.95   35.89

DOCKED: MODEL        5
DOCKED: USER    Run = 5
DOCKED: USER    DPF = ligand_dock.biased.dpf
DOCKED: USER  
DOCKED: USER    Estimated Free Energy of Binding    =  -11.31 kcal/mol  [=(1)+(2)+(3)-(4)]
DOCKED: USER    Estimated Inhibition Constant, Ki   =    5.11 nM (nanomolar)  [Temperature = 298.15 K]
DOCKED: USER    
DOCKED: USER    (1) Final Intermolecular Energy     =  -14.29 kcal/mol
DOCKED: USER        vdW + Hbond + desolv Energy     =  -14.29 kcal/mol
DOCKED: USER        Electrostatic Energy            =   +0.00 kcal/mol
DOCKED: USER    (2) Final Total Internal Energy     =   -2.29 kcal/mol
DOCKED: USER    (3) Torsional Free Energy           =   +2.98 kcal/mol
DOCKED: USER    (4) Unbound System's Energy  [=(2)] =   -2.29 kcal/mol
DOCKED: USER    
DOCKED: USER    
DOCKED: USER    NEWDPF move ligand.dum.pdbqt
DOCKED: USER    NEWDPF about 0.288000 0.007000 -0.056000
DOCKED: USER    NEWDPF tran0 35.579035 17.086376 122.597786
DOCKED: USER    NEWDPF quaternion0 0.467854 -0.767347 -0.282917 -0.335036
DOCKED: USER    NEWDPF axisangle0 0.496552 -0.814416 -0.300271 -140.850603
DOCKED: USER    NEWDPF quat0 0.496552 -0.814416 -0.300271 -140.850603
DOCKED: USER    NEWDPF dihe0 -103.95 -83.58 95.15 -159.01 -78.21 49.16 -135.39 161.67 -164.95 35.89 
DOCKED: USER  keepresnum = 1 
DOCKED: USER  
DOCKED: REMARK  Name = 
DOCKED: REMARK  10 active torsions:
DOCKED: REMARK  status: ('A' for Active; 'I' for Inactive)
DOCKED: REMARK    1  A    between atoms: C_2  and  C_5
DOCKED: REMARK    2  A    between atoms: C_6  and  C_7
DOCKED: REMARK    3  A    between atoms: C_10  and  C_11
DOCKED: REMARK    4  A    between atoms: C_11  and  N_12
DOCKED: REMARK    5  A    between atoms: N_12  and  C_13
DOCKED: REMARK    6  A    between atoms: N_12  and  C_16
DOCKED: REMARK    7  A    between atoms: C_13  and  C_14
DOCKED: REMARK    8  A    between atoms: C_14  and  O_15
DOCKED: REMARK    9  A    between atoms: C_16  and  C_17
DOCKED: REMARK   10  A    between atoms: C_17  and  C_18
DOCKED: REMARK                            x       y       z     vdW  Elec       q    Type
DOCKED: REMARK                         _______ _______ _______ _____ _____    ______ ____
DOCKED: USER                              x       y       z     vdW  Elec       q    Type
DOCKED: USER                           _______ _______ _______ _____ _____    ______ ____
DOCKED: ROOT
DOCKED: ATOM      1  N   UNL     1      36.178  18.144 122.045 -0.18 -0.00    +0.000 N 
DOCKED: ATOM      2  H   UNL     1      36.518  19.085 122.244 +0.00 -0.00    +0.000 HD
DOCKED: ENDROOT
DOCKED: BRANCH   1   3
DOCKED: ATOM      3  C   UNL     1      36.181  17.481 123.375 -0.28 -0.00    +0.000 C 
DOCKED: BRANCH   3   7
DOCKED: ATOM      4  C   UNL     1      36.840  13.192 123.197 -0.53 -0.00    +0.000 A 
DOCKED: ATOM      5  C   UNL     1      35.565  13.709 123.474 -0.42 -0.00    +0.000 A 
DOCKED: ATOM      6  C   UNL     1      35.353  15.089 123.528 -0.45 -0.00    +0.000 A 
DOCKED: ATOM      7  C   UNL     1      36.417  15.984 123.336 -0.33 -0.00    +0.000 A 
DOCKED: ATOM      8  C   UNL     1      37.692  15.470 123.046 -0.32 -0.00    +0.000 A 
DOCKED: ATOM      9  C   UNL     1      37.906  14.089 122.990 -0.43 -0.00    +0.000 A 
DOCKED: ATOM     10  CM  UNL     1      36.628  14.588 123.262 +0.00 -0.00    +0.000 AC
DOCKED: BRANCH   4  11
DOCKED: ATOM     11  C   UNL     1      36.703  10.956 122.104 -0.63 -0.00    +0.000 C 
DOCKED: ATOM     12  C   UNL     1      37.016  11.719 123.162 -0.66 -0.00    +0.000 C 
DOCKED: BRANCH  10  13
DOCKED: ATOM     13  O   UNL     1      36.942   8.844 121.030 -2.67 -0.00    +0.000 OA
DOCKED: ATOM     14  C   UNL     1      36.884   9.491 122.112 -0.66 -0.00    +0.000 C 
DOCKED: ATOM     15  N   UNL     1      36.993   8.796 123.356 -0.64 -0.00    +0.000 N 
DOCKED: ATOM     16  O   UNL     1      37.158   7.453 123.380 -2.45 -0.00    +0.000 OA
DOCKED: ATOM     17  H   UNL     1      36.947   9.298 124.202 -0.55 -0.00    +0.000 HD
DOCKED: ENDBRANCH  10  13
DOCKED: ENDBRANCH   4  11
DOCKED: ENDBRANCH   3   7
DOCKED: ENDBRANCH   1   3
DOCKED: BRANCH   1  17
DOCKED: ATOM     18  C   UNL     1      34.837  18.356 121.454 -0.31 -0.00    +0.000 C 
DOCKED: BRANCH  17  18
DOCKED: ATOM     19  C   UNL     1      34.886  19.338 120.281 -0.10 -0.00    +0.000 C 
DOCKED: BRANCH  18  19
DOCKED: ATOM     20  O   UNL     1      35.942  20.241 120.459 -0.32 -0.00    +0.000 OA
DOCKED: ATOM     21  H   UNL     1      35.823  20.998 119.865 -0.19 -0.00    +0.000 HD
DOCKED: ENDBRANCH  18  19
DOCKED: ENDBRANCH  17  18
DOCKED: ENDBRANCH   1  17
DOCKED: BRANCH   1  21
DOCKED: ATOM     22  C   UNL     1      37.143  17.553 121.088 -0.14 -0.00    +0.000 C 
DOCKED: BRANCH  21  22
DOCKED: ATOM     23  C   UNL     1      36.407  16.747 120.012 -0.18 -0.00    +0.000 C 
DOCKED: BRANCH  22  23
DOCKED: ATOM     24  C   UNL     1      37.300  16.483 118.835 -0.12 -0.00    +0.000 A 
DOCKED: ATOM     25  C   UNL     1      38.308  17.317 118.363 -0.06 -0.00    +0.000 A 
DOCKED: ATOM     26  N   UNL     1      39.001  16.710 117.373 -0.09 -0.00    +0.000 N 
DOCKED: ATOM     27  C   UNL     1      38.449  15.492 117.227 -0.16 -0.00    +0.000 A 
DOCKED: ATOM     28  C   UNL     1      37.410  15.314 118.104 -0.19 -0.00    +0.000 A 
DOCKED: ATOM     29  C   UNL     1      36.700  14.114 118.167 -0.34 -0.00    +0.000 A 
DOCKED: ATOM     30  C   UNL     1      37.081  13.080 117.293 -0.25 -0.00    +0.000 A 
DOCKED: ATOM     31  C   UNL     1      38.151  13.263 116.390 -0.39 -0.00    +0.000 A 
DOCKED: ATOM     32  C   UNL     1      38.851  14.483 116.353 -0.27 -0.00    +0.000 A 
DOCKED: ATOM     33  H   UNL     1      39.756  17.082 116.863 +0.00 -0.00    +0.000 HD
DOCKED: ATOM     34  CM  UNL     1      38.123  16.277 117.961 +0.00 -0.00    +0.000 AC
DOCKED: ATOM     35  CM  UNL     1      37.773  14.292 117.256 +0.00 -0.00    +0.000 AC
DOCKED: ENDBRANCH  22  23
DOCKED: ENDBRANCH  21  22
DOCKED: ENDBRANCH   1  21
DOCKED: TORSDOF 10DOCKED: TER
DOCKED: ENDMDL
________________________________________________________________________________


	BEGINNING GENETIC ALGORITHM DOCKING 6 of 100
Run: 6 Seed: 1830745719 1770212600 [ Run 6 of 100 GA/GALS ]
Beginning LAMARCKIAN GENETIC ALGORITHM (LGA), with a maximum of 2500000 energy evaluations.

Final-Value: -14.988


	FINAL GENETIC ALGORITHM DOCKED STATE
	_______________________________________________


Detailed state:  trans 36.747 17.618 123.088 quatxyzw -0.084434 0.279962 -0.929043 -0.226650 center 0.288 0.007 -0.056 ntor 10 -178.1636 -63.2327 12.9379 76.0507 -96.9119 -160.9386 21.4572 150.5136 -50.8511 -62.3960
State:	 36.747  17.618 123.088  -0.087  0.287 -0.954 -153.800   -178.16  -63.23   12.94   76.05  -96.91 -160.94   21.46  150.51  -50.85  -62.40

DOCKED: MODEL        6
DOCKED: USER    Run = 6
DOCKED: USER    DPF = ligand_dock.biased.dpf
DOCKED: USER  
DOCKED: USER    Estimated Free Energy of Binding    =   -9.75 kcal/mol  [=(1)+(2)+(3)-(4)]
DOCKED: USER    Estimated Inhibition Constant, Ki   =   71.91 nM (nanomolar)  [Temperature = 298.15 K]
DOCKED: USER    
DOCKED: USER    (1) Final Intermolecular Energy     =  -12.73 kcal/mol
DOCKED: USER        vdW + Hbond + desolv Energy     =  -12.73 kcal/mol
DOCKED: USER        Electrostatic Energy            =   +0.00 kcal/mol
DOCKED: USER    (2) Final Total Internal Energy     =   -2.26 kcal/mol
DOCKED: USER    (3) Torsional Free Energy           =   +2.98 kcal/mol
DOCKED: USER    (4) Unbound System's Energy  [=(2)] =   -2.26 kcal/mol
DOCKED: USER    
DOCKED: USER    
DOCKED: USER    NEWDPF move ligand.dum.pdbqt
DOCKED: USER    NEWDPF about 0.288000 0.007000 -0.056000
DOCKED: USER    NEWDPF tran0 36.746606 17.617576 123.088406
DOCKED: USER    NEWDPF quaternion0 -0.084434 0.279962 -0.929043 -0.226650
DOCKED: USER    NEWDPF axisangle0 -0.086690 0.287443 -0.953867 -153.800131
DOCKED: USER    NEWDPF quat0 -0.086690 0.287443 -0.953867 -153.800131
DOCKED: USER    NEWDPF dihe0 -178.16 -63.23 12.94 76.05 -96.91 -160.94 21.46 150.51 -50.85 -62.40 
DOCKED: USER  keepresnum = 1 
DOCKED: USER  
DOCKED: REMARK  Name = 
DOCKED: REMARK  10 active torsions:
DOCKED: REMARK  status: ('A' for Active; 'I' for Inactive)
DOCKED: REMARK    1  A    between atoms: C_2  and  C_5
DOCKED: REMARK    2  A    between atoms: C_6  and  C_7
DOCKED: REMARK    3  A    between atoms: C_10  and  C_11
DOCKED: REMARK    4  A    between atoms: C_11  and  N_12
DOCKED: REMARK    5  A    between atoms: N_12  and  C_13
DOCKED: REMARK    6  A    between atoms: N_12  and  C_16
DOCKED: REMARK    7  A    between atoms: C_13  and  C_14
DOCKED: REMARK    8  A    between atoms: C_14  and  O_15
DOCKED: REMARK    9  A    between atoms: C_16  and  C_17
DOCKED: REMARK   10  A    between atoms: C_17  and  C_18
DOCKED: REMARK                            x       y       z     vdW  Elec       q    Type
DOCKED: REMARK                         _______ _______ _______ _____ _____    ______ ____
DOCKED: USER                              x       y       z     vdW  Elec       q    Type
DOCKED: USER                           _______ _______ _______ _____ _____    ______ ____
DOCKED: ROOT
DOCKED: ATOM      1  N   UNL     1      37.781  18.452 123.221 -0.12 -0.00    +0.000 N 
DOCKED: ATOM      2  H   UNL     1      38.645  18.756 122.772 +0.00 -0.00    +0.000 HD
DOCKED: ENDROOT
DOCKED: BRANCH   1   3
DOCKED: ATOM      3  C   UNL     1      36.974  17.911 122.096 -0.16 -0.00    +0.000 C 
DOCKED: BRANCH   3   7
DOCKED: ATOM      4  C   UNL     1      36.433  13.604 122.231 -0.19 -0.00    +0.000 A 
DOCKED: ATOM      5  C   UNL     1      37.123  14.205 121.167 -0.28 -0.00    +0.000 A 
DOCKED: ATOM      6  C   UNL     1      37.299  15.591 121.125 -0.21 -0.00    +0.000 A 
DOCKED: ATOM      7  C   UNL     1      36.765  16.410 122.132 -0.22 -0.00    +0.000 A 
DOCKED: ATOM      8  C   UNL     1      36.085  15.810 123.205 -0.36 -0.00    +0.000 A 
DOCKED: ATOM      9  C   UNL     1      35.908  14.423 123.249 -0.41 -0.00    +0.000 A 
DOCKED: ATOM     10  CM  UNL     1      36.603  15.007 122.184 +0.00 -0.00    +0.000 AC
DOCKED: BRANCH   4  11
DOCKED: ATOM     11  C   UNL     1      37.284  11.261 122.267 -0.33 -0.00    +0.000 C 
DOCKED: ATOM     12  C   UNL     1      36.263  12.129 122.224 -0.53 -0.00    +0.000 C 
DOCKED: BRANCH  10  13
DOCKED: ATOM     13  O   UNL     1      36.749   9.210 121.180 -2.64 -0.00    +0.000 OA
DOCKED: ATOM     14  C   UNL     1      37.073   9.800 122.247 -0.57 -0.00    +0.000 C 
DOCKED: ATOM     15  N   UNL     1      37.236   9.044 123.450 -0.52 -0.00    +0.000 N 
DOCKED: ATOM     16  O   UNL     1      37.046   7.704 123.449 -2.68 -0.00    +0.000 OA
DOCKED: ATOM     17  H   UNL     1      37.488   9.502 124.285 -0.64 -0.00    +0.000 HD
DOCKED: ENDBRANCH  10  13
DOCKED: ENDBRANCH   4  11
DOCKED: ENDBRANCH   3   7
DOCKED: ENDBRANCH   1   3
DOCKED: BRANCH   1  17
DOCKED: ATOM     18  C   UNL     1      38.220  17.446 124.216 -0.20 -0.00    +0.000 C 
DOCKED: BRANCH  17  18
DOCKED: ATOM     19  C   UNL     1      39.495  16.728 123.767 +0.02 -0.00    +0.000 C 
DOCKED: BRANCH  18  19
DOCKED: ATOM     20  O   UNL     1      39.800  17.080 122.445 -0.20 -0.00    +0.000 OA
DOCKED: ATOM     21  H   UNL     1      40.684  17.476 122.413 +0.00 -0.00    +0.000 HD
DOCKED: ENDBRANCH  18  19
DOCKED: ENDBRANCH  17  18
DOCKED: ENDBRANCH   1  17
DOCKED: BRANCH   1  21
DOCKED: ATOM     22  C   UNL     1      37.192  19.661 123.843 -0.13 -0.00    +0.000 C 
DOCKED: BRANCH  21  22
DOCKED: ATOM     23  C   UNL     1      38.284  20.691 124.152 -0.06 -0.00    +0.000 C 
DOCKED: BRANCH  22  23
DOCKED: ATOM     24  C   UNL     1      39.524  20.020 124.668 -0.08 -0.00    +0.000 A 
DOCKED: ATOM     25  C   UNL     1      40.777  20.031 124.065 -0.08 -0.00    +0.000 A 
DOCKED: ATOM     26  N   UNL     1      41.693  19.443 124.866 -0.14 -0.00    +0.000 N 
DOCKED: ATOM     27  C   UNL     1      41.032  19.074 125.977 -0.24 -0.00    +0.000 A 
DOCKED: ATOM     28  C   UNL     1      39.706  19.412 125.896 -0.15 -0.00    +0.000 A 
DOCKED: ATOM     29  C   UNL     1      38.819  19.162 126.944 -0.16 -0.00    +0.000 A 
DOCKED: ATOM     30  C   UNL     1      39.328  18.544 128.101 -0.22 -0.00    +0.000 A 
DOCKED: ATOM     31  C   UNL     1      40.694  18.195 128.184 -0.37 -0.00    +0.000 A 
DOCKED: ATOM     32  C   UNL     1      41.564  18.463 127.113 -0.32 -0.00    +0.000 A 
DOCKED: ATOM     33  H   UNL     1      42.650  19.311 124.676 -0.57 -0.00    +0.000 HD
DOCKED: ATOM     34  CM  UNL     1      40.584  19.592 125.087 +0.00 -0.00    +0.000 AC
DOCKED: ATOM     35  CM  UNL     1      40.190  18.808 127.035 +0.00 -0.00    +0.000 AC
DOCKED: ENDBRANCH  22  23
DOCKED: ENDBRANCH  21  22
DOCKED: ENDBRANCH   1  21
DOCKED: TORSDOF 10DOCKED: TER
DOCKED: ENDMDL
________________________________________________________________________________


	BEGINNING GENETIC ALGORITHM DOCKING 7 of 100
Run: 7 Seed: 1071784987 913354070 [ Run 7 of 100 GA/GALS ]
Beginning LAMARCKIAN GENETIC ALGORITHM (LGA), with a maximum of 2500000 energy evaluations.

Final-Value: -16.319


	FINAL GENETIC ALGORITHM DOCKED STATE
	_______________________________________________


Detailed state:  trans 37.262 18.407 120.856 quatxyzw -0.756598 -0.154192 0.013903 -0.635289 center 0.288 0.007 -0.056 ntor 10 -28.2794 -9.7693 39.8782 -158.5159 -179.7973 -18.8426 -139.5536 23.8229 -39.4656 128.7402
State:	 37.262  18.407 120.856  -0.980 -0.200  0.018 -101.117    -28.28   -9.77   39.88 -158.52 -179.80  -18.84 -139.55   23.82  -39.47  128.74

DOCKED: MODEL        7
DOCKED: USER    Run = 7
DOCKED: USER    DPF = ligand_dock.biased.dpf
DOCKED: USER  
DOCKED: USER    Estimated Free Energy of Binding    =  -11.04 kcal/mol  [=(1)+(2)+(3)-(4)]
DOCKED: USER    Estimated Inhibition Constant, Ki   =    8.02 nM (nanomolar)  [Temperature = 298.15 K]
DOCKED: USER    
DOCKED: USER    (1) Final Intermolecular Energy     =  -14.03 kcal/mol
DOCKED: USER        vdW + Hbond + desolv Energy     =  -14.03 kcal/mol
DOCKED: USER        Electrostatic Energy            =   +0.00 kcal/mol
DOCKED: USER    (2) Final Total Internal Energy     =   -2.29 kcal/mol
DOCKED: USER    (3) Torsional Free Energy           =   +2.98 kcal/mol
DOCKED: USER    (4) Unbound System's Energy  [=(2)] =   -2.29 kcal/mol
DOCKED: USER    
DOCKED: USER    
DOCKED: USER    NEWDPF move ligand.dum.pdbqt
DOCKED: USER    NEWDPF about 0.288000 0.007000 -0.056000
DOCKED: USER    NEWDPF tran0 37.261865 18.407229 120.855901
DOCKED: USER    NEWDPF quaternion0 -0.756598 -0.154192 0.013903 -0.635289
DOCKED: USER    NEWDPF axisangle0 -0.979700 -0.199659 0.018003 -101.117213
DOCKED: USER    NEWDPF quat0 -0.979700 -0.199659 0.018003 -101.117213
DOCKED: USER    NEWDPF dihe0 -28.28 -9.77 39.88 -158.52 -179.80 -18.84 -139.55 23.82 -39.47 128.74 
DOCKED: USER  keepresnum = 1 
DOCKED: USER  
DOCKED: REMARK  Name = 
DOCKED: REMARK  10 active torsions:
DOCKED: REMARK  status: ('A' for Active; 'I' for Inactive)
DOCKED: REMARK    1  A    between atoms: C_2  and  C_5
DOCKED: REMARK    2  A    between atoms: C_6  and  C_7
DOCKED: REMARK    3  A    between atoms: C_10  and  C_11
DOCKED: REMARK    4  A    between atoms: C_11  and  N_12
DOCKED: REMARK    5  A    between atoms: N_12  and  C_13
DOCKED: REMARK    6  A    between atoms: N_12  and  C_16
DOCKED: REMARK    7  A    between atoms: C_13  and  C_14
DOCKED: REMARK    8  A    between atoms: C_14  and  O_15
DOCKED: REMARK    9  A    between atoms: C_16  and  C_17
DOCKED: REMARK   10  A    between atoms: C_17  and  C_18
DOCKED: REMARK                            x       y       z     vdW  Elec       q    Type
DOCKED: REMARK                         _______ _______ _______ _____ _____    ______ ____
DOCKED: USER                              x       y       z     vdW  Elec       q    Type
DOCKED: USER                           _______ _______ _______ _____ _____    ______ ____
DOCKED: ROOT
DOCKED: ATOM      1  N   UNL     1      35.958  18.126 120.923 -0.18 -0.00    +0.000 N 
DOCKED: ATOM      2  H   UNL     1      35.218  17.584 120.479 -0.01 -0.00    +0.000 HD
DOCKED: ENDROOT
DOCKED: BRANCH   1   3
DOCKED: ATOM      3  C   UNL     1      37.198  17.392 120.557 -0.13 -0.00    +0.000 C 
DOCKED: BRANCH   3   7
DOCKED: ATOM      4  C   UNL     1      37.324  13.224 121.771 -0.43 -0.00    +0.000 A 
DOCKED: ATOM      5  C   UNL     1      37.341  13.574 120.412 -0.37 -0.00    +0.000 A 
DOCKED: ATOM      6  C   UNL     1      37.303  14.915 120.022 -0.23 -0.00    +0.000 A 
DOCKED: ATOM      7  C   UNL     1      37.219  15.937 120.981 -0.18 -0.00    +0.000 A 
DOCKED: ATOM      8  C   UNL     1      37.215  15.590 122.343 -0.28 -0.00    +0.000 A 
DOCKED: ATOM      9  C   UNL     1      37.254  14.248 122.735 -0.42 -0.00    +0.000 A 
DOCKED: ATOM     10  CM  UNL     1      37.276  14.581 121.377 +0.00 -0.00    +0.000 AC
DOCKED: BRANCH   4  11
DOCKED: ATOM     11  C   UNL     1      37.005  10.798 121.297 -0.32 -0.00    +0.000 C 
DOCKED: ATOM     12  C   UNL     1      37.354  11.785 122.134 -0.43 -0.00    +0.000 C 
DOCKED: BRANCH  10  13
DOCKED: ATOM     13  O   UNL     1      37.081   8.464 120.831 -2.32 -0.00    +0.000 OA
DOCKED: ATOM     14  C   UNL     1      37.039   9.378 121.699 -0.62 -0.00    +0.000 C 
DOCKED: ATOM     15  N   UNL     1      37.023   9.034 123.086 -0.68 -0.00    +0.000 N 
DOCKED: ATOM     16  O   UNL     1      37.054   7.736 123.472 -2.67 -0.00    +0.000 OA
DOCKED: ATOM     17  H   UNL     1      36.991   9.745 123.767 -0.39 -0.00    +0.000 HD
DOCKED: ENDBRANCH  10  13
DOCKED: ENDBRANCH   4  11
DOCKED: ENDBRANCH   3   7
DOCKED: ENDBRANCH   1   3
DOCKED: BRANCH   1  17
DOCKED: ATOM     18  C   UNL     1      35.831  19.476 120.326 -0.13 -0.00    +0.000 C 
DOCKED: BRANCH  17  18
DOCKED: ATOM     19  C   UNL     1      34.723  19.523 119.270 -0.18 -0.00    +0.000 C 
DOCKED: BRANCH  18  19
DOCKED: ATOM     20  O   UNL     1      33.580  18.871 119.749 -0.33 -0.00    +0.000 OA
DOCKED: ATOM     21  H   UNL     1      33.630  17.928 119.528 -0.02 -0.00    +0.000 HD
DOCKED: ENDBRANCH  18  19
DOCKED: ENDBRANCH  17  18
DOCKED: ENDBRANCH   1  17
DOCKED: BRANCH   1  21
DOCKED: ATOM     22  C   UNL     1      35.667  18.108 122.376 -0.27 -0.00    +0.000 C 
DOCKED: BRANCH  21  22
DOCKED: ATOM     23  C   UNL     1      34.239  17.614 122.630 -0.40 -0.00    +0.000 C 
DOCKED: BRANCH  22  23
DOCKED: ATOM     24  C   UNL     1      34.086  17.117 124.039 -0.37 -0.00    +0.000 A 
DOCKED: ATOM     25  C   UNL     1      34.102  15.788 124.448 -0.49 -0.00    +0.000 A 
DOCKED: ATOM     26  N   UNL     1      34.074  15.708 125.798 -0.46 -0.00    +0.000 N 
DOCKED: ATOM     27  C   UNL     1      34.057  16.976 126.244 -0.34 -0.00    +0.000 A 
DOCKED: ATOM     28  C   UNL     1      34.067  17.866 125.200 -0.35 -0.00    +0.000 A 
DOCKED: ATOM     29  C   UNL     1      34.086  19.245 125.412 -0.21 -0.00    +0.000 A 
DOCKED: ATOM     30  C   UNL     1      34.093  19.705 126.742 -0.17 -0.00    +0.000 A 
DOCKED: ATOM     31  C   UNL     1      34.082  18.789 127.816 -0.15 -0.00    +0.000 A 
DOCKED: ATOM     32  C   UNL     1      34.066  17.404 127.572 -0.24 -0.00    +0.000 A 
DOCKED: ATOM     33  H   UNL     1      34.068  14.889 126.343 -0.04 -0.00    +0.000 HD
DOCKED: ATOM     34  CM  UNL     1      34.078  16.659 125.167 -0.13 -0.00    +0.000 AC
DOCKED: ATOM     35  CM  UNL     1      34.075  18.330 126.497 -0.06 -0.00    +0.000 AC
DOCKED: ENDBRANCH  22  23
DOCKED: ENDBRANCH  21  22
DOCKED: ENDBRANCH   1  21
DOCKED: TORSDOF 10DOCKED: TER
DOCKED: ENDMDL
________________________________________________________________________________


	BEGINNING GENETIC ALGORITHM DOCKING 8 of 100
Run: 8 Seed: 1387536923 21706274 [ Run 8 of 100 GA/GALS ]
Beginning LAMARCKIAN GENETIC ALGORITHM (LGA), with a maximum of 2500000 energy evaluations.

Final-Value: -16.194


	FINAL GENETIC ALGORITHM DOCKED STATE
	_______________________________________________


Detailed state:  trans 36.435 18.383 124.286 quatxyzw -0.624450 -0.382652 -0.296102 -0.613158 center 0.288 0.007 -0.056 ntor 10 78.5374 -7.1511 11.8794 -6.4875 -173.4235 -141.8622 -138.9978 164.2211 104.1766 150.1730
State:	 36.435  18.383 124.286  -0.790 -0.484 -0.375 -104.364     78.54   -7.15   11.88   -6.49 -173.42 -141.86 -139.00  164.22  104.18  150.17

DOCKED: MODEL        8
DOCKED: USER    Run = 8
DOCKED: USER    DPF = ligand_dock.biased.dpf
DOCKED: USER  
DOCKED: USER    Estimated Free Energy of Binding    =  -11.06 kcal/mol  [=(1)+(2)+(3)-(4)]
DOCKED: USER    Estimated Inhibition Constant, Ki   =    7.80 nM (nanomolar)  [Temperature = 298.15 K]
DOCKED: USER    
DOCKED: USER    (1) Final Intermolecular Energy     =  -14.04 kcal/mol
DOCKED: USER        vdW + Hbond + desolv Energy     =  -14.04 kcal/mol
DOCKED: USER        Electrostatic Energy            =   +0.00 kcal/mol
DOCKED: USER    (2) Final Total Internal Energy     =   -2.15 kcal/mol
DOCKED: USER    (3) Torsional Free Energy           =   +2.98 kcal/mol
DOCKED: USER    (4) Unbound System's Energy  [=(2)] =   -2.15 kcal/mol
DOCKED: USER    
DOCKED: USER    
DOCKED: USER    NEWDPF move ligand.dum.pdbqt
DOCKED: USER    NEWDPF about 0.288000 0.007000 -0.056000
DOCKED: USER    NEWDPF tran0 36.435245 18.383349 124.285653
DOCKED: USER    NEWDPF quaternion0 -0.624450 -0.382652 -0.296102 -0.613158
DOCKED: USER    NEWDPF axisangle0 -0.790483 -0.484394 -0.374832 -104.363632
DOCKED: USER    NEWDPF quat0 -0.790483 -0.484394 -0.374832 -104.363632
DOCKED: USER    NEWDPF dihe0 78.54 -7.15 11.88 -6.49 -173.42 -141.86 -139.00 164.22 104.18 150.17 
DOCKED: USER  keepresnum = 1 
DOCKED: USER  
DOCKED: REMARK  Name = 
DOCKED: REMARK  10 active torsions:
DOCKED: REMARK  status: ('A' for Active; 'I' for Inactive)
DOCKED: REMARK    1  A    between atoms: C_2  and  C_5
DOCKED: REMARK    2  A    between atoms: C_6  and  C_7
DOCKED: REMARK    3  A    between atoms: C_10  and  C_11
DOCKED: REMARK    4  A    between atoms: C_11  and  N_12
DOCKED: REMARK    5  A    between atoms: N_12  and  C_13
DOCKED: REMARK    6  A    between atoms: N_12  and  C_16
DOCKED: REMARK    7  A    between atoms: C_13  and  C_14
DOCKED: REMARK    8  A    between atoms: C_14  and  O_15
DOCKED: REMARK    9  A    between atoms: C_16  and  C_17
DOCKED: REMARK   10  A    between atoms: C_17  and  C_18
DOCKED: REMARK                            x       y       z     vdW  Elec       q    Type
DOCKED: REMARK                         _______ _______ _______ _____ _____    ______ ____
DOCKED: USER                              x       y       z     vdW  Elec       q    Type
DOCKED: USER                           _______ _______ _______ _____ _____    ______ ____
DOCKED: ROOT
DOCKED: ATOM      1  N   UNL     1      35.487  18.221 123.359 -0.25 -0.00    +0.000 N 
DOCKED: ATOM      2  H   UNL     1      35.318  17.861 122.420 -0.00 -0.00    +0.000 HD
DOCKED: ENDROOT
DOCKED: BRANCH   1   3
DOCKED: ATOM      3  C   UNL     1      36.684  17.467 123.815 -0.26 -0.00    +0.000 C 
DOCKED: BRANCH   3   7
DOCKED: ATOM      4  C   UNL     1      36.786  13.348 122.441 -0.45 -0.00    +0.000 A 
DOCKED: ATOM      5  C   UNL     1      36.434  13.652 123.764 -0.47 -0.00    +0.000 A 
DOCKED: ATOM      6  C   UNL     1      36.398  14.977 124.205 -0.21 -0.00    +0.000 A 
DOCKED: ATOM      7  C   UNL     1      36.742  16.028 123.340 -0.31 -0.00    +0.000 A 
DOCKED: ATOM      8  C   UNL     1      37.083  15.728 122.011 -0.25 -0.00    +0.000 A 
DOCKED: ATOM      9  C   UNL     1      37.119  14.402 121.567 -0.30 -0.00    +0.000 A 
DOCKED: ATOM     10  CM  UNL     1      36.760  14.689 122.889 +0.00 -0.00    +0.000 AC
DOCKED: BRANCH   4  11
DOCKED: ATOM     11  C   UNL     1      36.803  10.895 122.883 -0.66 -0.00    +0.000 C 
DOCKED: ATOM     12  C   UNL     1      36.820  11.924 122.024 -0.59 -0.00    +0.000 C 
DOCKED: BRANCH  10  13
DOCKED: ATOM     13  O   UNL     1      36.759   9.208 121.203 -2.65 -0.00    +0.000 OA
DOCKED: ATOM     14  C   UNL     1      36.848   9.491 122.429 -0.67 -0.00    +0.000 C 
DOCKED: ATOM     15  N   UNL     1      36.993   8.441 123.387 -0.69 -0.00    +0.000 N 
DOCKED: ATOM     16  O   UNL     1      37.036   7.148 122.986 -2.03 -0.00    +0.000 OA
DOCKED: ATOM     17  H   UNL     1      37.063   8.658 124.345 -0.51 -0.00    +0.000 HD
DOCKED: ENDBRANCH  10  13
DOCKED: ENDBRANCH   4  11
DOCKED: ENDBRANCH   3   7
DOCKED: ENDBRANCH   1   3
DOCKED: BRANCH   1  17
DOCKED: ATOM     18  C   UNL     1      35.702  19.673 123.159 -0.11 -0.00    +0.000 C 
DOCKED: BRANCH  17  18
DOCKED: ATOM     19  C   UNL     1      36.325  19.969 121.793 -0.08 -0.00    +0.000 C 
DOCKED: BRANCH  18  19
DOCKED: ATOM     20  O   UNL     1      35.634  19.272 120.793 -0.41 -0.00    +0.000 OA
DOCKED: ATOM     21  H   UNL     1      34.766  19.000 121.130 -0.02 -0.00    +0.000 HD
DOCKED: ENDBRANCH  18  19
DOCKED: ENDBRANCH  17  18
DOCKED: ENDBRANCH   1  17
DOCKED: BRANCH   1  21
DOCKED: ATOM     22  C   UNL     1      34.265  17.921 124.142 -0.39 -0.00    +0.000 C 
DOCKED: BRANCH  21  22
DOCKED: ATOM     23  C   UNL     1      34.629  17.228 125.459 -0.38 -0.00    +0.000 C 
DOCKED: BRANCH  22  23
DOCKED: ATOM     24  C   UNL     1      33.513  17.352 126.456 -0.33 -0.00    +0.000 A 
DOCKED: ATOM     25  C   UNL     1      33.035  16.343 127.285 -0.34 -0.00    +0.000 A 
DOCKED: ATOM     26  N   UNL     1      32.119  16.835 128.150 -0.44 -0.00    +0.000 N 
DOCKED: ATOM     27  C   UNL     1      32.026  18.150 127.884 -0.22 -0.00    +0.000 A 
DOCKED: ATOM     28  C   UNL     1      32.865  18.505 126.858 -0.24 -0.00    +0.000 A 
DOCKED: ATOM     29  C   UNL     1      32.972  19.826 126.422 -0.20 -0.00    +0.000 A 
DOCKED: ATOM     30  C   UNL     1      32.185  20.796 127.068 -0.19 -0.00    +0.000 A 
DOCKED: ATOM     31  C   UNL     1      31.321  20.431 128.124 -0.16 -0.00    +0.000 A 
DOCKED: ATOM     32  C   UNL     1      31.238  19.091 128.545 -0.20 -0.00    +0.000 A 
DOCKED: ATOM     33  H   UNL     1      31.621  16.334 128.835 -0.06 -0.00    +0.000 HD
DOCKED: ATOM     34  CM  UNL     1      32.693  17.417 127.353 +0.00 -0.00    +0.000 AC
DOCKED: ATOM     35  CM  UNL     1      32.101  19.466 127.483 +0.00 -0.00    +0.000 AC
DOCKED: ENDBRANCH  22  23
DOCKED: ENDBRANCH  21  22
DOCKED: ENDBRANCH   1  21
DOCKED: TORSDOF 10DOCKED: TER
DOCKED: ENDMDL
________________________________________________________________________________


	BEGINNING GENETIC ALGORITHM DOCKING 9 of 100
Run: 9 Seed: 2076010369 1095883039 [ Run 9 of 100 GA/GALS ]
Beginning LAMARCKIAN GENETIC ALGORITHM (LGA), with a maximum of 2500000 energy evaluations.

Final-Value: -16.431


	FINAL GENETIC ALGORITHM DOCKED STATE
	_______________________________________________


Detailed state:  trans 36.366 18.544 122.799 quatxyzw -0.373968 0.269857 0.765517 -0.448675 center 0.288 0.007 -0.056 ntor 10 -108.5893 -49.4909 5.8719 -55.6597 -112.1837 -178.3766 -59.2665 -51.4318 69.9287 160.0795
State:	 36.366  18.544 122.799  -0.418  0.302  0.857 -126.683   -108.59  -49.49    5.87  -55.66 -112.18 -178.38  -59.27  -51.43   69.93  160.08

DOCKED: MODEL        9
DOCKED: USER    Run = 9
DOCKED: USER    DPF = ligand_dock.biased.dpf
DOCKED: USER  
DOCKED: USER    Estimated Free Energy of Binding    =  -10.97 kcal/mol  [=(1)+(2)+(3)-(4)]
DOCKED: USER    Estimated Inhibition Constant, Ki   =    9.13 nM (nanomolar)  [Temperature = 298.15 K]
DOCKED: USER    
DOCKED: USER    (1) Final Intermolecular Energy     =  -13.95 kcal/mol
DOCKED: USER        vdW + Hbond + desolv Energy     =  -13.95 kcal/mol
DOCKED: USER        Electrostatic Energy            =   +0.00 kcal/mol
DOCKED: USER    (2) Final Total Internal Energy     =   -2.48 kcal/mol
DOCKED: USER    (3) Torsional Free Energy           =   +2.98 kcal/mol
DOCKED: USER    (4) Unbound System's Energy  [=(2)] =   -2.48 kcal/mol
DOCKED: USER    
DOCKED: USER    
DOCKED: USER    NEWDPF move ligand.dum.pdbqt
DOCKED: USER    NEWDPF about 0.288000 0.007000 -0.056000
DOCKED: USER    NEWDPF tran0 36.365508 18.543758 122.799224
DOCKED: USER    NEWDPF quaternion0 -0.373968 0.269857 0.765517 -0.448675
DOCKED: USER    NEWDPF axisangle0 -0.418451 0.301956 0.856575 -126.682541
DOCKED: USER    NEWDPF quat0 -0.418451 0.301956 0.856575 -126.682541
DOCKED: USER    NEWDPF dihe0 -108.59 -49.49 5.87 -55.66 -112.18 -178.38 -59.27 -51.43 69.93 160.08 
DOCKED: USER  keepresnum = 1 
DOCKED: USER  
DOCKED: REMARK  Name = 
DOCKED: REMARK  10 active torsions:
DOCKED: REMARK  status: ('A' for Active; 'I' for Inactive)
DOCKED: REMARK    1  A    between atoms: C_2  and  C_5
DOCKED: REMARK    2  A    between atoms: C_6  and  C_7
DOCKED: REMARK    3  A    between atoms: C_10  and  C_11
DOCKED: REMARK    4  A    between atoms: C_11  and  N_12
DOCKED: REMARK    5  A    between atoms: N_12  and  C_13
DOCKED: REMARK    6  A    between atoms: N_12  and  C_16
DOCKED: REMARK    7  A    between atoms: C_13  and  C_14
DOCKED: REMARK    8  A    between atoms: C_14  and  O_15
DOCKED: REMARK    9  A    between atoms: C_16  and  C_17
DOCKED: REMARK   10  A    between atoms: C_17  and  C_18
DOCKED: REMARK                            x       y       z     vdW  Elec       q    Type
DOCKED: REMARK                         _______ _______ _______ _____ _____    ______ ____
DOCKED: USER                              x       y       z     vdW  Elec       q    Type
DOCKED: USER                           _______ _______ _______ _____ _____    ______ ____
DOCKED: ROOT
DOCKED: ATOM      1  N   UNL     1      37.049  18.052 123.835 -0.18 -0.00    +0.000 N 
DOCKED: ATOM      2  H   UNL     1      37.122  17.244 124.454 -0.02 -0.00    +0.000 HD
DOCKED: ENDROOT
DOCKED: BRANCH   1   3
DOCKED: ATOM      3  C   UNL     1      36.405  17.501 122.615 -0.23 -0.00    +0.000 C 
DOCKED: BRANCH   3   7
DOCKED: ATOM      4  C   UNL     1      36.999  13.247 121.971 -0.43 -0.00    +0.000 A 
DOCKED: ATOM      5  C   UNL     1      36.750  13.748 123.258 -0.49 -0.00    +0.000 A 
DOCKED: ATOM      6  C   UNL     1      36.556  15.116 123.465 -0.39 -0.00    +0.000 A 
DOCKED: ATOM      7  C   UNL     1      36.635  16.019 122.392 -0.26 -0.00    +0.000 A 
DOCKED: ATOM      8  C   UNL     1      36.871  15.519 121.101 -0.17 -0.00    +0.000 A 
DOCKED: ATOM      9  C   UNL     1      37.064  14.150 120.892 -0.26 -0.00    +0.000 A 
DOCKED: ATOM     10  CM  UNL     1      36.812  14.632 122.181 +0.00 -0.00    +0.000 AC
DOCKED: BRANCH   4  11
DOCKED: ATOM     11  C   UNL     1      36.419  10.853 122.354 -0.67 -0.00    +0.000 C 
DOCKED: ATOM     12  C   UNL     1      37.209  11.787 121.806 -0.50 -0.00    +0.000 C 
DOCKED: BRANCH  10  13
DOCKED: ATOM     13  O   UNL     1      36.730   8.905 121.020 -2.62 -0.00    +0.000 OA
DOCKED: ATOM     14  C   UNL     1      36.667   9.409 122.174 -0.71 -0.00    +0.000 C 
DOCKED: ATOM     15  N   UNL     1      36.837   8.571 123.320 -0.67 -0.00    +0.000 N 
DOCKED: ATOM     16  O   UNL     1      37.066   7.245 123.172 -2.24 -0.00    +0.000 OA
DOCKED: ATOM     17  H   UNL     1      36.788   8.961 124.223 -0.48 -0.00    +0.000 HD
DOCKED: ENDBRANCH  10  13
DOCKED: ENDBRANCH   4  11
DOCKED: ENDBRANCH   3   7
DOCKED: ENDBRANCH   1   3
DOCKED: BRANCH   1  17
DOCKED: ATOM     18  C   UNL     1      36.226  19.021 124.595 -0.20 -0.00    +0.000 C 
DOCKED: BRANCH  17  18
DOCKED: ATOM     19  C   UNL     1      35.134  18.319 125.408 -0.29 -0.00    +0.000 C 
DOCKED: BRANCH  18  19
DOCKED: ATOM     20  O   UNL     1      35.286  16.930 125.308 -0.35 -0.00    +0.000 OA
DOCKED: ATOM     21  H   UNL     1      34.501  16.493 125.672 -0.03 -0.00    +0.000 HD
DOCKED: ENDBRANCH  18  19
DOCKED: ENDBRANCH  17  18
DOCKED: ENDBRANCH   1  17
DOCKED: BRANCH   1  21
DOCKED: ATOM     22  C   UNL     1      38.436  18.524 123.610 -0.15 -0.00    +0.000 C 
DOCKED: BRANCH  21  22
DOCKED: ATOM     23  C   UNL     1      39.000  17.932 122.314 -0.12 -0.00    +0.000 C 
DOCKED: BRANCH  22  23
DOCKED: ATOM     24  C   UNL     1      40.232  17.119 122.588 -0.20 -0.00    +0.000 A 
DOCKED: ATOM     25  C   UNL     1      40.298  15.733 122.683 -0.34 -0.00    +0.000 A 
DOCKED: ATOM     26  N   UNL     1      41.583  15.327 122.803 -0.51 -0.00    +0.000 N 
DOCKED: ATOM     27  C   UNL     1      42.330  16.445 122.767 -0.39 -0.00    +0.000 A 
DOCKED: ATOM     28  C   UNL     1      41.541  17.560 122.633 -0.22 -0.00    +0.000 A 
DOCKED: ATOM     29  C   UNL     1      42.090  18.839 122.538 -0.12 -0.00    +0.000 A 
DOCKED: ATOM     30  C   UNL     1      43.491  18.958 122.587 -0.14 -0.00    +0.000 A 
DOCKED: ATOM     31  C   UNL     1      44.302  17.810 122.725 -0.24 -0.00    +0.000 A 
DOCKED: ATOM     32  C   UNL     1      43.721  16.533 122.815 -0.24 -0.00    +0.000 A 
DOCKED: ATOM     33  H   UNL     1      41.907  14.403 122.896 -0.07 -0.00    +0.000 HD
DOCKED: ATOM     34  CM  UNL     1      41.209  16.401 122.698 +0.00 -0.00    +0.000 AC
DOCKED: ATOM     35  CM  UNL     1      42.912  17.691 122.678 +0.00 -0.00    +0.000 AC
DOCKED: ENDBRANCH  22  23
DOCKED: ENDBRANCH  21  22
DOCKED: ENDBRANCH   1  21
DOCKED: TORSDOF 10DOCKED: TER
DOCKED: ENDMDL
________________________________________________________________________________


	BEGINNING GENETIC ALGORITHM DOCKING 10 of 100
Run: 10 Seed: 66863944 1429541681 [ Run 10 of 100 GA/GALS ]
Beginning LAMARCKIAN GENETIC ALGORITHM (LGA), with a maximum of 2500000 energy evaluations.

Final-Value: -16.713


	FINAL GENETIC ALGORITHM DOCKED STATE
	_______________________________________________


Detailed state:  trans 35.773 17.155 123.098 quatxyzw -0.584822 0.268380 0.497173 0.582043 center 0.288 0.007 -0.056 ntor 10 76.3941 -15.9983 6.9969 158.2741 2.7707 131.3270 -131.6793 -157.4400 -160.7065 -22.2364
State:	 35.773  17.155 123.098  -0.719  0.330  0.611 108.811     76.39  -16.00    7.00  158.27    2.77  131.33 -131.68 -157.44 -160.71  -22.24

DOCKED: MODEL       10
DOCKED: USER    Run = 10
DOCKED: USER    DPF = ligand_dock.biased.dpf
DOCKED: USER  
DOCKED: USER    Estimated Free Energy of Binding    =  -11.91 kcal/mol  [=(1)+(2)+(3)-(4)]
DOCKED: USER    Estimated Inhibition Constant, Ki   =    1.87 nM (nanomolar)  [Temperature = 298.15 K]
DOCKED: USER    
DOCKED: USER    (1) Final Intermolecular Energy     =  -14.89 kcal/mol
DOCKED: USER        vdW + Hbond + desolv Energy     =  -14.89 kcal/mol
DOCKED: USER        Electrostatic Energy            =   +0.00 kcal/mol
DOCKED: USER    (2) Final Total Internal Energy     =   -1.82 kcal/mol
DOCKED: USER    (3) Torsional Free Energy           =   +2.98 kcal/mol
DOCKED: USER    (4) Unbound System's Energy  [=(2)] =   -1.82 kcal/mol
DOCKED: USER    
DOCKED: USER    
DOCKED: USER    NEWDPF move ligand.dum.pdbqt
DOCKED: USER    NEWDPF about 0.288000 0.007000 -0.056000
DOCKED: USER    NEWDPF tran0 35.772908 17.154555 123.097744
DOCKED: USER    NEWDPF quaternion0 -0.584822 0.268380 0.497173 0.582043
DOCKED: USER    NEWDPF axisangle0 -0.719199 0.330047 0.611410 108.811222
DOCKED: USER    NEWDPF quat0 -0.719199 0.330047 0.611410 108.811222
DOCKED: USER    NEWDPF dihe0 76.39 -16.00 7.00 158.27 2.77 131.33 -131.68 -157.44 -160.71 -22.24 
DOCKED: USER  keepresnum = 1 
DOCKED: USER  
DOCKED: REMARK  Name = 
DOCKED: REMARK  10 active torsions:
DOCKED: REMARK  status: ('A' for Active; 'I' for Inactive)
DOCKED: REMARK    1  A    between atoms: C_2  and  C_5
DOCKED: REMARK    2  A    between atoms: C_6  and  C_7
DOCKED: REMARK    3  A    between atoms: C_10  and  C_11
DOCKED: REMARK    4  A    between atoms: C_11  and  N_12
DOCKED: REMARK    5  A    between atoms: N_12  and  C_13
DOCKED: REMARK    6  A    between atoms: N_12  and  C_16
DOCKED: REMARK    7  A    between atoms: C_13  and  C_14
DOCKED: REMARK    8  A    between atoms: C_14  and  O_15
DOCKED: REMARK    9  A    between atoms: C_16  and  C_17
DOCKED: REMARK   10  A    between atoms: C_17  and  C_18
DOCKED: REMARK                            x       y       z     vdW  Elec       q    Type
DOCKED: REMARK                         _______ _______ _______ _____ _____    ______ ____
DOCKED: USER                              x       y       z     vdW  Elec       q    Type
DOCKED: USER                           _______ _______ _______ _____ _____    ______ ____
DOCKED: ROOT
DOCKED: ATOM      1  N   UNL     1      35.221  18.369 123.159 -0.27 -0.00    +0.000 N 
DOCKED: ATOM      2  H   UNL     1      35.225  19.240 123.689 -0.01 -0.00    +0.000 HD
DOCKED: ENDROOT
DOCKED: BRANCH   1   3
DOCKED: ATOM      3  C   UNL     1      36.556  17.780 123.442 -0.23 -0.00    +0.000 C 
DOCKED: BRANCH   3   7
DOCKED: ATOM      4  C   UNL     1      36.647  13.444 123.209 -0.52 -0.00    +0.000 A 
DOCKED: ATOM      5  C   UNL     1      35.888  14.092 124.195 -0.41 -0.00    +0.000 A 
DOCKED: ATOM      6  C   UNL     1      35.857  15.487 124.269 -0.33 -0.00    +0.000 A 
DOCKED: ATOM      7  C   UNL     1      36.607  16.266 123.374 -0.30 -0.00    +0.000 A 
DOCKED: ATOM      8  C   UNL     1      37.357  15.621 122.377 -0.28 -0.00    +0.000 A 
DOCKED: ATOM      9  C   UNL     1      37.389  14.226 122.301 -0.40 -0.00    +0.000 A 
DOCKED: ATOM     10  CM  UNL     1      36.624  14.856 123.288 +0.00 -0.00    +0.000 AC
DOCKED: BRANCH   4  11
DOCKED: ATOM     11  C   UNL     1      37.039  11.238 122.117 -0.56 -0.00    +0.000 C 
DOCKED: ATOM     12  C   UNL     1      36.656  11.960 123.180 -0.68 -0.00    +0.000 C 
DOCKED: BRANCH  10  13
DOCKED: ATOM     13  O   UNL     1      36.963   9.113 121.044 -2.69 -0.00    +0.000 OA
DOCKED: ATOM     14  C   UNL     1      37.025   9.762 122.124 -0.60 -0.00    +0.000 C 
DOCKED: ATOM     15  N   UNL     1      37.079   9.058 123.367 -0.60 -0.00    +0.000 N 
DOCKED: ATOM     16  O   UNL     1      37.066   7.704 123.391 -2.66 -0.00    +0.000 OA
DOCKED: ATOM     17  H   UNL     1      37.126   9.562 124.213 -0.59 -0.00    +0.000 HD
DOCKED: ENDBRANCH  10  13
DOCKED: ENDBRANCH   4  11
DOCKED: ENDBRANCH   3   7
DOCKED: ENDBRANCH   1   3
DOCKED: BRANCH   1  17
DOCKED: ATOM     18  C   UNL     1      34.074  17.612 123.709 -0.40 -0.00    +0.000 C 
DOCKED: BRANCH  17  18
DOCKED: ATOM     19  C   UNL     1      33.907  17.853 125.212 -0.39 -0.00    +0.000 C 
DOCKED: BRANCH  18  19
DOCKED: ATOM     20  O   UNL     1      34.168  19.197 125.510 -0.29 -0.00    +0.000 OA
DOCKED: ATOM     21  H   UNL     1      34.143  19.719 124.694 -0.01 -0.00    +0.000 HD
DOCKED: ENDBRANCH  18  19
DOCKED: ENDBRANCH  17  18
DOCKED: ENDBRANCH   1  17
DOCKED: BRANCH   1  21
DOCKED: ATOM     22  C   UNL     1      35.033  18.752 121.740 -0.19 -0.00    +0.000 C 
DOCKED: BRANCH  21  22
DOCKED: ATOM     23  C   UNL     1      33.997  17.842 121.071 -0.32 -0.00    +0.000 C 
DOCKED: BRANCH  22  23
DOCKED: ATOM     24  C   UNL     1      33.568  18.400 119.745 -0.28 -0.00    +0.000 A 
DOCKED: ATOM     25  C   UNL     1      34.408  18.834 118.725 -0.18 -0.00    +0.000 A 
DOCKED: ATOM     26  N   UNL     1      33.691  19.148 117.623 -0.11 -0.00    +0.000 N 
DOCKED: ATOM     27  C   UNL     1      32.407  18.901 117.933 -0.18 -0.00    +0.000 A 
DOCKED: ATOM     28  C   UNL     1      32.291  18.439 119.219 -0.34 -0.00    +0.000 A 
DOCKED: ATOM     29  C   UNL     1      31.056  18.079 119.761 -0.38 -0.00    +0.000 A 
DOCKED: ATOM     30  C   UNL     1      29.918  18.207 118.943 -0.36 -0.00    +0.000 A 
DOCKED: ATOM     31  C   UNL     1      30.037  18.683 117.619 -0.19 -0.00    +0.000 A 
DOCKED: ATOM     32  C   UNL     1      31.296  19.034 117.099 -0.12 -0.00    +0.000 A 
DOCKED: ATOM     33  H   UNL     1      34.038  19.489 116.767 +0.00 -0.00    +0.000 HD
DOCKED: ATOM     34  CM  UNL     1      33.287  18.757 118.616 +0.00 -0.00    +0.000 AC
DOCKED: ATOM     35  CM  UNL     1      31.168  18.557 118.429 +0.00 -0.00    +0.000 AC
DOCKED: ENDBRANCH  22  23
DOCKED: ENDBRANCH  21  22
DOCKED: ENDBRANCH   1  21
DOCKED: TORSDOF 10DOCKED: TER
DOCKED: ENDMDL
________________________________________________________________________________


	BEGINNING GENETIC ALGORITHM DOCKING 11 of 100
Run: 11 Seed: 883009049 2018518312 [ Run 11 of 100 GA/GALS ]
Beginning LAMARCKIAN GENETIC ALGORITHM (LGA), with a maximum of 2500000 energy evaluations.

Final-Value: -15.747


	FINAL GENETIC ALGORITHM DOCKED STATE
	_______________________________________________


Detailed state:  trans 38.605 16.487 122.124 quatxyzw -0.727465 -0.360292 -0.582952 0.033939 center 0.288 0.007 -0.056 ntor 10 -57.5659 9.8469 -54.8001 165.4198 -90.5166 27.0890 -42.7957 -75.3968 137.8713 178.3414
State:	 38.605  16.487 122.124  -0.728 -0.360 -0.583 176.110    -57.57    9.85  -54.80  165.42  -90.52   27.09  -42.80  -75.40  137.87  178.34

DOCKED: MODEL       11
DOCKED: USER    Run = 11
DOCKED: USER    DPF = ligand_dock.biased.dpf
DOCKED: USER  
DOCKED: USER    Estimated Free Energy of Binding    =  -10.54 kcal/mol  [=(1)+(2)+(3)-(4)]
DOCKED: USER    Estimated Inhibition Constant, Ki   =   18.78 nM (nanomolar)  [Temperature = 298.15 K]
DOCKED: USER    
DOCKED: USER    (1) Final Intermolecular Energy     =  -13.52 kcal/mol
DOCKED: USER        vdW + Hbond + desolv Energy     =  -13.52 kcal/mol
DOCKED: USER        Electrostatic Energy            =   +0.00 kcal/mol
DOCKED: USER    (2) Final Total Internal Energy     =   -2.22 kcal/mol
DOCKED: USER    (3) Torsional Free Energy           =   +2.98 kcal/mol
DOCKED: USER    (4) Unbound System's Energy  [=(2)] =   -2.22 kcal/mol
DOCKED: USER    
DOCKED: USER    
DOCKED: USER    NEWDPF move ligand.dum.pdbqt
DOCKED: USER    NEWDPF about 0.288000 0.007000 -0.056000
DOCKED: USER    NEWDPF tran0 38.605294 16.487069 122.123579
DOCKED: USER    NEWDPF quaternion0 -0.727465 -0.360292 -0.582952 0.033939
DOCKED: USER    NEWDPF axisangle0 -0.727884 -0.360500 -0.583288 176.110133
DOCKED: USER    NEWDPF quat0 -0.727884 -0.360500 -0.583288 176.110133
DOCKED: USER    NEWDPF dihe0 -57.57 9.85 -54.80 165.42 -90.52 27.09 -42.80 -75.40 137.87 178.34 
DOCKED: USER  keepresnum = 1 
DOCKED: USER  
DOCKED: REMARK  Name = 
DOCKED: REMARK  10 active torsions:
DOCKED: REMARK  status: ('A' for Active; 'I' for Inactive)
DOCKED: REMARK    1  A    between atoms: C_2  and  C_5
DOCKED: REMARK    2  A    between atoms: C_6  and  C_7
DOCKED: REMARK    3  A    between atoms: C_10  and  C_11
DOCKED: REMARK    4  A    between atoms: C_11  and  N_12
DOCKED: REMARK    5  A    between atoms: N_12  and  C_13
DOCKED: REMARK    6  A    between atoms: N_12  and  C_16
DOCKED: REMARK    7  A    between atoms: C_13  and  C_14
DOCKED: REMARK    8  A    between atoms: C_14  and  O_15
DOCKED: REMARK    9  A    between atoms: C_16  and  C_17
DOCKED: REMARK   10  A    between atoms: C_17  and  C_18
DOCKED: REMARK                            x       y       z     vdW  Elec       q    Type
DOCKED: REMARK                         _______ _______ _______ _____ _____    ______ ____
DOCKED: USER                              x       y       z     vdW  Elec       q    Type
DOCKED: USER                           _______ _______ _______ _____ _____    ______ ____
DOCKED: ROOT
DOCKED: ATOM      1  N   UNL     1      38.379  15.980 120.909 -0.16 -0.00    +0.000 N 
DOCKED: ATOM      2  H   UNL     1      38.254  15.104 120.402 -0.00 -0.00    +0.000 HD
DOCKED: ENDROOT
DOCKED: BRANCH   1   3
DOCKED: ATOM      3  C   UNL     1      38.002  15.635 122.305 -0.31 -0.00    +0.000 C 
DOCKED: BRANCH   3   7
DOCKED: ATOM      4  C   UNL     1      36.361  11.646 122.818 -0.60 -0.00    +0.000 A 
DOCKED: ATOM      5  C   UNL     1      37.068  11.985 121.655 -0.50 -0.00    +0.000 A 
DOCKED: ATOM      6  C   UNL     1      37.598  13.267 121.490 -0.42 -0.00    +0.000 A 
DOCKED: ATOM      7  C   UNL     1      37.409  14.249 122.475 -0.41 -0.00    +0.000 A 
DOCKED: ATOM      8  C   UNL     1      36.713  13.910 123.647 -0.43 -0.00    +0.000 A 
DOCKED: ATOM      9  C   UNL     1      36.183  12.627 123.814 -0.56 -0.00    +0.000 A 
DOCKED: ATOM     10  CM  UNL     1      36.889  12.947 122.649 +0.00 -0.00    +0.000 AC
DOCKED: BRANCH   4  11
DOCKED: ATOM     11  C   UNL     1      36.563   9.176 123.082 -0.69 -0.00    +0.000 C 
DOCKED: ATOM     12  C   UNL     1      35.807  10.274 122.940 -0.67 -0.00    +0.000 C 
DOCKED: BRANCH  10  13
DOCKED: ATOM     13  O   UNL     1      36.687   6.798 123.024 -1.61 -0.00    +0.000 OA
DOCKED: ATOM     14  C   UNL     1      35.974   7.826 123.189 -0.75 -0.00    +0.000 C 
DOCKED: ATOM     15  N   UNL     1      34.583   7.681 123.481 -0.66 -0.00    +0.000 N 
DOCKED: ATOM     16  O   UNL     1      34.027   6.450 123.583 -0.85 -0.00    +0.000 OA
DOCKED: ATOM     17  H   UNL     1      34.023   8.482 123.610 -0.21 -0.00    +0.000 HD
DOCKED: ENDBRANCH  10  13
DOCKED: ENDBRANCH   4  11
DOCKED: ENDBRANCH   3   7
DOCKED: ENDBRANCH   1   3
DOCKED: BRANCH   1  17
DOCKED: ATOM     18  C   UNL     1      39.809  16.314 120.712 -0.18 -0.00    +0.000 C 
DOCKED: BRANCH  17  18
DOCKED: ATOM     19  C   UNL     1      40.663  15.865 121.901 -0.34 -0.00    +0.000 C 
DOCKED: BRANCH  18  19
DOCKED: ATOM     20  O   UNL     1      40.643  14.468 122.000 -1.08 -0.00    +0.000 OA
DOCKED: ATOM     21  H   UNL     1      40.246  14.209 122.846 -0.04 +0.00    +0.000 HD
DOCKED: ENDBRANCH  18  19
DOCKED: ENDBRANCH  17  18
DOCKED: ENDBRANCH   1  17
DOCKED: BRANCH   1  21
DOCKED: ATOM     22  C   UNL     1      37.465  16.957 120.274 -0.13 -0.00    +0.000 C 
DOCKED: BRANCH  21  22
DOCKED: ATOM     23  C   UNL     1      37.256  18.169 121.188 -0.12 -0.00    +0.000 C 
DOCKED: BRANCH  22  23
DOCKED: ATOM     24  C   UNL     1      35.913  18.111 121.857 -0.21 -0.00    +0.000 A 
DOCKED: ATOM     25  C   UNL     1      34.683  17.977 121.224 -0.30 -0.00    +0.000 A 
DOCKED: ATOM     26  N   UNL     1      33.695  17.823 122.134 -0.40 -0.00    +0.000 N 
DOCKED: ATOM     27  C   UNL     1      34.294  17.843 123.338 -0.34 -0.00    +0.000 A 
DOCKED: ATOM     28  C   UNL     1      35.649  18.013 123.211 -0.25 -0.00    +0.000 A 
DOCKED: ATOM     29  C   UNL     1      36.493  18.032 124.322 -0.21 -0.00    +0.000 A 
DOCKED: ATOM     30  C   UNL     1      35.911  17.873 125.592 -0.09 -0.00    +0.000 A 
DOCKED: ATOM     31  C   UNL     1      34.516  17.698 125.723 -0.32 -0.00    +0.000 A 
DOCKED: ATOM     32  C   UNL     1      33.690  17.679 124.584 -0.27 -0.00    +0.000 A 
DOCKED: ATOM     33  H   UNL     1      32.733  17.718 121.954 -0.04 -0.00    +0.000 HD
DOCKED: ATOM     34  CM  UNL     1      34.810  17.949 122.346 -0.00 -0.00    +0.000 AC
DOCKED: ATOM     35  CM  UNL     1      35.092  17.857 124.461 -0.37 -0.00    +0.000 AC
DOCKED: ENDBRANCH  22  23
DOCKED: ENDBRANCH  21  22
DOCKED: ENDBRANCH   1  21
DOCKED: TORSDOF 10DOCKED: TER
DOCKED: ENDMDL
________________________________________________________________________________


	BEGINNING GENETIC ALGORITHM DOCKING 12 of 100
Run: 12 Seed: 1517503524 1713659378 [ Run 12 of 100 GA/GALS ]
Beginning LAMARCKIAN GENETIC ALGORITHM (LGA), with a maximum of 2500000 energy evaluations.

Final-Value: -16.573


	FINAL GENETIC ALGORITHM DOCKED STATE
	_______________________________________________


Detailed state:  trans 36.057 18.530 123.366 quatxyzw -0.037270 0.415300 0.878912 -0.231625 center 0.288 0.007 -0.056 ntor 10 -3.2826 -45.9896 59.6862 180.0000 158.7135 -29.2187 -56.3739 -152.6050 48.3460 176.7787
State:	 36.057  18.530 123.366  -0.038  0.427  0.903 -153.214     -3.28  -45.99   59.69  180.00  158.71  -29.22  -56.37 -152.61   48.35  176.78

DOCKED: MODEL       12
DOCKED: USER    Run = 12
DOCKED: USER    DPF = ligand_dock.biased.dpf
DOCKED: USER  
DOCKED: USER    Estimated Free Energy of Binding    =  -10.73 kcal/mol  [=(1)+(2)+(3)-(4)]
DOCKED: USER    Estimated Inhibition Constant, Ki   =   13.60 nM (nanomolar)  [Temperature = 298.15 K]
DOCKED: USER    
DOCKED: USER    (1) Final Intermolecular Energy     =  -13.71 kcal/mol
DOCKED: USER        vdW + Hbond + desolv Energy     =  -13.71 kcal/mol
DOCKED: USER        Electrostatic Energy            =   +0.00 kcal/mol
DOCKED: USER    (2) Final Total Internal Energy     =   -2.86 kcal/mol
DOCKED: USER    (3) Torsional Free Energy           =   +2.98 kcal/mol
DOCKED: USER    (4) Unbound System's Energy  [=(2)] =   -2.86 kcal/mol
DOCKED: USER    
DOCKED: USER    
DOCKED: USER    NEWDPF move ligand.dum.pdbqt
DOCKED: USER    NEWDPF about 0.288000 0.007000 -0.056000
DOCKED: USER    NEWDPF tran0 36.056549 18.530125 123.366105
DOCKED: USER    NEWDPF quaternion0 -0.037270 0.415300 0.878912 -0.231625
DOCKED: USER    NEWDPF axisangle0 -0.038312 0.426910 0.903482 -153.214423
DOCKED: USER    NEWDPF quat0 -0.038312 0.426910 0.903482 -153.214423
DOCKED: USER    NEWDPF dihe0 -3.28 -45.99 59.69 180.00 158.71 -29.22 -56.37 -152.61 48.35 176.78 
DOCKED: USER  keepresnum = 1 
DOCKED: USER  
DOCKED: REMARK  Name = 
DOCKED: REMARK  10 active torsions:
DOCKED: REMARK  status: ('A' for Active; 'I' for Inactive)
DOCKED: REMARK    1  A    between atoms: C_2  and  C_5
DOCKED: REMARK    2  A    between atoms: C_6  and  C_7
DOCKED: REMARK    3  A    between atoms: C_10  and  C_11
DOCKED: REMARK    4  A    between atoms: C_11  and  N_12
DOCKED: REMARK    5  A    between atoms: N_12  and  C_13
DOCKED: REMARK    6  A    between atoms: N_12  and  C_16
DOCKED: REMARK    7  A    between atoms: C_13  and  C_14
DOCKED: REMARK    8  A    between atoms: C_14  and  O_15
DOCKED: REMARK    9  A    between atoms: C_16  and  C_17
DOCKED: REMARK   10  A    between atoms: C_17  and  C_18
DOCKED: REMARK                            x       y       z     vdW  Elec       q    Type
DOCKED: REMARK                         _______ _______ _______ _____ _____    ______ ____
DOCKED: USER                              x       y       z     vdW  Elec       q    Type
DOCKED: USER                           _______ _______ _______ _____ _____    ______ ____
DOCKED: ROOT
DOCKED: ATOM      1  N   UNL     1      37.347  18.209 123.485 -0.15 -0.00    +0.000 N 
DOCKED: ATOM      2  H   UNL     1      37.978  17.469 123.792 -0.01 -0.00    +0.000 HD
DOCKED: ENDROOT
DOCKED: BRANCH   1   3
DOCKED: ATOM      3  C   UNL     1      36.085  17.488 123.175 -0.28 -0.00    +0.000 C 
DOCKED: BRANCH   3   7
DOCKED: ATOM      4  C   UNL     1      36.468  13.163 123.250 -0.54 -0.00    +0.000 A 
DOCKED: ATOM      5  C   UNL     1      37.228  13.932 122.357 -0.42 -0.00    +0.000 A 
DOCKED: ATOM      6  C   UNL     1      37.107  15.324 122.334 -0.30 -0.00    +0.000 A 
DOCKED: ATOM      7  C   UNL     1      36.201  15.976 123.186 -0.34 -0.00    +0.000 A 
DOCKED: ATOM      8  C   UNL     1      35.449  15.209 124.090 -0.47 -0.00    +0.000 A 
DOCKED: ATOM      9  C   UNL     1      35.569  13.816 124.115 -0.33 -0.00    +0.000 A 
DOCKED: ATOM     10  CM  UNL     1      36.338  14.570 123.222 +0.00 -0.00    +0.000 AC
DOCKED: BRANCH   4  11
DOCKED: ATOM     11  C   UNL     1      36.718  10.964 122.101 -0.62 -0.00    +0.000 C 
DOCKED: ATOM     12  C   UNL     1      36.625  11.686 123.227 -0.69 -0.00    +0.000 C 
DOCKED: BRANCH  10  13
DOCKED: ATOM     13  O   UNL     1      36.924   8.841 121.043 -2.67 -0.00    +0.000 OA
DOCKED: ATOM     14  C   UNL     1      36.863   9.495 122.120 -0.66 -0.00    +0.000 C 
DOCKED: ATOM     15  N   UNL     1      36.934   8.806 123.370 -0.63 -0.00    +0.000 N 
DOCKED: ATOM     16  O   UNL     1      37.067   7.459 123.404 -2.49 -0.00    +0.000 OA
DOCKED: ATOM     17  H   UNL     1      36.887   9.314 124.212 -0.53 -0.00    +0.000 HD
DOCKED: ENDBRANCH  10  13
DOCKED: ENDBRANCH   4  11
DOCKED: ENDBRANCH   3   7
DOCKED: ENDBRANCH   1   3
DOCKED: BRANCH   1  17
DOCKED: ATOM     18  C   UNL     1      37.274  19.130 124.642 -0.16 -0.00    +0.000 C 
DOCKED: BRANCH  17  18
DOCKED: ATOM     19  C   UNL     1      38.427  18.897 125.623 -0.18 -0.00    +0.000 C 
DOCKED: BRANCH  18  19
DOCKED: ATOM     20  O   UNL     1      39.356  18.011 125.062 -0.28 -0.00    +0.000 OA
DOCKED: ATOM     21  H   UNL     1      38.937  17.148 124.924 -0.03 -0.00    +0.000 HD
DOCKED: ENDBRANCH  18  19
DOCKED: ENDBRANCH  17  18
DOCKED: ENDBRANCH   1  17
DOCKED: BRANCH   1  21
DOCKED: ATOM     22  C   UNL     1      37.983  18.825 122.296 -0.10 -0.00    +0.000 C 
DOCKED: BRANCH  21  22
DOCKED: ATOM     23  C   UNL     1      37.866  17.896 121.083 -0.09 -0.00    +0.000 C 
DOCKED: BRANCH  22  23
DOCKED: ATOM     24  C   UNL     1      39.223  17.472 120.600 -0.07 -0.00    +0.000 A 
DOCKED: ATOM     25  C   UNL     1      39.829  17.856 119.408 -0.04 -0.00    +0.000 A 
DOCKED: ATOM     26  N   UNL     1      41.100  17.398 119.355 -0.07 -0.00    +0.000 N 
DOCKED: ATOM     27  C   UNL     1      41.307  16.740 120.509 -0.14 -0.00    +0.000 A 
DOCKED: ATOM     28  C   UNL     1      40.185  16.767 121.298 -0.15 -0.00    +0.000 A 
DOCKED: ATOM     29  C   UNL     1      40.164  16.179 122.564 -0.29 -0.00    +0.000 A 
DOCKED: ATOM     30  C   UNL     1      41.339  15.549 123.014 -0.39 -0.00    +0.000 A 
DOCKED: ATOM     31  C   UNL     1      42.493  15.522 122.202 -0.36 -0.00    +0.000 A 
DOCKED: ATOM     32  C   UNL     1      42.485  16.126 120.932 -0.23 -0.00    +0.000 A 
DOCKED: ATOM     33  H   UNL     1      41.744  17.520 118.620 +0.00 -0.00    +0.000 HD
DOCKED: ATOM     34  CM  UNL     1      40.354  17.252 120.206 +0.00 -0.00    +0.000 AC
DOCKED: ATOM     35  CM  UNL     1      41.328  16.147 121.753 +0.00 -0.00    +0.000 AC
DOCKED: ENDBRANCH  22  23
DOCKED: ENDBRANCH  21  22
DOCKED: ENDBRANCH   1  21
DOCKED: TORSDOF 10DOCKED: TER
DOCKED: ENDMDL
________________________________________________________________________________


	BEGINNING GENETIC ALGORITHM DOCKING 13 of 100
Run: 13 Seed: 637866543 214393064 [ Run 13 of 100 GA/GALS ]
Beginning LAMARCKIAN GENETIC ALGORITHM (LGA), with a maximum of 2500000 energy evaluations.

Final-Value: -17.578


	FINAL GENETIC ALGORITHM DOCKED STATE
	_______________________________________________


Detailed state:  trans 35.629 18.733 122.598 quatxyzw -0.166723 0.557200 0.767233 -0.270344 center 0.288 0.007 -0.056 ntor 10 120.7558 -39.2333 15.2646 177.2756 171.4370 -58.1113 150.6515 -160.5570 -87.9798 152.2099
State:	 35.629  18.733 122.598  -0.173  0.579  0.797 -148.631    120.76  -39.23   15.26  177.28  171.44  -58.11  150.65 -160.56  -87.98  152.21

DOCKED: MODEL       13
DOCKED: USER    Run = 13
DOCKED: USER    DPF = ligand_dock.biased.dpf
DOCKED: USER  
DOCKED: USER    Estimated Free Energy of Binding    =  -11.53 kcal/mol  [=(1)+(2)+(3)-(4)]
DOCKED: USER    Estimated Inhibition Constant, Ki   =    3.51 nM (nanomolar)  [Temperature = 298.15 K]
DOCKED: USER    
DOCKED: USER    (1) Final Intermolecular Energy     =  -14.52 kcal/mol
DOCKED: USER        vdW + Hbond + desolv Energy     =  -14.52 kcal/mol
DOCKED: USER        Electrostatic Energy            =   +0.00 kcal/mol
DOCKED: USER    (2) Final Total Internal Energy     =   -3.06 kcal/mol
DOCKED: USER    (3) Torsional Free Energy           =   +2.98 kcal/mol
DOCKED: USER    (4) Unbound System's Energy  [=(2)] =   -3.06 kcal/mol
DOCKED: USER    
DOCKED: USER    
DOCKED: USER    NEWDPF move ligand.dum.pdbqt
DOCKED: USER    NEWDPF about 0.288000 0.007000 -0.056000
DOCKED: USER    NEWDPF tran0 35.629359 18.733459 122.597607
DOCKED: USER    NEWDPF quaternion0 -0.166723 0.557200 0.767233 -0.270344
DOCKED: USER    NEWDPF axisangle0 -0.173171 0.578750 0.796906 -148.630534
DOCKED: USER    NEWDPF quat0 -0.173171 0.578750 0.796906 -148.630534
DOCKED: USER    NEWDPF dihe0 120.76 -39.23 15.26 177.28 171.44 -58.11 150.65 -160.56 -87.98 152.21 
DOCKED: USER  keepresnum = 1 
DOCKED: USER  
DOCKED: REMARK  Name = 
DOCKED: REMARK  10 active torsions:
DOCKED: REMARK  status: ('A' for Active; 'I' for Inactive)
DOCKED: REMARK    1  A    between atoms: C_2  and  C_5
DOCKED: REMARK    2  A    between atoms: C_6  and  C_7
DOCKED: REMARK    3  A    between atoms: C_10  and  C_11
DOCKED: REMARK    4  A    between atoms: C_11  and  N_12
DOCKED: REMARK    5  A    between atoms: N_12  and  C_13
DOCKED: REMARK    6  A    between atoms: N_12  and  C_16
DOCKED: REMARK    7  A    between atoms: C_13  and  C_14
DOCKED: REMARK    8  A    between atoms: C_14  and  O_15
DOCKED: REMARK    9  A    between atoms: C_16  and  C_17
DOCKED: REMARK   10  A    between atoms: C_17  and  C_18
DOCKED: REMARK                            x       y       z     vdW  Elec       q    Type
DOCKED: REMARK                         _______ _______ _______ _____ _____    ______ ____
DOCKED: USER                              x       y       z     vdW  Elec       q    Type
DOCKED: USER                           _______ _______ _______ _____ _____    ______ ____
DOCKED: ROOT
DOCKED: ATOM      1  N   UNL     1      36.850  18.508 123.089 -0.14 -0.00    +0.000 N 
DOCKED: ATOM      2  H   UNL     1      37.362  17.958 123.779 -0.00 -0.00    +0.000 HD
DOCKED: ENDROOT
DOCKED: BRANCH   1   3
DOCKED: ATOM      3  C   UNL     1      35.629  17.700 122.834 -0.29 -0.00    +0.000 C 
DOCKED: BRANCH   3   7
DOCKED: ATOM      4  C   UNL     1      36.277  13.413 123.085 -0.49 -0.00    +0.000 A 
DOCKED: ATOM      5  C   UNL     1      36.844  14.162 122.044 -0.31 -0.00    +0.000 A 
DOCKED: ATOM      6  C   UNL     1      36.638  15.542 121.964 -0.22 -0.00    +0.000 A 
DOCKED: ATOM      7  C   UNL     1      35.836  16.200 122.910 -0.32 -0.00    +0.000 A 
DOCKED: ATOM      8  C   UNL     1      35.277  15.455 123.961 -0.48 -0.00    +0.000 A 
DOCKED: ATOM      9  C   UNL     1      35.483  14.074 124.043 -0.39 -0.00    +0.000 A 
DOCKED: ATOM     10  CM  UNL     1      36.060  14.807 123.001 +0.00 -0.00    +0.000 AC
DOCKED: BRANCH   4  11
DOCKED: ATOM     11  C   UNL     1      36.723  11.202 122.024 -0.62 -0.00    +0.000 C 
DOCKED: ATOM     12  C   UNL     1      36.516  11.948 123.119 -0.68 -0.00    +0.000 C 
DOCKED: BRANCH  10  13
DOCKED: ATOM     13  O   UNL     1      37.064   9.057 121.047 -2.72 -0.00    +0.000 OA
DOCKED: ATOM     14  C   UNL     1      36.947   9.745 122.099 -0.62 -0.00    +0.000 C 
DOCKED: ATOM     15  N   UNL     1      37.032   9.105 123.374 -0.59 -0.00    +0.000 N 
DOCKED: ATOM     16  O   UNL     1      37.237   7.769 123.459 -2.63 -0.00    +0.000 OA
DOCKED: ATOM     17  H   UNL     1      36.941   9.638 124.197 -0.55 -0.00    +0.000 HD
DOCKED: ENDBRANCH  10  13
DOCKED: ENDBRANCH   4  11
DOCKED: ENDBRANCH   3   7
DOCKED: ENDBRANCH   1   3
DOCKED: BRANCH   1  17
DOCKED: ATOM     18  C   UNL     1      36.613  19.807 123.760 -0.17 -0.00    +0.000 C 
DOCKED: BRANCH  17  18
DOCKED: ATOM     19  C   UNL     1      36.570  19.656 125.283 -0.16 -0.00    +0.000 C 
DOCKED: BRANCH  18  19
DOCKED: ATOM     20  O   UNL     1      37.110  18.418 125.654 -0.21 -0.00    +0.000 OA
DOCKED: ATOM     21  H   UNL     1      38.033  18.367 125.360 -0.01 -0.00    +0.000 HD
DOCKED: ENDBRANCH  18  19
DOCKED: ENDBRANCH  17  18
DOCKED: ENDBRANCH   1  17
DOCKED: BRANCH   1  21
DOCKED: ATOM     22  C   UNL     1      37.741  18.621 121.910 -0.10 -0.00    +0.000 C 
DOCKED: BRANCH  21  22
DOCKED: ATOM     23  C   UNL     1      39.024  19.374 122.277 -0.06 -0.00    +0.000 C 
DOCKED: BRANCH  22  23
DOCKED: ATOM     24  C   UNL     1      40.082  18.426 122.762 -0.11 -0.00    +0.000 A 
DOCKED: ATOM     25  C   UNL     1      40.956  18.641 123.822 -0.19 -0.00    +0.000 A 
DOCKED: ATOM     26  N   UNL     1      41.683  17.528 124.069 -0.35 -0.00    +0.000 N 
DOCKED: ATOM     27  C   UNL     1      41.265  16.607 123.184 -0.33 -0.00    +0.000 A 
DOCKED: ATOM     28  C   UNL     1      40.285  17.115 122.370 -0.18 -0.00    +0.000 A 
DOCKED: ATOM     29  C   UNL     1      39.667  16.337 121.390 -0.18 -0.00    +0.000 A 
DOCKED: ATOM     30  C   UNL     1      40.083  15.000 121.256 -0.24 -0.00    +0.000 A 
DOCKED: ATOM     31  C   UNL     1      41.092  14.476 122.093 -0.19 -0.00    +0.000 A 
DOCKED: ATOM     32  C   UNL     1      41.694  15.284 123.074 -0.41 +0.00    +0.000 A 
DOCKED: ATOM     33  H   UNL     1      42.378  17.414 124.757 -0.58 -0.00    +0.000 HD
DOCKED: ATOM     34  CM  UNL     1      40.880  17.659 123.268 +0.00 -0.00    +0.000 AC
DOCKED: ATOM     35  CM  UNL     1      40.681  15.804 122.228 +0.00 -0.00    +0.000 AC
DOCKED: ENDBRANCH  22  23
DOCKED: ENDBRANCH  21  22
DOCKED: ENDBRANCH   1  21
DOCKED: TORSDOF 10DOCKED: TER
DOCKED: ENDMDL
________________________________________________________________________________


	BEGINNING GENETIC ALGORITHM DOCKING 14 of 100
Run: 14 Seed: 542232788 1655263908 [ Run 14 of 100 GA/GALS ]
Beginning LAMARCKIAN GENETIC ALGORITHM (LGA), with a maximum of 2500000 energy evaluations.

Final-Value: -17.042


	FINAL GENETIC ALGORITHM DOCKED STATE
	_______________________________________________


Detailed state:  trans 36.189 18.493 123.372 quatxyzw -0.608866 0.092058 0.656944 -0.435009 center 0.288 0.007 -0.056 ntor 10 178.1888 -91.9443 45.2589 176.2701 157.4643 12.8672 -120.1582 124.5706 45.1575 -177.4395
State:	 36.189  18.493 123.372  -0.676  0.102  0.730 -128.428    178.19  -91.94   45.26  176.27  157.46   12.87 -120.16  124.57   45.16 -177.44

DOCKED: MODEL       14
DOCKED: USER    Run = 14
DOCKED: USER    DPF = ligand_dock.biased.dpf
DOCKED: USER  
DOCKED: USER    Estimated Free Energy of Binding    =  -11.98 kcal/mol  [=(1)+(2)+(3)-(4)]
DOCKED: USER    Estimated Inhibition Constant, Ki   =    1.66 nM (nanomolar)  [Temperature = 298.15 K]
DOCKED: USER    
DOCKED: USER    (1) Final Intermolecular Energy     =  -14.96 kcal/mol
DOCKED: USER        vdW + Hbond + desolv Energy     =  -14.96 kcal/mol
DOCKED: USER        Electrostatic Energy            =   +0.00 kcal/mol
DOCKED: USER    (2) Final Total Internal Energy     =   -2.08 kcal/mol
DOCKED: USER    (3) Torsional Free Energy           =   +2.98 kcal/mol
DOCKED: USER    (4) Unbound System's Energy  [=(2)] =   -2.08 kcal/mol
DOCKED: USER    
DOCKED: USER    
DOCKED: USER    NEWDPF move ligand.dum.pdbqt
DOCKED: USER    NEWDPF about 0.288000 0.007000 -0.056000
DOCKED: USER    NEWDPF tran0 36.188961 18.492560 123.372370
DOCKED: USER    NEWDPF quaternion0 -0.608866 0.092058 0.656944 -0.435009
DOCKED: USER    NEWDPF axisangle0 -0.676197 0.102239 0.729592 -128.428265
DOCKED: USER    NEWDPF quat0 -0.676197 0.102239 0.729592 -128.428265
DOCKED: USER    NEWDPF dihe0 178.19 -91.94 45.26 176.27 157.46 12.87 -120.16 124.57 45.16 -177.44 
DOCKED: USER  keepresnum = 1 
DOCKED: USER  
DOCKED: REMARK  Name = 
DOCKED: REMARK  10 active torsions:
DOCKED: REMARK  status: ('A' for Active; 'I' for Inactive)
DOCKED: REMARK    1  A    between atoms: C_2  and  C_5
DOCKED: REMARK    2  A    between atoms: C_6  and  C_7
DOCKED: REMARK    3  A    between atoms: C_10  and  C_11
DOCKED: REMARK    4  A    between atoms: C_11  and  N_12
DOCKED: REMARK    5  A    between atoms: N_12  and  C_13
DOCKED: REMARK    6  A    between atoms: N_12  and  C_16
DOCKED: REMARK    7  A    between atoms: C_13  and  C_14
DOCKED: REMARK    8  A    between atoms: C_14  and  O_15
DOCKED: REMARK    9  A    between atoms: C_16  and  C_17
DOCKED: REMARK   10  A    between atoms: C_17  and  C_18
DOCKED: REMARK                            x       y       z     vdW  Elec       q    Type
DOCKED: REMARK                         _______ _______ _______ _____ _____    ______ ____
DOCKED: USER                              x       y       z     vdW  Elec       q    Type
DOCKED: USER                           _______ _______ _______ _____ _____    ______ ____
DOCKED: ROOT
DOCKED: ATOM      1  N   UNL     1      36.241  18.080 124.641 -0.22 -0.00    +0.000 N 
DOCKED: ATOM      2  H   UNL     1      36.089  17.270 125.242 -0.02 -0.00    +0.000 HD
DOCKED: ENDROOT
DOCKED: BRANCH   1   3
DOCKED: ATOM      3  C   UNL     1      36.504  17.483 123.306 -0.25 -0.00    +0.000 C 
DOCKED: BRANCH   3   7
DOCKED: ATOM      4  C   UNL     1      36.674  13.143 123.305 -0.54 -0.00    +0.000 A 
DOCKED: ATOM      5  C   UNL     1      37.533  13.893 122.487 -0.43 -0.00    +0.000 A 
DOCKED: ATOM      6  C   UNL     1      37.480  15.289 122.490 -0.32 -0.00    +0.000 A 
DOCKED: ATOM      7  C   UNL     1      36.547  15.967 123.290 -0.32 -0.00    +0.000 A 
DOCKED: ATOM      8  C   UNL     1      35.695  15.220 124.119 -0.43 -0.00    +0.000 A 
DOCKED: ATOM      9  C   UNL     1      35.746  13.823 124.118 -0.37 -0.00    +0.000 A 
DOCKED: ATOM     10  CM  UNL     1      36.613  14.555 123.301 +0.00 -0.00    +0.000 AC
DOCKED: BRANCH   4  11
DOCKED: ATOM     11  C   UNL     1      36.877  10.958 122.123 -0.59 -0.00    +0.000 C 
DOCKED: ATOM     12  C   UNL     1      36.761  11.662 123.258 -0.69 -0.00    +0.000 C 
DOCKED: BRANCH  10  13
DOCKED: ATOM     13  O   UNL     1      36.965   8.844 121.029 -2.68 -0.00    +0.000 OA
DOCKED: ATOM     14  C   UNL     1      36.951   9.483 122.117 -0.64 -0.00    +0.000 C 
DOCKED: ATOM     15  N   UNL     1      37.005   8.772 123.355 -0.64 -0.00    +0.000 N 
DOCKED: ATOM     16  O   UNL     1      37.073   7.419 123.367 -2.45 -0.00    +0.000 OA
DOCKED: ATOM     17  H   UNL     1      36.994   9.268 124.206 -0.57 -0.00    +0.000 HD
DOCKED: ENDBRANCH  10  13
DOCKED: ENDBRANCH   4  11
DOCKED: ENDBRANCH   3   7
DOCKED: ENDBRANCH   1   3
DOCKED: BRANCH   1  17
DOCKED: ATOM     18  C   UNL     1      34.981  18.852 124.744 -0.27 -0.00    +0.000 C 
DOCKED: BRANCH  17  18
DOCKED: ATOM     19  C   UNL     1      34.003  18.206 125.729 -0.36 -0.00    +0.000 C 
DOCKED: BRANCH  18  19
DOCKED: ATOM     20  O   UNL     1      34.082  16.811 125.634 -0.53 -0.00    +0.000 OA
DOCKED: ATOM     21  H   UNL     1      34.376  16.446 126.483 -0.03 -0.00    +0.000 HD
DOCKED: ENDBRANCH  18  19
DOCKED: ENDBRANCH  17  18
DOCKED: ENDBRANCH   1  17
DOCKED: BRANCH   1  21
DOCKED: ATOM     22  C   UNL     1      37.406  18.800 125.208 -0.18 -0.00    +0.000 C 
DOCKED: BRANCH  21  22
DOCKED: ATOM     23  C   UNL     1      38.693  18.000 124.979 -0.13 -0.00    +0.000 C 
DOCKED: BRANCH  22  23
DOCKED: ATOM     24  C   UNL     1      39.885  18.735 125.522 -0.22 -0.00    +0.000 A 
DOCKED: ATOM     25  C   UNL     1      40.423  19.914 125.019 -0.11 -0.00    +0.000 A 
DOCKED: ATOM     26  N   UNL     1      41.406  20.369 125.830 -0.13 -0.00    +0.000 N 
DOCKED: ATOM     27  C   UNL     1      41.482  19.494 126.848 -0.21 -0.00    +0.000 A 
DOCKED: ATOM     28  C   UNL     1      40.566  18.484 126.699 -0.32 -0.00    +0.000 A 
DOCKED: ATOM     29  C   UNL     1      40.430  17.471 127.649 -0.27 -0.00    +0.000 A 
DOCKED: ATOM     30  C   UNL     1      41.268  17.512 128.777 -0.48 -0.00    +0.000 A 
DOCKED: ATOM     31  C   UNL     1      42.211  18.552 128.931 -0.35 -0.00    +0.000 A 
DOCKED: ATOM     32  C   UNL     1      42.323  19.562 127.958 -0.20 -0.00    +0.000 A 
DOCKED: ATOM     33  H   UNL     1      41.955  21.176 125.701 -0.01 -0.00    +0.000 HD
DOCKED: ATOM     34  CM  UNL     1      40.773  19.431 125.979 +0.00 -0.00    +0.000 AC
DOCKED: ATOM     35  CM  UNL     1      41.380  18.513 127.810 +0.00 -0.00    +0.000 AC
DOCKED: ENDBRANCH  22  23
DOCKED: ENDBRANCH  21  22
DOCKED: ENDBRANCH   1  21
DOCKED: TORSDOF 10DOCKED: TER
DOCKED: ENDMDL
________________________________________________________________________________


	BEGINNING GENETIC ALGORITHM DOCKING 15 of 100
Run: 15 Seed: 841680801 1398085028 [ Run 15 of 100 GA/GALS ]
Beginning LAMARCKIAN GENETIC ALGORITHM (LGA), with a maximum of 2500000 energy evaluations.

Final-Value: -17.763


	FINAL GENETIC ALGORITHM DOCKED STATE
	_______________________________________________


Detailed state:  trans 37.976 17.084 123.166 quatxyzw -0.143259 0.321506 -0.803888 -0.479453 center 0.288 0.007 -0.056 ntor 10 -85.0755 166.8244 38.7731 177.2581 168.4182 -43.1739 173.7120 132.0024 78.2176 -23.7165
State:	 37.976  17.084 123.166  -0.163  0.366 -0.916 -122.701    -85.08  166.82   38.77  177.26  168.42  -43.17  173.71  132.00   78.22  -23.72

DOCKED: MODEL       15
DOCKED: USER    Run = 15
DOCKED: USER    DPF = ligand_dock.biased.dpf
DOCKED: USER  
DOCKED: USER    Estimated Free Energy of Binding    =  -12.88 kcal/mol  [=(1)+(2)+(3)-(4)]
DOCKED: USER    Estimated Inhibition Constant, Ki   =  361.60 pM (picomolar)  [Temperature = 298.15 K]
DOCKED: USER    
DOCKED: USER    (1) Final Intermolecular Energy     =  -15.86 kcal/mol
DOCKED: USER        vdW + Hbond + desolv Energy     =  -15.86 kcal/mol
DOCKED: USER        Electrostatic Energy            =   +0.00 kcal/mol
DOCKED: USER    (2) Final Total Internal Energy     =   -1.90 kcal/mol
DOCKED: USER    (3) Torsional Free Energy           =   +2.98 kcal/mol
DOCKED: USER    (4) Unbound System's Energy  [=(2)] =   -1.90 kcal/mol
DOCKED: USER    
DOCKED: USER    
DOCKED: USER    NEWDPF move ligand.dum.pdbqt
DOCKED: USER    NEWDPF about 0.288000 0.007000 -0.056000
DOCKED: USER    NEWDPF tran0 37.975578 17.083744 123.166349
DOCKED: USER    NEWDPF quaternion0 -0.143259 0.321506 -0.803888 -0.479453
DOCKED: USER    NEWDPF axisangle0 -0.163245 0.366360 -0.916041 -122.700692
DOCKED: USER    NEWDPF quat0 -0.163245 0.366360 -0.916041 -122.700692
DOCKED: USER    NEWDPF dihe0 -85.08 166.82 38.77 177.26 168.42 -43.17 173.71 132.00 78.22 -23.72 
DOCKED: USER  keepresnum = 1 
DOCKED: USER  
DOCKED: REMARK  Name = 
DOCKED: REMARK  10 active torsions:
DOCKED: REMARK  status: ('A' for Active; 'I' for Inactive)
DOCKED: REMARK    1  A    between atoms: C_2  and  C_5
DOCKED: REMARK    2  A    between atoms: C_6  and  C_7
DOCKED: REMARK    3  A    between atoms: C_10  and  C_11
DOCKED: REMARK    4  A    between atoms: C_11  and  N_12
DOCKED: REMARK    5  A    between atoms: N_12  and  C_13
DOCKED: REMARK    6  A    between atoms: N_12  and  C_16
DOCKED: REMARK    7  A    between atoms: C_13  and  C_14
DOCKED: REMARK    8  A    between atoms: C_14  and  O_15
DOCKED: REMARK    9  A    between atoms: C_16  and  C_17
DOCKED: REMARK   10  A    between atoms: C_17  and  C_18
DOCKED: REMARK                            x       y       z     vdW  Elec       q    Type
DOCKED: REMARK                         _______ _______ _______ _____ _____    ______ ____
DOCKED: USER                              x       y       z     vdW  Elec       q    Type
DOCKED: USER                           _______ _______ _______ _____ _____    ______ ____
DOCKED: ROOT
DOCKED: ATOM      1  N   UNL     1      38.418  18.307 123.468 -0.14 -0.00    +0.000 N 
DOCKED: ATOM      2  H   UNL     1      38.966  19.088 123.107 +0.00 -0.00    +0.000 HD
DOCKED: ENDROOT
DOCKED: BRANCH   1   3
DOCKED: ATOM      3  C   UNL     1      37.961  17.602 122.242 -0.14 -0.00    +0.000 C 
DOCKED: BRANCH   3   7
DOCKED: ATOM      4  C   UNL     1      37.437  13.321 122.752 -0.49 -0.00    +0.000 A 
DOCKED: ATOM      5  C   UNL     1      38.086  13.832 121.618 -0.39 -0.00    +0.000 A 
DOCKED: ATOM      6  C   UNL     1      38.257  15.209 121.455 -0.27 -0.00    +0.000 A 
DOCKED: ATOM      7  C   UNL     1      37.757  16.109 122.410 -0.24 -0.00    +0.000 A 
DOCKED: ATOM      8  C   UNL     1      37.119  15.600 123.553 -0.29 -0.00    +0.000 A 
DOCKED: ATOM      9  C   UNL     1      36.947  14.222 123.718 -0.33 -0.00    +0.000 A 
DOCKED: ATOM     10  CM  UNL     1      37.601  14.715 122.584 +0.00 -0.00    +0.000 AC
DOCKED: BRANCH   4  11
DOCKED: ATOM     11  C   UNL     1      37.103  11.031 121.826 -0.48 -0.00    +0.000 C 
DOCKED: ATOM     12  C   UNL     1      37.271  11.851 122.873 -0.54 -0.00    +0.000 C 
DOCKED: BRANCH  10  13
DOCKED: ATOM     13  O   UNL     1      36.699   8.838 120.991 -2.61 -0.00    +0.000 OA
DOCKED: ATOM     14  C   UNL     1      36.930   9.574 121.989 -0.63 -0.00    +0.000 C 
DOCKED: ATOM     15  N   UNL     1      37.023   8.990 123.290 -0.63 -0.00    +0.000 N 
DOCKED: ATOM     16  O   UNL     1      36.867   7.655 123.456 -2.54 -0.00    +0.000 OA
DOCKED: ATOM     17  H   UNL     1      37.203   9.562 124.071 -0.56 -0.00    +0.000 HD
DOCKED: ENDBRANCH  10  13
DOCKED: ENDBRANCH   4  11
DOCKED: ENDBRANCH   3   7
DOCKED: ENDBRANCH   1   3
DOCKED: BRANCH   1  17
DOCKED: ATOM     18  C   UNL     1      39.374  17.547 124.307 -0.21 -0.00    +0.000 C 
DOCKED: BRANCH  17  18
DOCKED: ATOM     19  C   UNL     1      40.781  18.147 124.243 -0.30 -0.00    +0.000 C 
DOCKED: BRANCH  18  19
DOCKED: ATOM     20  O   UNL     1      41.732  17.121 124.156 -0.82 -0.00    +0.000 OA
DOCKED: ATOM     21  H   UNL     1      42.532  17.381 124.639 -0.60 -0.00    +0.000 HD
DOCKED: ENDBRANCH  18  19
DOCKED: ENDBRANCH  17  18
DOCKED: ENDBRANCH   1  17
DOCKED: BRANCH   1  21
DOCKED: ATOM     22  C   UNL     1      37.313  18.908 124.251 -0.16 -0.00    +0.000 C 
DOCKED: BRANCH  21  22
DOCKED: ATOM     23  C   UNL     1      36.000  18.845 123.463 -0.23 -0.00    +0.000 C 
DOCKED: BRANCH  22  23
DOCKED: ATOM     24  C   UNL     1      35.026  17.908 124.118 -0.31 -0.00    +0.000 A 
DOCKED: ATOM     25  C   UNL     1      34.401  16.820 123.518 -0.41 -0.00    +0.000 A 
DOCKED: ATOM     26  N   UNL     1      33.694  16.118 124.432 -0.39 -0.00    +0.000 N 
DOCKED: ATOM     27  C   UNL     1      33.881  16.744 125.607 -0.35 -0.00    +0.000 A 
DOCKED: ATOM     28  C   UNL     1      34.692  17.840 125.458 -0.32 -0.00    +0.000 A 
DOCKED: ATOM     29  C   UNL     1      35.060  18.635 126.544 -0.19 -0.00    +0.000 A 
DOCKED: ATOM     30  C   UNL     1      34.569  18.279 127.814 -0.17 -0.00    +0.000 A 
DOCKED: ATOM     31  C   UNL     1      33.734  17.151 127.968 -0.30 -0.00    +0.000 A 
DOCKED: ATOM     32  C   UNL     1      33.383  16.367 126.854 -0.34 -0.00    +0.000 A 
DOCKED: ATOM     33  H   UNL     1      33.152  15.312 124.271 -0.21 -0.00    +0.000 HD
DOCKED: ATOM     34  CM  UNL     1      34.318  17.055 124.621 -0.24 -0.00    +0.000 AC
DOCKED: ATOM     35  CM  UNL     1      34.219  17.503 126.707 -0.05 -0.00    +0.000 AC
DOCKED: ENDBRANCH  22  23
DOCKED: ENDBRANCH  21  22
DOCKED: ENDBRANCH   1  21
DOCKED: TORSDOF 10DOCKED: TER
DOCKED: ENDMDL
________________________________________________________________________________


	BEGINNING GENETIC ALGORITHM DOCKING 16 of 100
Run: 16 Seed: 1839679432 446988464 [ Run 16 of 100 GA/GALS ]
Beginning LAMARCKIAN GENETIC ALGORITHM (LGA), with a maximum of 2500000 energy evaluations.

Final-Value: -14.901


	FINAL GENETIC ALGORITHM DOCKED STATE
	_______________________________________________


Detailed state:  trans 37.770 16.815 121.064 quatxyzw -0.664523 0.294934 0.463733 -0.506334 center 0.288 0.007 -0.056 ntor 10 -8.6485 -52.9040 15.2812 -54.6228 -3.3317 -179.6994 180.0000 -87.3982 64.5986 159.2745
State:	 37.770  16.815 121.064  -0.771  0.342  0.538 -119.160     -8.65  -52.90   15.28  -54.62   -3.33 -179.70  180.00  -87.40   64.60  159.27

DOCKED: MODEL       16
DOCKED: USER    Run = 16
DOCKED: USER    DPF = ligand_dock.biased.dpf
DOCKED: USER  
DOCKED: USER    Estimated Free Energy of Binding    =   -9.50 kcal/mol  [=(1)+(2)+(3)-(4)]
DOCKED: USER    Estimated Inhibition Constant, Ki   =  109.48 nM (nanomolar)  [Temperature = 298.15 K]
DOCKED: USER    
DOCKED: USER    (1) Final Intermolecular Energy     =  -12.48 kcal/mol
DOCKED: USER        vdW + Hbond + desolv Energy     =  -12.48 kcal/mol
DOCKED: USER        Electrostatic Energy            =   +0.00 kcal/mol
DOCKED: USER    (2) Final Total Internal Energy     =   -2.42 kcal/mol
DOCKED: USER    (3) Torsional Free Energy           =   +2.98 kcal/mol
DOCKED: USER    (4) Unbound System's Energy  [=(2)] =   -2.42 kcal/mol
DOCKED: USER    
DOCKED: USER    
DOCKED: USER    NEWDPF move ligand.dum.pdbqt
DOCKED: USER    NEWDPF about 0.288000 0.007000 -0.056000
DOCKED: USER    NEWDPF tran0 37.769656 16.814757 121.063708
DOCKED: USER    NEWDPF quaternion0 -0.664523 0.294934 0.463733 -0.506334
DOCKED: USER    NEWDPF axisangle0 -0.770607 0.342017 0.537763 -119.160054
DOCKED: USER    NEWDPF quat0 -0.770607 0.342017 0.537763 -119.160054
DOCKED: USER    NEWDPF dihe0 -8.65 -52.90 15.28 -54.62 -3.33 -179.70 180.00 -87.40 64.60 159.27 
DOCKED: USER  keepresnum = 1 
DOCKED: USER  
DOCKED: REMARK  Name = 
DOCKED: REMARK  10 active torsions:
DOCKED: REMARK  status: ('A' for Active; 'I' for Inactive)
DOCKED: REMARK    1  A    between atoms: C_2  and  C_5
DOCKED: REMARK    2  A    between atoms: C_6  and  C_7
DOCKED: REMARK    3  A    between atoms: C_10  and  C_11
DOCKED: REMARK    4  A    between atoms: C_11  and  N_12
DOCKED: REMARK    5  A    between atoms: N_12  and  C_13
DOCKED: REMARK    6  A    between atoms: N_12  and  C_16
DOCKED: REMARK    7  A    between atoms: C_13  and  C_14
DOCKED: REMARK    8  A    between atoms: C_14  and  O_15
DOCKED: REMARK    9  A    between atoms: C_16  and  C_17
DOCKED: REMARK   10  A    between atoms: C_17  and  C_18
DOCKED: REMARK                            x       y       z     vdW  Elec       q    Type
DOCKED: REMARK                         _______ _______ _______ _____ _____    ______ ____
DOCKED: USER                              x       y       z     vdW  Elec       q    Type
DOCKED: USER                           _______ _______ _______ _____ _____    ______ ____
DOCKED: ROOT
DOCKED: ATOM      1  N   UNL     1      37.517  16.810 122.375 -0.18 -0.00    +0.000 N 
DOCKED: ATOM      2  H   UNL     1      36.940  16.372 123.092 -0.00 -0.00    +0.000 HD
DOCKED: ENDROOT
DOCKED: BRANCH   1   3
DOCKED: ATOM      3  C   UNL     1      37.546  15.802 121.283 -0.23 -0.00    +0.000 C 
DOCKED: BRANCH   3   7
DOCKED: ATOM      4  C   UNL     1      36.933  11.704 122.584 -0.55 -0.00    +0.000 A 
DOCKED: ATOM      5  C   UNL     1      36.838  12.766 123.496 -0.56 -0.00    +0.000 A 
DOCKED: ATOM      6  C   UNL     1      37.032  14.085 123.077 -0.46 -0.00    +0.000 A 
DOCKED: ATOM      7  C   UNL     1      37.355  14.369 121.741 -0.34 -0.00    +0.000 A 
DOCKED: ATOM      8  C   UNL     1      37.438  13.310 120.823 -0.41 -0.00    +0.000 A 
DOCKED: ATOM      9  C   UNL     1      37.243  11.989 121.240 -0.46 -0.00    +0.000 A 
DOCKED: ATOM     10  CM  UNL     1      37.140  13.037 122.161 +0.00 -0.00    +0.000 AC
DOCKED: BRANCH   4  11
DOCKED: ATOM     11  C   UNL     1      36.338   9.299 122.305 -0.71 -0.00    +0.000 C 
DOCKED: ATOM     12  C   UNL     1      36.729  10.320 123.081 -0.67 -0.00    +0.000 C 
DOCKED: BRANCH  10  13
DOCKED: ATOM     13  O   UNL     1      37.064   7.343 123.452 -2.42 -0.00    +0.000 OA
DOCKED: ATOM     14  C   UNL     1      36.136   7.938 122.840 -0.77 -0.00    +0.000 C 
DOCKED: ATOM     15  N   UNL     1      34.876   7.286 122.661 -0.63 -0.00    +0.000 N 
DOCKED: ATOM     16  O   UNL     1      34.675   6.038 123.145 -0.82 -0.00    +0.000 OA
DOCKED: ATOM     17  H   UNL     1      34.149   7.748 122.183 -0.00 -0.00    +0.000 HD
DOCKED: ENDBRANCH  10  13
DOCKED: ENDBRANCH   4  11
DOCKED: ENDBRANCH   3   7
DOCKED: ENDBRANCH   1   3
DOCKED: BRANCH   1  17
DOCKED: ATOM     18  C   UNL     1      36.802  18.066 122.049 -0.17 -0.00    +0.000 C 
DOCKED: BRANCH  17  18
DOCKED: ATOM     19  C   UNL     1      35.300  17.945 122.315 -0.31 -0.00    +0.000 C 
DOCKED: BRANCH  18  19
DOCKED: ATOM     20  O   UNL     1      35.010  16.680 122.843 -0.39 -0.00    +0.000 OA
DOCKED: ATOM     21  H   UNL     1      35.146  16.006 122.160 -0.02 -0.00    +0.000 HD
DOCKED: ENDBRANCH  18  19
DOCKED: ENDBRANCH  17  18
DOCKED: ENDBRANCH   1  17
DOCKED: BRANCH   1  21
DOCKED: ATOM     22  C   UNL     1      38.841  17.045 122.998 -0.23 -0.00    +0.000 C 
DOCKED: BRANCH  21  22
DOCKED: ATOM     23  C   UNL     1      39.758  15.836 122.783 -0.30 -0.00    +0.000 C 
DOCKED: BRANCH  22  23
DOCKED: ATOM     24  C   UNL     1      40.979  16.221 122.000 -0.28 -0.00    +0.000 A 
DOCKED: ATOM     25  C   UNL     1      42.236  16.504 122.522 -0.36 -0.00    +0.000 A 
DOCKED: ATOM     26  N   UNL     1      43.134  16.682 121.527 -0.25 -0.00    +0.000 N 
DOCKED: ATOM     27  C   UNL     1      42.457  16.497 120.380 -0.17 -0.00    +0.000 A 
DOCKED: ATOM     28  C   UNL     1      41.139  16.210 120.626 -0.17 -0.00    +0.000 A 
DOCKED: ATOM     29  C   UNL     1      40.240  15.944 119.593 -0.13 -0.00    +0.000 A 
DOCKED: ATOM     30  C   UNL     1      40.727  15.980 118.274 -0.13 -0.00    +0.000 A 
DOCKED: ATOM     31  C   UNL     1      42.084  16.276 118.019 -0.16 -0.00    +0.000 A 
DOCKED: ATOM     32  C   UNL     1      42.968  16.536 119.082 -0.15 -0.00    +0.000 A 
DOCKED: ATOM     33  H   UNL     1      44.089  16.901 121.621 -0.01 -0.00    +0.000 HD
DOCKED: ATOM     34  CM  UNL     1      42.026  16.430 121.415 +0.00 -0.00    +0.000 AC
DOCKED: ATOM     35  CM  UNL     1      41.603  16.241 119.329 +0.00 -0.00    +0.000 AC
DOCKED: ENDBRANCH  22  23
DOCKED: ENDBRANCH  21  22
DOCKED: ENDBRANCH   1  21
DOCKED: TORSDOF 10DOCKED: TER
DOCKED: ENDMDL
________________________________________________________________________________


	BEGINNING GENETIC ALGORITHM DOCKING 17 of 100
Run: 17 Seed: 1416693303 1169827126 [ Run 17 of 100 GA/GALS ]
Beginning LAMARCKIAN GENETIC ALGORITHM (LGA), with a maximum of 2500000 energy evaluations.

Final-Value: -17.713


	FINAL GENETIC ALGORITHM DOCKED STATE
	_______________________________________________


Detailed state:  trans 35.970 18.743 123.285 quatxyzw -0.444845 0.210995 0.763947 -0.417109 center 0.288 0.007 -0.056 ntor 10 -34.4840 -90.3488 34.5009 143.6423 -179.9177 165.5964 -155.3715 161.0416 -13.3010 -180.0000
State:	 35.970  18.743 123.285  -0.489  0.232  0.841 -130.696    -34.48  -90.35   34.50  143.64 -179.92  165.60 -155.37  161.04  -13.30 -180.00

DOCKED: MODEL       17
DOCKED: USER    Run = 17
DOCKED: USER    DPF = ligand_dock.biased.dpf
DOCKED: USER  
DOCKED: USER    Estimated Free Energy of Binding    =  -12.18 kcal/mol  [=(1)+(2)+(3)-(4)]
DOCKED: USER    Estimated Inhibition Constant, Ki   =    1.17 nM (nanomolar)  [Temperature = 298.15 K]
DOCKED: USER    
DOCKED: USER    (1) Final Intermolecular Energy     =  -15.17 kcal/mol
DOCKED: USER        vdW + Hbond + desolv Energy     =  -15.17 kcal/mol
DOCKED: USER        Electrostatic Energy            =   +0.00 kcal/mol
DOCKED: USER    (2) Final Total Internal Energy     =   -2.55 kcal/mol
DOCKED: USER    (3) Torsional Free Energy           =   +2.98 kcal/mol
DOCKED: USER    (4) Unbound System's Energy  [=(2)] =   -2.55 kcal/mol
DOCKED: USER    
DOCKED: USER    
DOCKED: USER    NEWDPF move ligand.dum.pdbqt
DOCKED: USER    NEWDPF about 0.288000 0.007000 -0.056000
DOCKED: USER    NEWDPF tran0 35.969609 18.743137 123.284820
DOCKED: USER    NEWDPF quaternion0 -0.444845 0.210995 0.763947 -0.417109
DOCKED: USER    NEWDPF axisangle0 -0.489456 0.232154 0.840558 -130.695633
DOCKED: USER    NEWDPF quat0 -0.489456 0.232154 0.840558 -130.695633
DOCKED: USER    NEWDPF dihe0 -34.48 -90.35 34.50 143.64 -179.92 165.60 -155.37 161.04 -13.30 -180.00 
DOCKED: USER  keepresnum = 1 
DOCKED: USER  
DOCKED: REMARK  Name = 
DOCKED: REMARK  10 active torsions:
DOCKED: REMARK  status: ('A' for Active; 'I' for Inactive)
DOCKED: REMARK    1  A    between atoms: C_2  and  C_5
DOCKED: REMARK    2  A    between atoms: C_6  and  C_7
DOCKED: REMARK    3  A    between atoms: C_10  and  C_11
DOCKED: REMARK    4  A    between atoms: C_11  and  N_12
DOCKED: REMARK    5  A    between atoms: N_12  and  C_13
DOCKED: REMARK    6  A    between atoms: N_12  and  C_16
DOCKED: REMARK    7  A    between atoms: C_13  and  C_14
DOCKED: REMARK    8  A    between atoms: C_14  and  O_15
DOCKED: REMARK    9  A    between atoms: C_16  and  C_17
DOCKED: REMARK   10  A    between atoms: C_17  and  C_18
DOCKED: REMARK                            x       y       z     vdW  Elec       q    Type
DOCKED: REMARK                         _______ _______ _______ _____ _____    ______ ____
DOCKED: USER                              x       y       z     vdW  Elec       q    Type
DOCKED: USER                           _______ _______ _______ _____ _____    ______ ____
DOCKED: ROOT
DOCKED: ATOM      1  N   UNL     1      36.554  18.331 124.413 -0.20 -0.00    +0.000 N 
DOCKED: ATOM      2  H   UNL     1      36.640  17.533 125.041 -0.02 -0.00    +0.000 HD
DOCKED: ENDROOT
DOCKED: BRANCH   1   3
DOCKED: ATOM      3  C   UNL     1      36.169  17.716 123.115 -0.25 -0.00    +0.000 C 
DOCKED: BRANCH   3   7
DOCKED: ATOM      4  C   UNL     1      36.234  13.374 123.146 -0.49 -0.00    +0.000 A 
DOCKED: ATOM      5  C   UNL     1      37.231  14.099 122.477 -0.42 -0.00    +0.000 A 
DOCKED: ATOM      6  C   UNL     1      37.212  15.496 122.469 -0.30 -0.00    +0.000 A 
DOCKED: ATOM      7  C   UNL     1      36.178  16.200 123.108 -0.32 -0.00    +0.000 A 
DOCKED: ATOM      8  C   UNL     1      35.186  15.476 123.790 -0.48 -0.00    +0.000 A 
DOCKED: ATOM      9  C   UNL     1      35.204  14.078 123.799 -0.37 -0.00    +0.000 A 
DOCKED: ATOM     10  CM  UNL     1      36.208  14.787 123.131 +0.00 -0.00    +0.000 AC
DOCKED: BRANCH   4  11
DOCKED: ATOM     11  C   UNL     1      36.972  11.191 122.195 -0.58 -0.00    +0.000 C 
DOCKED: ATOM     12  C   UNL     1      36.294  11.890 123.115 -0.69 -0.00    +0.000 C 
DOCKED: BRANCH  10  13
DOCKED: ATOM     13  O   UNL     1      36.976   9.073 121.106 -2.70 -0.00    +0.000 OA
DOCKED: ATOM     14  C   UNL     1      36.998   9.715 122.192 -0.61 -0.00    +0.000 C 
DOCKED: ATOM     15  N   UNL     1      37.046   9.004 123.431 -0.59 -0.00    +0.000 N 
DOCKED: ATOM     16  O   UNL     1      37.069   7.650 123.446 -2.65 -0.00    +0.000 OA
DOCKED: ATOM     17  H   UNL     1      37.062   9.502 124.281 -0.55 -0.00    +0.000 HD
DOCKED: ENDBRANCH  10  13
DOCKED: ENDBRANCH   4  11
DOCKED: ENDBRANCH   3   7
DOCKED: ENDBRANCH   1   3
DOCKED: BRANCH   1  17
DOCKED: ATOM     18  C   UNL     1      35.511  19.178 125.037 -0.23 -0.00    +0.000 C 
DOCKED: BRANCH  17  18
DOCKED: ATOM     19  C   UNL     1      34.848  18.473 126.224 -0.26 -0.00    +0.000 C 
DOCKED: BRANCH  18  19
DOCKED: ATOM     20  O   UNL     1      34.746  17.100 125.965 -0.35 -0.00    +0.000 OA
DOCKED: ATOM     21  H   UNL     1      33.871  16.905 125.594 -0.02 -0.00    +0.000 HD
DOCKED: ENDBRANCH  18  19
DOCKED: ENDBRANCH  17  18
DOCKED: ENDBRANCH   1  17
DOCKED: BRANCH   1  21
DOCKED: ATOM     22  C   UNL     1      37.886  18.980 124.387 -0.15 -0.00    +0.000 C 
DOCKED: BRANCH  21  22
DOCKED: ATOM     23  C   UNL     1      38.936  18.074 125.039 -0.17 -0.00    +0.000 C 
DOCKED: BRANCH  22  23
DOCKED: ATOM     24  C   UNL     1      40.254  18.183 124.328 -0.24 -0.00    +0.000 A 
DOCKED: ATOM     25  C   UNL     1      41.228  19.152 124.543 -0.18 -0.00    +0.000 A 
DOCKED: ATOM     26  N   UNL     1      42.341  18.871 123.829 -0.12 -0.00    +0.000 N 
DOCKED: ATOM     27  C   UNL     1      42.084  17.724 123.176 -0.27 -0.00    +0.000 A 
DOCKED: ATOM     28  C   UNL     1      40.821  17.270 123.458 -0.28 -0.00    +0.000 A 
DOCKED: ATOM     29  C   UNL     1      40.334  16.076 122.923 -0.26 -0.00    +0.000 A 
DOCKED: ATOM     30  C   UNL     1      41.183  15.342 122.076 -0.40 -0.00    +0.000 A 
DOCKED: ATOM     31  C   UNL     1      42.484  15.810 121.785 -0.34 -0.00    +0.000 A 
DOCKED: ATOM     32  C   UNL     1      42.948  17.016 122.342 -0.31 -0.00    +0.000 A 
DOCKED: ATOM     33  H   UNL     1      43.172  19.399 123.793 -0.38 -0.00    +0.000 HD
DOCKED: ATOM     34  CM  UNL     1      41.378  18.260 123.866 +0.00 -0.00    +0.000 AC
DOCKED: ATOM     35  CM  UNL     1      41.642  16.540 122.627 +0.00 -0.00    +0.000 AC
DOCKED: ENDBRANCH  22  23
DOCKED: ENDBRANCH  21  22
DOCKED: ENDBRANCH   1  21
DOCKED: TORSDOF 10DOCKED: TER
DOCKED: ENDMDL
________________________________________________________________________________


	BEGINNING GENETIC ALGORITHM DOCKING 18 of 100
Run: 18 Seed: 1138848398 1093615403 [ Run 18 of 100 GA/GALS ]
Beginning LAMARCKIAN GENETIC ALGORITHM (LGA), with a maximum of 2500000 energy evaluations.

Final-Value: -15.131


	FINAL GENETIC ALGORITHM DOCKED STATE
	_______________________________________________


Detailed state:  trans 37.236 16.996 120.703 quatxyzw 0.946337 0.128953 -0.112327 0.274226 center 0.288 0.007 -0.056 ntor 10 -111.2096 -153.4357 169.4205 -60.6016 -179.8448 -13.8205 -179.9233 13.8036 -47.1257 -180.0000
State:	 37.236  16.996 120.703   0.984  0.134 -0.117 148.168   -111.21 -153.44  169.42  -60.60 -179.84  -13.82 -179.92   13.80  -47.13 -180.00

DOCKED: MODEL       18
DOCKED: USER    Run = 18
DOCKED: USER    DPF = ligand_dock.biased.dpf
DOCKED: USER  
DOCKED: USER    Estimated Free Energy of Binding    =  -10.42 kcal/mol  [=(1)+(2)+(3)-(4)]
DOCKED: USER    Estimated Inhibition Constant, Ki   =   23.20 nM (nanomolar)  [Temperature = 298.15 K]
DOCKED: USER    
DOCKED: USER    (1) Final Intermolecular Energy     =  -13.40 kcal/mol
DOCKED: USER        vdW + Hbond + desolv Energy     =  -13.40 kcal/mol
DOCKED: USER        Electrostatic Energy            =   +0.00 kcal/mol
DOCKED: USER    (2) Final Total Internal Energy     =   -1.73 kcal/mol
DOCKED: USER    (3) Torsional Free Energy           =   +2.98 kcal/mol
DOCKED: USER    (4) Unbound System's Energy  [=(2)] =   -1.73 kcal/mol
DOCKED: USER    
DOCKED: USER    
DOCKED: USER    NEWDPF move ligand.dum.pdbqt
DOCKED: USER    NEWDPF about 0.288000 0.007000 -0.056000
DOCKED: USER    NEWDPF tran0 37.235590 16.995972 120.703292
DOCKED: USER    NEWDPF quaternion0 0.946337 0.128953 -0.112327 0.274226
DOCKED: USER    NEWDPF axisangle0 0.984061 0.134093 -0.116804 148.168240
DOCKED: USER    NEWDPF quat0 0.984061 0.134093 -0.116804 148.168240
DOCKED: USER    NEWDPF dihe0 -111.21 -153.44 169.42 -60.60 -179.84 -13.82 -179.92 13.80 -47.13 -180.00 
DOCKED: USER  keepresnum = 1 
DOCKED: USER  
DOCKED: REMARK  Name = 
DOCKED: REMARK  10 active torsions:
DOCKED: REMARK  status: ('A' for Active; 'I' for Inactive)
DOCKED: REMARK    1  A    between atoms: C_2  and  C_5
DOCKED: REMARK    2  A    between atoms: C_6  and  C_7
DOCKED: REMARK    3  A    between atoms: C_10  and  C_11
DOCKED: REMARK    4  A    between atoms: C_11  and  N_12
DOCKED: REMARK    5  A    between atoms: N_12  and  C_13
DOCKED: REMARK    6  A    between atoms: N_12  and  C_16
DOCKED: REMARK    7  A    between atoms: C_13  and  C_14
DOCKED: REMARK    8  A    between atoms: C_14  and  O_15
DOCKED: REMARK    9  A    between atoms: C_16  and  C_17
DOCKED: REMARK   10  A    between atoms: C_17  and  C_18
DOCKED: REMARK                            x       y       z     vdW  Elec       q    Type
DOCKED: REMARK                         _______ _______ _______ _____ _____    ______ ____
DOCKED: USER                              x       y       z     vdW  Elec       q    Type
DOCKED: USER                           _______ _______ _______ _____ _____    ______ ____
DOCKED: ROOT
DOCKED: ATOM      1  N   UNL     1      35.956  16.848 121.054 -0.21 -0.00    +0.000 N 
DOCKED: ATOM      2  H   UNL     1      35.231  16.149 121.219 -0.00 -0.00    +0.000 HD
DOCKED: ENDROOT
DOCKED: BRANCH   1   3
DOCKED: ATOM      3  C   UNL     1      37.221  16.098 121.266 -0.22 -0.00    +0.000 C 
DOCKED: BRANCH   3   7
DOCKED: ATOM      4  C   UNL     1      36.762  12.035 122.731 -0.57 -0.00    +0.000 A 
DOCKED: ATOM      5  C   UNL     1      37.124  12.278 121.398 -0.48 -0.00    +0.000 A 
DOCKED: ATOM      6  C   UNL     1      37.275  13.585 120.927 -0.37 -0.00    +0.000 A 
DOCKED: ATOM      7  C   UNL     1      37.038  14.680 121.773 -0.28 -0.00    +0.000 A 
DOCKED: ATOM      8  C   UNL     1      36.688  14.441 123.112 -0.43 -0.00    +0.000 A 
DOCKED: ATOM      9  C   UNL     1      36.537  13.134 123.585 -0.53 -0.00    +0.000 A 
DOCKED: ATOM     10  CM  UNL     1      36.904  13.358 122.254 +0.00 -0.00    +0.000 AC
DOCKED: BRANCH   4  11
DOCKED: ATOM     11  C   UNL     1      36.393   9.600 122.346 -0.70 -0.00    +0.000 C 
DOCKED: ATOM     12  C   UNL     1      36.604  10.629 123.180 -0.67 -0.00    +0.000 C 
DOCKED: BRANCH  10  13
DOCKED: ATOM     13  O   UNL     1      37.164   7.639 123.455 -2.62 -0.00    +0.000 OA
DOCKED: ATOM     14  C   UNL     1      36.230   8.216 122.833 -0.77 -0.00    +0.000 C 
DOCKED: ATOM     15  N   UNL     1      35.005   7.521 122.595 -0.62 -0.00    +0.000 N 
DOCKED: ATOM     16  O   UNL     1      34.840   6.250 123.035 -0.79 -0.00    +0.000 OA
DOCKED: ATOM     17  H   UNL     1      34.274   7.968 122.110 -0.00 -0.00    +0.000 HD
DOCKED: ENDBRANCH  10  13
DOCKED: ENDBRANCH   4  11
DOCKED: ENDBRANCH   3   7
DOCKED: ENDBRANCH   1   3
DOCKED: BRANCH   1  17
DOCKED: ATOM     18  C   UNL     1      35.720  17.297 119.662 -0.17 -0.00    +0.000 C 
DOCKED: BRANCH  17  18
DOCKED: ATOM     19  C   UNL     1      35.599  18.821 119.574 -0.18 -0.00    +0.000 C 
DOCKED: BRANCH  18  19
DOCKED: ATOM     20  O   UNL     1      34.248  19.189 119.540 -0.25 -0.00    +0.000 OA
DOCKED: ATOM     21  H   UNL     1      34.176  20.137 119.349 -0.23 -0.00    +0.000 HD
DOCKED: ENDBRANCH  18  19
DOCKED: ENDBRANCH  17  18
DOCKED: ENDBRANCH   1  17
DOCKED: BRANCH   1  21
DOCKED: ATOM     22  C   UNL     1      35.729  17.919 122.053 -0.26 -0.00    +0.000 C 
DOCKED: BRANCH  21  22
DOCKED: ATOM     23  C   UNL     1      34.282  17.885 122.557 -0.35 -0.00    +0.000 C 
DOCKED: BRANCH  22  23
DOCKED: ATOM     24  C   UNL     1      34.235  17.636 124.036 -0.36 -0.00    +0.000 A 
DOCKED: ATOM     25  C   UNL     1      34.068  16.403 124.658 -0.44 -0.00    +0.000 A 
DOCKED: ATOM     26  N   UNL     1      34.209  16.525 125.997 -0.40 -0.00    +0.000 N 
DOCKED: ATOM     27  C   UNL     1      34.481  17.822 126.225 -0.28 -0.00    +0.000 A 
DOCKED: ATOM     28  C   UNL     1      34.509  18.533 125.052 -0.29 -0.00    +0.000 A 
DOCKED: ATOM     29  C   UNL     1      34.805  19.896 125.027 -0.11 -0.00    +0.000 A 
DOCKED: ATOM     30  C   UNL     1      35.075  20.532 126.253 -0.13 -0.00    +0.000 A 
DOCKED: ATOM     31  C   UNL     1      35.045  19.801 127.460 -0.10 -0.00    +0.000 A 
DOCKED: ATOM     32  C   UNL     1      34.747  18.426 127.454 -0.16 -0.00    +0.000 A 
DOCKED: ATOM     33  H   UNL     1      34.130  15.811 126.670 -0.04 -0.00    +0.000 HD
DOCKED: ATOM     34  CM  UNL     1      34.298  17.356 125.220 -0.32 -0.00    +0.000 AC
DOCKED: ATOM     35  CM  UNL     1      34.777  19.168 126.245 -0.05 -0.00    +0.000 AC
DOCKED: ENDBRANCH  22  23
DOCKED: ENDBRANCH  21  22
DOCKED: ENDBRANCH   1  21
DOCKED: TORSDOF 10DOCKED: TER
DOCKED: ENDMDL
________________________________________________________________________________


	BEGINNING GENETIC ALGORITHM DOCKING 19 of 100
Run: 19 Seed: 1971294216 1942998408 [ Run 19 of 100 GA/GALS ]
Beginning LAMARCKIAN GENETIC ALGORITHM (LGA), with a maximum of 2500000 energy evaluations.

Final-Value: -15.278


	FINAL GENETIC ALGORITHM DOCKED STATE
	_______________________________________________


Detailed state:  trans 37.451 16.517 122.487 quatxyzw -0.539158 -0.241664 -0.284749 -0.754867 center 0.288 0.007 -0.056 ntor 10 135.4362 -42.8916 74.1193 -34.3529 150.4371 179.3094 -171.9022 -1.5673 160.8689 91.3546
State:	 37.451  16.517 122.487  -0.822 -0.368 -0.434 -81.972    135.44  -42.89   74.12  -34.35  150.44  179.31 -171.90   -1.57  160.87   91.35

DOCKED: MODEL       19
DOCKED: USER    Run = 19
DOCKED: USER    DPF = ligand_dock.biased.dpf
DOCKED: USER  
DOCKED: USER    Estimated Free Energy of Binding    =  -10.00 kcal/mol  [=(1)+(2)+(3)-(4)]
DOCKED: USER    Estimated Inhibition Constant, Ki   =   47.06 nM (nanomolar)  [Temperature = 298.15 K]
DOCKED: USER    
DOCKED: USER    (1) Final Intermolecular Energy     =  -12.98 kcal/mol
DOCKED: USER        vdW + Hbond + desolv Energy     =  -12.98 kcal/mol
DOCKED: USER        Electrostatic Energy            =   +0.00 kcal/mol
DOCKED: USER    (2) Final Total Internal Energy     =   -2.30 kcal/mol
DOCKED: USER    (3) Torsional Free Energy           =   +2.98 kcal/mol
DOCKED: USER    (4) Unbound System's Energy  [=(2)] =   -2.30 kcal/mol
DOCKED: USER    
DOCKED: USER    
DOCKED: USER    NEWDPF move ligand.dum.pdbqt
DOCKED: USER    NEWDPF about 0.288000 0.007000 -0.056000
DOCKED: USER    NEWDPF tran0 37.451453 16.517284 122.486821
DOCKED: USER    NEWDPF quaternion0 -0.539158 -0.241664 -0.284749 -0.754867
DOCKED: USER    NEWDPF axisangle0 -0.822041 -0.368459 -0.434150 -81.972434
DOCKED: USER    NEWDPF quat0 -0.822041 -0.368459 -0.434150 -81.972434
DOCKED: USER    NEWDPF dihe0 135.44 -42.89 74.12 -34.35 150.44 179.31 -171.90 -1.57 160.87 91.35 
DOCKED: USER  keepresnum = 1 
DOCKED: USER  
DOCKED: REMARK  Name = 
DOCKED: REMARK  10 active torsions:
DOCKED: REMARK  status: ('A' for Active; 'I' for Inactive)
DOCKED: REMARK    1  A    between atoms: C_2  and  C_5
DOCKED: REMARK    2  A    between atoms: C_6  and  C_7
DOCKED: REMARK    3  A    between atoms: C_10  and  C_11
DOCKED: REMARK    4  A    between atoms: C_11  and  N_12
DOCKED: REMARK    5  A    between atoms: N_12  and  C_13
DOCKED: REMARK    6  A    between atoms: N_12  and  C_16
DOCKED: REMARK    7  A    between atoms: C_13  and  C_14
DOCKED: REMARK    8  A    between atoms: C_14  and  O_15
DOCKED: REMARK    9  A    between atoms: C_16  and  C_17
DOCKED: REMARK   10  A    between atoms: C_17  and  C_18
DOCKED: REMARK                            x       y       z     vdW  Elec       q    Type
DOCKED: REMARK                         _______ _______ _______ _____ _____    ______ ____
DOCKED: USER                              x       y       z     vdW  Elec       q    Type
DOCKED: USER                           _______ _______ _______ _____ _____    ______ ____
DOCKED: ROOT
DOCKED: ATOM      1  N   UNL     1      36.303  16.660 121.820 -0.21 -0.00    +0.000 N 
DOCKED: ATOM      2  H   UNL     1      35.897  16.645 120.885 -0.01 -0.00    +0.000 HD
DOCKED: ENDROOT
DOCKED: BRANCH   1   3
DOCKED: ATOM      3  C   UNL     1      37.530  15.831 121.683 -0.25 -0.00    +0.000 C 
DOCKED: BRANCH   3   7
DOCKED: ATOM      4  C   UNL     1      37.089  11.647 122.760 -0.54 -0.00    +0.000 A 
DOCKED: ATOM      5  C   UNL     1      36.871  12.073 121.441 -0.48 -0.00    +0.000 A 
DOCKED: ATOM      6  C   UNL     1      37.016  13.418 121.094 -0.34 -0.00    +0.000 A 
DOCKED: ATOM      7  C   UNL     1      37.354  14.374 122.064 -0.36 -0.00    +0.000 A 
DOCKED: ATOM      8  C   UNL     1      37.585  13.950 123.383 -0.40 -0.00    +0.000 A 
DOCKED: ATOM      9  C   UNL     1      37.442  12.603 123.733 -0.36 -0.00    +0.000 A 
DOCKED: ATOM     10  CM  UNL     1      37.226  13.010 122.412 +0.00 -0.00    +0.000 AC
DOCKED: BRANCH   4  11
DOCKED: ATOM     11  C   UNL     1      35.825   9.498 122.745 -0.69 -0.00    +0.000 C 
DOCKED: ATOM     12  C   UNL     1      36.912  10.209 123.081 -0.62 -0.00    +0.000 C 
DOCKED: BRANCH  10  13
DOCKED: ATOM     13  O   UNL     1      36.684   7.304 123.086 -2.11 -0.00    +0.000 OA
DOCKED: ATOM     14  C   UNL     1      35.682   8.070 123.091 -0.73 -0.00    +0.000 C 
DOCKED: ATOM     15  N   UNL     1      34.396   7.550 123.434 -0.67 -0.00    +0.000 N 
DOCKED: ATOM     16  O   UNL     1      34.248   6.242 123.754 -0.88 -0.00    +0.000 OA
DOCKED: ATOM     17  H   UNL     1      33.612   8.146 123.438 -0.14 -0.00    +0.000 HD
DOCKED: ENDBRANCH  10  13
DOCKED: ENDBRANCH   4  11
DOCKED: ENDBRANCH   3   7
DOCKED: ENDBRANCH   1   3
DOCKED: BRANCH   1  17
DOCKED: ATOM     18  C   UNL     1      36.546  18.096 122.090 -0.19 -0.00    +0.000 C 
DOCKED: BRANCH  17  18
DOCKED: ATOM     19  C   UNL     1      35.504  18.983 121.402 -0.21 -0.00    +0.000 C 
DOCKED: BRANCH  18  19
DOCKED: ATOM     20  O   UNL     1      34.447  18.196 120.928 -0.35 -0.00    +0.000 OA
DOCKED: ATOM     21  H   UNL     1      33.887  17.925 121.671 -0.03 -0.00    +0.000 HD
DOCKED: ENDBRANCH  18  19
DOCKED: ENDBRANCH  17  18
DOCKED: ENDBRANCH   1  17
DOCKED: BRANCH   1  21
DOCKED: ATOM     22  C   UNL     1      35.287  16.067 122.720 -0.29 -0.00    +0.000 C 
DOCKED: BRANCH  21  22
DOCKED: ATOM     23  C   UNL     1      35.732  16.182 124.182 -0.41 -0.00    +0.000 C 
DOCKED: BRANCH  22  23
DOCKED: ATOM     24  C   UNL     1      34.667  16.831 125.017 -0.39 -0.00    +0.000 A 
DOCKED: ATOM     25  C   UNL     1      33.731  16.177 125.812 -0.30 -0.00    +0.000 A 
DOCKED: ATOM     26  N   UNL     1      33.013  17.070 126.529 -0.29 -0.00    +0.000 N 
DOCKED: ATOM     27  C   UNL     1      33.498  18.282 126.207 -0.30 -0.00    +0.000 A 
DOCKED: ATOM     28  C   UNL     1      34.512  18.178 125.289 -0.31 -0.00    +0.000 A 
DOCKED: ATOM     29  C   UNL     1      35.198  19.301 124.824 -0.20 -0.00    +0.000 A 
DOCKED: ATOM     30  C   UNL     1      34.817  20.558 125.326 -0.14 -0.00    +0.000 A 
DOCKED: ATOM     31  C   UNL     1      33.773  20.665 126.270 -0.16 -0.00    +0.000 A 
DOCKED: ATOM     32  C   UNL     1      33.101  19.515 126.724 -0.22 -0.00    +0.000 A 
DOCKED: ATOM     33  H   UNL     1      32.283  16.874 127.160 -0.20 -0.00    +0.000 HD
DOCKED: ATOM     34  CM  UNL     1      33.856  17.300 125.796 -0.14 -0.00    +0.000 AC
DOCKED: ATOM     35  CM  UNL     1      34.149  19.416 125.773 -0.04 -0.00    +0.000 AC
DOCKED: ENDBRANCH  22  23
DOCKED: ENDBRANCH  21  22
DOCKED: ENDBRANCH   1  21
DOCKED: TORSDOF 10DOCKED: TER
DOCKED: ENDMDL
________________________________________________________________________________


	BEGINNING GENETIC ALGORITHM DOCKING 20 of 100
Run: 20 Seed: 1526878857 714630328 [ Run 20 of 100 GA/GALS ]
Beginning LAMARCKIAN GENETIC ALGORITHM (LGA), with a maximum of 2500000 energy evaluations.

Final-Value: -17.108


	FINAL GENETIC ALGORITHM DOCKED STATE
	_______________________________________________


Detailed state:  trans 37.474 18.606 120.909 quatxyzw 0.867002 0.311060 0.127419 0.367850 center 0.288 0.007 -0.056 ntor 10 144.4418 -59.4428 46.8106 -41.7170 -106.7869 138.4849 -46.7887 130.5730 90.6326 178.2748
State:	 37.474  18.606 120.909   0.932  0.335  0.137 136.834    144.44  -59.44   46.81  -41.72 -106.79  138.48  -46.79  130.57   90.63  178.27

DOCKED: MODEL       20
DOCKED: USER    Run = 20
DOCKED: USER    DPF = ligand_dock.biased.dpf
DOCKED: USER  
DOCKED: USER    Estimated Free Energy of Binding    =  -11.49 kcal/mol  [=(1)+(2)+(3)-(4)]
DOCKED: USER    Estimated Inhibition Constant, Ki   =    3.81 nM (nanomolar)  [Temperature = 298.15 K]
DOCKED: USER    
DOCKED: USER    (1) Final Intermolecular Energy     =  -14.47 kcal/mol
DOCKED: USER        vdW + Hbond + desolv Energy     =  -14.47 kcal/mol
DOCKED: USER        Electrostatic Energy            =   +0.00 kcal/mol
DOCKED: USER    (2) Final Total Internal Energy     =   -2.64 kcal/mol
DOCKED: USER    (3) Torsional Free Energy           =   +2.98 kcal/mol
DOCKED: USER    (4) Unbound System's Energy  [=(2)] =   -2.64 kcal/mol
DOCKED: USER    
DOCKED: USER    
DOCKED: USER    NEWDPF move ligand.dum.pdbqt
DOCKED: USER    NEWDPF about 0.288000 0.007000 -0.056000
DOCKED: USER    NEWDPF tran0 37.474353 18.606117 120.909274
DOCKED: USER    NEWDPF quaternion0 0.867002 0.311060 0.127419 0.367850
DOCKED: USER    NEWDPF axisangle0 0.932376 0.334514 0.137026 136.833807
DOCKED: USER    NEWDPF quat0 0.932376 0.334514 0.137026 136.833807
DOCKED: USER    NEWDPF dihe0 144.44 -59.44 46.81 -41.72 -106.79 138.48 -46.79 130.57 90.63 178.27 
DOCKED: USER  keepresnum = 1 
DOCKED: USER  
DOCKED: REMARK  Name = 
DOCKED: REMARK  10 active torsions:
DOCKED: REMARK  status: ('A' for Active; 'I' for Inactive)
DOCKED: REMARK    1  A    between atoms: C_2  and  C_5
DOCKED: REMARK    2  A    between atoms: C_6  and  C_7
DOCKED: REMARK    3  A    between atoms: C_10  and  C_11
DOCKED: REMARK    4  A    between atoms: C_11  and  N_12
DOCKED: REMARK    5  A    between atoms: N_12  and  C_13
DOCKED: REMARK    6  A    between atoms: N_12  and  C_16
DOCKED: REMARK    7  A    between atoms: C_13  and  C_14
DOCKED: REMARK    8  A    between atoms: C_14  and  O_15
DOCKED: REMARK    9  A    between atoms: C_16  and  C_17
DOCKED: REMARK   10  A    between atoms: C_17  and  C_18
DOCKED: REMARK                            x       y       z     vdW  Elec       q    Type
DOCKED: REMARK                         _______ _______ _______ _____ _____    ______ ____
DOCKED: USER                              x       y       z     vdW  Elec       q    Type
DOCKED: USER                           _______ _______ _______ _____ _____    ______ ____
DOCKED: ROOT
DOCKED: ATOM      1  N   UNL     1      36.275  18.191 120.494 -0.14 -0.00    +0.000 N 
DOCKED: ATOM      2  H   UNL     1      35.786  17.399 120.077 -0.01 -0.00    +0.000 HD
DOCKED: ENDROOT
DOCKED: BRANCH   1   3
DOCKED: ATOM      3  C   UNL     1      37.464  17.571 121.135 -0.12 -0.00    +0.000 C 
DOCKED: BRANCH   3   7
DOCKED: ATOM      4  C   UNL     1      37.402  13.228 121.153 -0.42 -0.00    +0.000 A 
DOCKED: ATOM      5  C   UNL     1      37.801  13.942 122.293 -0.42 -0.00    +0.000 A 
DOCKED: ATOM      6  C   UNL     1      37.818  15.340 122.288 -0.30 -0.00    +0.000 A 
DOCKED: ATOM      7  C   UNL     1      37.464  16.054 121.133 -0.18 -0.00    +0.000 A 
DOCKED: ATOM      8  C   UNL     1      37.052  15.342 119.995 -0.20 -0.00    +0.000 A 
DOCKED: ATOM      9  C   UNL     1      37.033  13.944 119.998 -0.28 -0.00    +0.000 A 
DOCKED: ATOM     10  CM  UNL     1      37.428  14.641 121.144 +0.00 -0.00    +0.000 AC
DOCKED: BRANCH   4  11
DOCKED: ATOM     11  C   UNL     1      36.804  11.028 122.161 -0.61 -0.00    +0.000 C 
DOCKED: ATOM     12  C   UNL     1      37.412  11.744 121.205 -0.47 -0.00    +0.000 C 
DOCKED: BRANCH  10  13
DOCKED: ATOM     13  O   UNL     1      36.687   8.888 121.123 -2.61 -0.00    +0.000 OA
DOCKED: ATOM     14  C   UNL     1      36.845   9.553 122.184 -0.66 -0.00    +0.000 C 
DOCKED: ATOM     15  N   UNL     1      37.065   8.869 123.420 -0.62 -0.00    +0.000 N 
DOCKED: ATOM     16  O   UNL     1      37.106   7.516 123.457 -2.54 -0.00    +0.000 OA
DOCKED: ATOM     17  H   UNL     1      37.189   9.384 124.250 -0.59 -0.00    +0.000 HD
DOCKED: ENDBRANCH  10  13
DOCKED: ENDBRANCH   4  11
DOCKED: ENDBRANCH   3   7
DOCKED: ENDBRANCH   1   3
DOCKED: BRANCH   1  17
DOCKED: ATOM     18  C   UNL     1      36.575  19.080 119.349 -0.10 -0.00    +0.000 C 
DOCKED: BRANCH  17  18
DOCKED: ATOM     19  C   UNL     1      35.962  18.552 118.049 -0.08 -0.00    +0.000 C 
DOCKED: BRANCH  18  19
DOCKED: ATOM     20  O   UNL     1      35.366  17.305 118.276 -0.15 -0.00    +0.000 OA
DOCKED: ATOM     21  H   UNL     1      34.468  17.434 118.619 -0.01 -0.00    +0.000 HD
DOCKED: ENDBRANCH  18  19
DOCKED: ENDBRANCH  17  18
DOCKED: ENDBRANCH   1  17
DOCKED: BRANCH   1  21
DOCKED: ATOM     22  C   UNL     1      35.329  18.795 121.462 -0.24 -0.00    +0.000 C 
DOCKED: BRANCH  21  22
DOCKED: ATOM     23  C   UNL     1      35.874  18.678 122.889 -0.24 -0.00    +0.000 C 
DOCKED: BRANCH  22  23
DOCKED: ATOM     24  C   UNL     1      35.102  17.658 123.676 -0.32 -0.00    +0.000 A 
DOCKED: ATOM     25  C   UNL     1      34.924  16.321 123.338 -0.40 -0.00    +0.000 A 
DOCKED: ATOM     26  N   UNL     1      34.293  15.661 124.336 -0.58 -0.00    +0.000 N 
DOCKED: ATOM     27  C   UNL     1      34.085  16.567 125.307 -0.42 -0.00    +0.000 A 
DOCKED: ATOM     28  C   UNL     1      34.569  17.798 124.944 -0.34 -0.00    +0.000 A 
DOCKED: ATOM     29  C   UNL     1      34.501  18.896 125.803 -0.24 -0.00    +0.000 A 
DOCKED: ATOM     30  C   UNL     1      33.914  18.705 127.067 -0.21 -0.00    +0.000 A 
DOCKED: ATOM     31  C   UNL     1      33.415  17.438 127.441 -0.32 -0.00    +0.000 A 
DOCKED: ATOM     32  C   UNL     1      33.501  16.348 126.555 -0.31 -0.00    +0.000 A 
DOCKED: ATOM     33  H   UNL     1      34.036  14.711 124.349 -0.07 -0.00    +0.000 HD
DOCKED: ATOM     34  CM  UNL     1      34.585  16.764 124.321 -0.16 -0.00    +0.000 AC
DOCKED: ATOM     35  CM  UNL     1      33.997  17.625 126.186 -0.11 -0.00    +0.000 AC
DOCKED: ENDBRANCH  22  23
DOCKED: ENDBRANCH  21  22
DOCKED: ENDBRANCH   1  21
DOCKED: TORSDOF 10DOCKED: TER
DOCKED: ENDMDL
________________________________________________________________________________


	BEGINNING GENETIC ALGORITHM DOCKING 21 of 100
Run: 21 Seed: 255087775 1760796444 [ Run 21 of 100 GA/GALS ]
Beginning LAMARCKIAN GENETIC ALGORITHM (LGA), with a maximum of 2500000 energy evaluations.

Final-Value: -17.667


	FINAL GENETIC ALGORITHM DOCKED STATE
	_______________________________________________


Detailed state:  trans 36.095 17.318 124.340 quatxyzw -0.213336 0.191332 -0.407209 -0.867214 center 0.288 0.007 -0.056 ntor 10 139.1383 -63.6744 59.0045 179.1344 -69.3282 -158.6739 -156.0898 -31.0513 -132.5457 28.2343
State:	 36.095  17.318 124.340  -0.428  0.384 -0.818 -59.727    139.14  -63.67   59.00  179.13  -69.33 -158.67 -156.09  -31.05 -132.55   28.23

DOCKED: MODEL       21
DOCKED: USER    Run = 21
DOCKED: USER    DPF = ligand_dock.biased.dpf
DOCKED: USER  
DOCKED: USER    Estimated Free Energy of Binding    =  -12.64 kcal/mol  [=(1)+(2)+(3)-(4)]
DOCKED: USER    Estimated Inhibition Constant, Ki   =  545.67 pM (picomolar)  [Temperature = 298.15 K]
DOCKED: USER    
DOCKED: USER    (1) Final Intermolecular Energy     =  -15.62 kcal/mol
DOCKED: USER        vdW + Hbond + desolv Energy     =  -15.62 kcal/mol
DOCKED: USER        Electrostatic Energy            =   +0.00 kcal/mol
DOCKED: USER    (2) Final Total Internal Energy     =   -2.05 kcal/mol
DOCKED: USER    (3) Torsional Free Energy           =   +2.98 kcal/mol
DOCKED: USER    (4) Unbound System's Energy  [=(2)] =   -2.05 kcal/mol
DOCKED: USER    
DOCKED: USER    
DOCKED: USER    NEWDPF move ligand.dum.pdbqt
DOCKED: USER    NEWDPF about 0.288000 0.007000 -0.056000
DOCKED: USER    NEWDPF tran0 36.095009 17.317825 124.340381
DOCKED: USER    NEWDPF quaternion0 -0.213336 0.191332 -0.407209 -0.867214
DOCKED: USER    NEWDPF axisangle0 -0.428442 0.384251 -0.817795 -59.726983
DOCKED: USER    NEWDPF quat0 -0.428442 0.384251 -0.817795 -59.726983
DOCKED: USER    NEWDPF dihe0 139.14 -63.67 59.00 179.13 -69.33 -158.67 -156.09 -31.05 -132.55 28.23 
DOCKED: USER  keepresnum = 1 
DOCKED: USER  
DOCKED: REMARK  Name = 
DOCKED: REMARK  10 active torsions:
DOCKED: REMARK  status: ('A' for Active; 'I' for Inactive)
DOCKED: REMARK    1  A    between atoms: C_2  and  C_5
DOCKED: REMARK    2  A    between atoms: C_6  and  C_7
DOCKED: REMARK    3  A    between atoms: C_10  and  C_11
DOCKED: REMARK    4  A    between atoms: C_11  and  N_12
DOCKED: REMARK    5  A    between atoms: N_12  and  C_13
DOCKED: REMARK    6  A    between atoms: N_12  and  C_16
DOCKED: REMARK    7  A    between atoms: C_13  and  C_14
DOCKED: REMARK    8  A    between atoms: C_14  and  O_15
DOCKED: REMARK    9  A    between atoms: C_16  and  C_17
DOCKED: REMARK   10  A    between atoms: C_17  and  C_18
DOCKED: REMARK                            x       y       z     vdW  Elec       q    Type
DOCKED: REMARK                         _______ _______ _______ _____ _____    ______ ____
DOCKED: USER                              x       y       z     vdW  Elec       q    Type
DOCKED: USER                           _______ _______ _______ _____ _____    ______ ____
DOCKED: ROOT
DOCKED: ATOM      1  N   UNL     1      35.131  18.166 124.707 -0.28 -0.00    +0.000 N 
DOCKED: ATOM      2  H   UNL     1      34.664  19.033 124.441 -0.01 -0.00    +0.000 HD
DOCKED: ENDROOT
DOCKED: BRANCH   1   3
DOCKED: ATOM      3  C   UNL     1      35.685  17.659 123.424 -0.30 -0.00    +0.000 C 
DOCKED: BRANCH   3   7
DOCKED: ATOM      4  C   UNL     1      36.478  13.391 123.299 -0.52 -0.00    +0.000 A 
DOCKED: ATOM      5  C   UNL     1      35.178  13.870 123.516 -0.14 -0.00    +0.000 A 
DOCKED: ATOM      6  C   UNL     1      34.922  15.243 123.553 -0.44 -0.00    +0.000 A 
DOCKED: ATOM      7  C   UNL     1      35.966  16.169 123.403 -0.35 -0.00    +0.000 A 
DOCKED: ATOM      8  C   UNL     1      37.267  15.692 123.173 -0.31 -0.00    +0.000 A 
DOCKED: ATOM      9  C   UNL     1      37.525  14.318 123.134 -0.42 -0.00    +0.000 A 
DOCKED: ATOM     10  CM  UNL     1      36.222  14.780 123.346 +0.00 -0.00    +0.000 AC
DOCKED: BRANCH   4  11
DOCKED: ATOM     11  C   UNL     1      36.622  11.172 122.171 -0.63 -0.00    +0.000 C 
DOCKED: ATOM     12  C   UNL     1      36.700  11.923 123.279 -0.69 -0.00    +0.000 C 
DOCKED: BRANCH  10  13
DOCKED: ATOM     13  O   UNL     1      36.720   9.027 121.142 -2.62 -0.00    +0.000 OA
DOCKED: ATOM     14  C   UNL     1      36.840   9.712 122.194 -0.65 -0.00    +0.000 C 
DOCKED: ATOM     15  N   UNL     1      37.187   9.067 123.421 -0.54 -0.00    +0.000 N 
DOCKED: ATOM     16  O   UNL     1      37.389   7.728 123.459 -2.61 -0.00    +0.000 OA
DOCKED: ATOM     17  H   UNL     1      37.280   9.599 124.245 -0.61 -0.00    +0.000 HD
DOCKED: ENDBRANCH  10  13
DOCKED: ENDBRANCH   4  11
DOCKED: ENDBRANCH   3   7
DOCKED: ENDBRANCH   1   3
DOCKED: BRANCH   1  17
DOCKED: ATOM     18  C   UNL     1      36.144  18.588 125.702 -0.21 -0.00    +0.000 C 
DOCKED: BRANCH  17  18
DOCKED: ATOM     19  C   UNL     1      35.850  19.988 126.248 -0.14 -0.00    +0.000 C 
DOCKED: BRANCH  18  19
DOCKED: ATOM     20  O   UNL     1      34.813  20.577 125.514 -0.19 -0.00    +0.000 OA
DOCKED: ATOM     21  H   UNL     1      33.962  20.221 125.813 -0.01 -0.00    +0.000 HD
DOCKED: ENDBRANCH  18  19
DOCKED: ENDBRANCH  17  18
DOCKED: ENDBRANCH   1  17
DOCKED: BRANCH   1  21
DOCKED: ATOM     22  C   UNL     1      34.082  17.294 125.285 -0.44 -0.00    +0.000 C 
DOCKED: BRANCH  21  22
DOCKED: ATOM     23  C   UNL     1      34.245  17.195 126.806 -0.19 -0.00    +0.000 C 
DOCKED: BRANCH  22  23
DOCKED: ATOM     24  C   UNL     1      32.907  17.158 127.487 -0.35 -0.00    +0.000 A 
DOCKED: ATOM     25  C   UNL     1      32.423  16.134 128.294 -0.23 -0.00    +0.000 A 
DOCKED: ATOM     26  N   UNL     1      31.243  16.488 128.851 -0.47 -0.00    +0.000 N 
DOCKED: ATOM     27  C   UNL     1      30.985  17.733 128.415 -0.35 -0.00    +0.000 A 
DOCKED: ATOM     28  C   UNL     1      31.981  18.179 127.582 -0.14 -0.00    +0.000 A 
DOCKED: ATOM     29  C   UNL     1      31.955  19.460 127.028 -0.23 -0.00    +0.000 A 
DOCKED: ATOM     30  C   UNL     1      30.867  20.292 127.349 -0.26 -0.00    +0.000 A 
DOCKED: ATOM     31  C   UNL     1      29.843  19.833 128.205 -0.30 -0.00    +0.000 A 
DOCKED: ATOM     32  C   UNL     1      29.897  18.538 128.751 -0.33 -0.00    +0.000 A 
DOCKED: ATOM     33  H   UNL     1      30.684  15.945 129.453 -0.63 -0.00    +0.000 HD
DOCKED: ATOM     34  CM  UNL     1      31.887  17.118 128.149 +0.00 -0.00    +0.000 AC
DOCKED: ATOM     35  CM  UNL     1      30.921  19.005 127.888 +0.00 -0.00    +0.000 AC
DOCKED: ENDBRANCH  22  23
DOCKED: ENDBRANCH  21  22
DOCKED: ENDBRANCH   1  21
DOCKED: TORSDOF 10DOCKED: TER
DOCKED: ENDMDL
________________________________________________________________________________


	BEGINNING GENETIC ALGORITHM DOCKING 22 of 100
Run: 22 Seed: 900659375 1490753484 [ Run 22 of 100 GA/GALS ]
Beginning LAMARCKIAN GENETIC ALGORITHM (LGA), with a maximum of 2500000 energy evaluations.

Final-Value: -16.266


	FINAL GENETIC ALGORITHM DOCKED STATE
	_______________________________________________


Detailed state:  trans 36.462 17.276 122.886 quatxyzw 0.934156 -0.230121 -0.115519 -0.247088 center 0.288 0.007 -0.056 ntor 10 -128.4229 54.8142 180.0000 173.1023 -27.0421 133.9216 146.6427 -179.6645 98.9660 -63.7849
State:	 36.462  17.276 122.886   0.964 -0.237 -0.119 -151.389   -128.42   54.81  180.00  173.10  -27.04  133.92  146.64 -179.66   98.97  -63.78

DOCKED: MODEL       22
DOCKED: USER    Run = 22
DOCKED: USER    DPF = ligand_dock.biased.dpf
DOCKED: USER  
DOCKED: USER    Estimated Free Energy of Binding    =  -10.52 kcal/mol  [=(1)+(2)+(3)-(4)]
DOCKED: USER    Estimated Inhibition Constant, Ki   =   19.60 nM (nanomolar)  [Temperature = 298.15 K]
DOCKED: USER    
DOCKED: USER    (1) Final Intermolecular Energy     =  -13.50 kcal/mol
DOCKED: USER        vdW + Hbond + desolv Energy     =  -13.50 kcal/mol
DOCKED: USER        Electrostatic Energy            =   +0.00 kcal/mol
DOCKED: USER    (2) Final Total Internal Energy     =   -2.77 kcal/mol
DOCKED: USER    (3) Torsional Free Energy           =   +2.98 kcal/mol
DOCKED: USER    (4) Unbound System's Energy  [=(2)] =   -2.77 kcal/mol
DOCKED: USER    
DOCKED: USER    
DOCKED: USER    NEWDPF move ligand.dum.pdbqt
DOCKED: USER    NEWDPF about 0.288000 0.007000 -0.056000
DOCKED: USER    NEWDPF tran0 36.461826 17.276068 122.885690
DOCKED: USER    NEWDPF quaternion0 0.934156 -0.230121 -0.115519 -0.247088
DOCKED: USER    NEWDPF axisangle0 0.964048 -0.237484 -0.119215 -151.389471
DOCKED: USER    NEWDPF quat0 0.964048 -0.237484 -0.119215 -151.389471
DOCKED: USER    NEWDPF dihe0 -128.42 54.81 180.00 173.10 -27.04 133.92 146.64 -179.66 98.97 -63.78 
DOCKED: USER  keepresnum = 1 
DOCKED: USER  
DOCKED: REMARK  Name = 
DOCKED: REMARK  10 active torsions:
DOCKED: REMARK  status: ('A' for Active; 'I' for Inactive)
DOCKED: REMARK    1  A    between atoms: C_2  and  C_5
DOCKED: REMARK    2  A    between atoms: C_6  and  C_7
DOCKED: REMARK    3  A    between atoms: C_10  and  C_11
DOCKED: REMARK    4  A    between atoms: C_11  and  N_12
DOCKED: REMARK    5  A    between atoms: N_12  and  C_13
DOCKED: REMARK    6  A    between atoms: N_12  and  C_16
DOCKED: REMARK    7  A    between atoms: C_13  and  C_14
DOCKED: REMARK    8  A    between atoms: C_14  and  O_15
DOCKED: REMARK    9  A    between atoms: C_16  and  C_17
DOCKED: REMARK   10  A    between atoms: C_17  and  C_18
DOCKED: REMARK                            x       y       z     vdW  Elec       q    Type
DOCKED: REMARK                         _______ _______ _______ _____ _____    ______ ____
DOCKED: USER                              x       y       z     vdW  Elec       q    Type
DOCKED: USER                           _______ _______ _______ _____ _____    ______ ____
DOCKED: ROOT
DOCKED: ATOM      1  N   UNL     1      35.448  18.144 122.861 -0.25 -0.00    +0.000 N 
DOCKED: ATOM      2  H   UNL     1      34.611  18.435 123.366 -0.01 -0.00    +0.000 HD
DOCKED: ENDROOT
DOCKED: BRANCH   1   3
DOCKED: ATOM      3  C   UNL     1      36.282  17.497 123.907 -0.28 -0.00    +0.000 C 
DOCKED: BRANCH   3   7
DOCKED: ATOM      4  C   UNL     1      36.637  13.193 123.448 -0.55 -0.00    +0.000 A 
DOCKED: ATOM      5  C   UNL     1      35.567  13.750 124.164 -0.29 -0.00    +0.000 A 
DOCKED: ATOM      6  C   UNL     1      35.451  15.135 124.310 -0.43 -0.00    +0.000 A 
DOCKED: ATOM      7  C   UNL     1      36.419  15.994 123.765 -0.33 -0.00    +0.000 A 
DOCKED: ATOM      8  C   UNL     1      37.484  15.440 123.036 -0.33 -0.00    +0.000 A 
DOCKED: ATOM      9  C   UNL     1      37.601  14.054 122.889 -0.44 -0.00    +0.000 A 
DOCKED: ATOM     10  CM  UNL     1      36.526  14.594 123.602 +0.00 -0.00    +0.000 AC
DOCKED: BRANCH   4  11
DOCKED: ATOM     11  C   UNL     1      36.942  11.070 122.177 -0.58 -0.00    +0.000 C 
DOCKED: ATOM     12  C   UNL     1      36.721  11.715 123.331 -0.69 -0.00    +0.000 C 
DOCKED: BRANCH  10  13
DOCKED: ATOM     13  O   UNL     1      37.064   9.012 120.985 -2.72 -0.00    +0.000 OA
DOCKED: ATOM     14  C   UNL     1      37.009   9.597 122.101 -0.62 -0.00    +0.000 C 
DOCKED: ATOM     15  N   UNL     1      37.008   8.825 123.304 -0.65 -0.00    +0.000 N 
DOCKED: ATOM     16  O   UNL     1      37.068   7.473 123.251 -2.45 -0.00    +0.000 OA
DOCKED: ATOM     17  H   UNL     1      36.964   9.278 124.177 -0.55 -0.00    +0.000 HD
DOCKED: ENDBRANCH  10  13
DOCKED: ENDBRANCH   4  11
DOCKED: ENDBRANCH   3   7
DOCKED: ENDBRANCH   1   3
DOCKED: BRANCH   1  17
DOCKED: ATOM     18  C   UNL     1      34.941  17.231 121.810 -0.30 -0.00    +0.000 C 
DOCKED: BRANCH  17  18
DOCKED: ATOM     19  C   UNL     1      35.629  17.481 120.465 -0.22 -0.00    +0.000 C 
DOCKED: BRANCH  18  19
DOCKED: ATOM     20  O   UNL     1      36.479  16.410 120.158 -0.20 -0.00    +0.000 OA
DOCKED: ATOM     21  H   UNL     1      36.805  16.507 119.250 -0.00 -0.00    +0.000 HD
DOCKED: ENDBRANCH  18  19
DOCKED: ENDBRANCH  17  18
DOCKED: ENDBRANCH   1  17
DOCKED: BRANCH   1  21
DOCKED: ATOM     22  C   UNL     1      36.046  19.383 122.309 -0.19 -0.00    +0.000 C 
DOCKED: BRANCH  21  22
DOCKED: ATOM     23  C   UNL     1      37.502  19.525 122.766 -0.11 -0.00    +0.000 C 
DOCKED: BRANCH  22  23
DOCKED: ATOM     24  C   UNL     1      38.426  18.774 121.852 -0.06 -0.00    +0.000 A 
DOCKED: ATOM     25  C   UNL     1      38.487  18.889 120.467 -0.03 -0.00    +0.000 A 
DOCKED: ATOM     26  N   UNL     1      39.522  18.171 119.977 -0.03 -0.00    +0.000 N 
DOCKED: ATOM     27  C   UNL     1      40.125  17.615 121.043 -0.08 -0.00    +0.000 A 
DOCKED: ATOM     28  C   UNL     1      39.488  17.963 122.206 -0.10 -0.00    +0.000 A 
DOCKED: ATOM     29  C   UNL     1      39.950  17.534 123.452 -0.22 -0.00    +0.000 A 
DOCKED: ATOM     30  C   UNL     1      41.100  16.725 123.483 -0.29 -0.00    +0.000 A 
DOCKED: ATOM     31  C   UNL     1      41.755  16.367 122.285 -0.33 -0.00    +0.000 A 
DOCKED: ATOM     32  C   UNL     1      41.269  16.816 121.044 -0.15 -0.00    +0.000 A 
DOCKED: ATOM     33  H   UNL     1      39.782  18.073 119.033 +0.00 -0.00    +0.000 HD
DOCKED: ATOM     34  CM  UNL     1      39.220  18.279 121.073 +0.00 -0.00    +0.000 AC
DOCKED: ATOM     35  CM  UNL     1      40.614  17.170 122.252 +0.00 -0.00    +0.000 AC
DOCKED: ENDBRANCH  22  23
DOCKED: ENDBRANCH  21  22
DOCKED: ENDBRANCH   1  21
DOCKED: TORSDOF 10DOCKED: TER
DOCKED: ENDMDL
________________________________________________________________________________


	BEGINNING GENETIC ALGORITHM DOCKING 23 of 100
Run: 23 Seed: 425423816 427902669 [ Run 23 of 100 GA/GALS ]
Beginning LAMARCKIAN GENETIC ALGORITHM (LGA), with a maximum of 2500000 energy evaluations.

Final-Value: -16.023


	FINAL GENETIC ALGORITHM DOCKED STATE
	_______________________________________________


Detailed state:  trans 35.318 17.940 123.631 quatxyzw 0.635514 0.070584 -0.755499 0.142690 center 0.288 0.007 -0.056 ntor 10 157.0854 62.1515 36.3820 -175.1544 124.5093 162.9097 176.6172 133.4099 -169.3401 -135.6734
State:	 35.318  17.940 123.631   0.642  0.071 -0.763 163.593    157.09   62.15   36.38 -175.15  124.51  162.91  176.62  133.41 -169.34 -135.67

DOCKED: MODEL       23
DOCKED: USER    Run = 23
DOCKED: USER    DPF = ligand_dock.biased.dpf
DOCKED: USER  
DOCKED: USER    Estimated Free Energy of Binding    =  -11.50 kcal/mol  [=(1)+(2)+(3)-(4)]
DOCKED: USER    Estimated Inhibition Constant, Ki   =    3.70 nM (nanomolar)  [Temperature = 298.15 K]
DOCKED: USER    
DOCKED: USER    (1) Final Intermolecular Energy     =  -14.49 kcal/mol
DOCKED: USER        vdW + Hbond + desolv Energy     =  -14.49 kcal/mol
DOCKED: USER        Electrostatic Energy            =   +0.00 kcal/mol
DOCKED: USER    (2) Final Total Internal Energy     =   -1.54 kcal/mol
DOCKED: USER    (3) Torsional Free Energy           =   +2.98 kcal/mol
DOCKED: USER    (4) Unbound System's Energy  [=(2)] =   -1.54 kcal/mol
DOCKED: USER    
DOCKED: USER    
DOCKED: USER    NEWDPF move ligand.dum.pdbqt
DOCKED: USER    NEWDPF about 0.288000 0.007000 -0.056000
DOCKED: USER    NEWDPF tran0 35.318482 17.940349 123.630589
DOCKED: USER    NEWDPF quaternion0 0.635514 0.070584 -0.755499 0.142690
DOCKED: USER    NEWDPF axisangle0 0.642084 0.071314 -0.763310 163.592963
DOCKED: USER    NEWDPF quat0 0.642084 0.071314 -0.763310 163.592963
DOCKED: USER    NEWDPF dihe0 157.09 62.15 36.38 -175.15 124.51 162.91 176.62 133.41 -169.34 -135.67 
DOCKED: USER  keepresnum = 1 
DOCKED: USER  
DOCKED: REMARK  Name = 
DOCKED: REMARK  10 active torsions:
DOCKED: REMARK  status: ('A' for Active; 'I' for Inactive)
DOCKED: REMARK    1  A    between atoms: C_2  and  C_5
DOCKED: REMARK    2  A    between atoms: C_6  and  C_7
DOCKED: REMARK    3  A    between atoms: C_10  and  C_11
DOCKED: REMARK    4  A    between atoms: C_11  and  N_12
DOCKED: REMARK    5  A    between atoms: N_12  and  C_13
DOCKED: REMARK    6  A    between atoms: N_12  and  C_16
DOCKED: REMARK    7  A    between atoms: C_13  and  C_14
DOCKED: REMARK    8  A    between atoms: C_14  and  O_15
DOCKED: REMARK    9  A    between atoms: C_16  and  C_17
DOCKED: REMARK   10  A    between atoms: C_17  and  C_18
DOCKED: REMARK                            x       y       z     vdW  Elec       q    Type
DOCKED: REMARK                         _______ _______ _______ _____ _____    ______ ____
DOCKED: USER                              x       y       z     vdW  Elec       q    Type
DOCKED: USER                           _______ _______ _______ _____ _____    ______ ____
DOCKED: ROOT
DOCKED: ATOM      1  N   UNL     1      35.553  17.833 124.941 -0.27 -0.00    +0.000 N 
DOCKED: ATOM      2  H   UNL     1      35.916  17.202 125.655 -0.02 -0.00    +0.000 HD
DOCKED: ENDROOT
DOCKED: BRANCH   1   3
DOCKED: ATOM      3  C   UNL     1      36.203  17.360 123.691 -0.29 -0.00    +0.000 C 
DOCKED: BRANCH   3   7
DOCKED: ATOM      4  C   UNL     1      36.613  13.044 123.434 -0.56 -0.00    +0.000 A 
DOCKED: ATOM      5  C   UNL     1      37.689  13.885 123.111 -0.45 -0.00    +0.000 A 
DOCKED: ATOM      6  C   UNL     1      37.558  15.274 123.196 -0.33 -0.00    +0.000 A 
DOCKED: ATOM      7  C   UNL     1      36.339  15.854 123.580 -0.35 -0.00    +0.000 A 
DOCKED: ATOM      8  C   UNL     1      35.264  15.014 123.916 -0.50 -0.00    +0.000 A 
DOCKED: ATOM      9  C   UNL     1      35.393  13.625 123.832 -0.26 -0.00    +0.000 A 
DOCKED: ATOM     10  CM  UNL     1      36.477  14.449 123.511 +0.00 -0.00    +0.000 AC
DOCKED: BRANCH   4  11
DOCKED: ATOM     11  C   UNL     1      36.804  10.916 122.149 -0.61 -0.00    +0.000 C 
DOCKED: ATOM     12  C   UNL     1      36.799  11.576 123.316 -0.69 -0.00    +0.000 C 
DOCKED: BRANCH  10  13
DOCKED: ATOM     13  O   UNL     1      37.049   8.869 120.958 -2.71 -0.00    +0.000 OA
DOCKED: ATOM     14  C   UNL     1      36.982   9.453 122.074 -0.64 -0.00    +0.000 C 
DOCKED: ATOM     15  N   UNL     1      37.078   8.688 123.278 -0.67 -0.00    +0.000 N 
DOCKED: ATOM     16  O   UNL     1      37.242   7.345 123.227 -2.28 -0.00    +0.000 OA
DOCKED: ATOM     17  H   UNL     1      37.026   9.141 124.151 -0.55 -0.00    +0.000 HD
DOCKED: ENDBRANCH  10  13
DOCKED: ENDBRANCH   4  11
DOCKED: ENDBRANCH   3   7
DOCKED: ENDBRANCH   1   3
DOCKED: BRANCH   1  17
DOCKED: ATOM     18  C   UNL     1      34.085  17.640 124.994 -0.42 -0.00    +0.000 C 
DOCKED: BRANCH  17  18
DOCKED: ATOM     19  C   UNL     1      33.700  16.508 125.951 -0.41 -0.00    +0.000 C 
DOCKED: BRANCH  18  19
DOCKED: ATOM     20  O   UNL     1      32.933  17.017 127.006 -0.58 -0.00    +0.000 OA
DOCKED: ATOM     21  H   UNL     1      31.991  16.887 126.813 -0.37 -0.00    +0.000 HD
DOCKED: ENDBRANCH  18  19
DOCKED: ENDBRANCH  17  18
DOCKED: ENDBRANCH   1  17
DOCKED: BRANCH   1  21
DOCKED: ATOM     22  C   UNL     1      35.971  19.196 125.346 -0.20 -0.00    +0.000 C 
DOCKED: BRANCH  21  22
DOCKED: ATOM     23  C   UNL     1      34.882  20.217 124.997 -0.11 -0.00    +0.000 C 
DOCKED: BRANCH  22  23
DOCKED: ATOM     24  C   UNL     1      34.315  20.841 126.240 -0.14 -0.00    +0.000 A 
DOCKED: ATOM     25  C   UNL     1      34.873  21.890 126.962 -0.07 -0.00    +0.000 A 
DOCKED: ATOM     26  N   UNL     1      34.033  22.289 127.943 -0.04 -0.00    +0.000 N 
DOCKED: ATOM     27  C   UNL     1      32.942  21.511 127.837 -0.09 -0.00    +0.000 A 
DOCKED: ATOM     28  C   UNL     1      33.074  20.616 126.805 -0.17 -0.00    +0.000 A 
DOCKED: ATOM     29  C   UNL     1      32.054  19.722 126.475 -0.18 -0.00    +0.000 A 
DOCKED: ATOM     30  C   UNL     1      30.874  19.762 127.238 -0.29 -0.00    +0.000 A 
DOCKED: ATOM     31  C   UNL     1      30.738  20.682 128.300 -0.17 -0.00    +0.000 A 
DOCKED: ATOM     32  C   UNL     1      31.781  21.574 128.607 -0.07 -0.00    +0.000 A 
DOCKED: ATOM     33  H   UNL     1      34.188  23.004 128.602 +0.00 -0.00    +0.000 HD
DOCKED: ATOM     34  CM  UNL     1      33.853  21.457 127.182 +0.00 -0.00    +0.000 AC
DOCKED: ATOM     35  CM  UNL     1      31.911  20.644 127.544 +0.00 -0.00    +0.000 AC
DOCKED: ENDBRANCH  22  23
DOCKED: ENDBRANCH  21  22
DOCKED: ENDBRANCH   1  21
DOCKED: TORSDOF 10DOCKED: TER
DOCKED: ENDMDL
________________________________________________________________________________


	BEGINNING GENETIC ALGORITHM DOCKING 24 of 100
Run: 24 Seed: 1242244487 1766684812 [ Run 24 of 100 GA/GALS ]
Beginning LAMARCKIAN GENETIC ALGORITHM (LGA), with a maximum of 2500000 energy evaluations.

Final-Value: -16.358


	FINAL GENETIC ALGORITHM DOCKED STATE
	_______________________________________________


Detailed state:  trans 37.579 18.340 123.213 quatxyzw -0.425617 0.468887 0.467319 -0.616935 center 0.288 0.007 -0.056 ntor 10 130.7947 -33.1773 55.5259 160.1034 144.1172 -61.0513 164.1943 -171.8180 179.9692 127.1251
State:	 37.579  18.340 123.213  -0.541  0.596  0.594 -103.815    130.79  -33.18   55.53  160.10  144.12  -61.05  164.19 -171.82  179.97  127.13

DOCKED: MODEL       24
DOCKED: USER    Run = 24
DOCKED: USER    DPF = ligand_dock.biased.dpf
DOCKED: USER  
DOCKED: USER    Estimated Free Energy of Binding    =  -10.98 kcal/mol  [=(1)+(2)+(3)-(4)]
DOCKED: USER    Estimated Inhibition Constant, Ki   =    8.92 nM (nanomolar)  [Temperature = 298.15 K]
DOCKED: USER    
DOCKED: USER    (1) Final Intermolecular Energy     =  -13.96 kcal/mol
DOCKED: USER        vdW + Hbond + desolv Energy     =  -13.96 kcal/mol
DOCKED: USER        Electrostatic Energy            =   +0.00 kcal/mol
DOCKED: USER    (2) Final Total Internal Energy     =   -2.39 kcal/mol
DOCKED: USER    (3) Torsional Free Energy           =   +2.98 kcal/mol
DOCKED: USER    (4) Unbound System's Energy  [=(2)] =   -2.39 kcal/mol
DOCKED: USER    
DOCKED: USER    
DOCKED: USER    NEWDPF move ligand.dum.pdbqt
DOCKED: USER    NEWDPF about 0.288000 0.007000 -0.056000
DOCKED: USER    NEWDPF tran0 37.578702 18.340305 123.213430
DOCKED: USER    NEWDPF quaternion0 -0.425617 0.468887 0.467319 -0.616935
DOCKED: USER    NEWDPF axisangle0 -0.540800 0.595779 0.593787 -103.814727
DOCKED: USER    NEWDPF quat0 -0.540800 0.595779 0.593787 -103.814727
DOCKED: USER    NEWDPF dihe0 130.79 -33.18 55.53 160.10 144.12 -61.05 164.19 -171.82 179.97 127.13 
DOCKED: USER  keepresnum = 1 
DOCKED: USER  
DOCKED: REMARK  Name = 
DOCKED: REMARK  10 active torsions:
DOCKED: REMARK  status: ('A' for Active; 'I' for Inactive)
DOCKED: REMARK    1  A    between atoms: C_2  and  C_5
DOCKED: REMARK    2  A    between atoms: C_6  and  C_7
DOCKED: REMARK    3  A    between atoms: C_10  and  C_11
DOCKED: REMARK    4  A    between atoms: C_11  and  N_12
DOCKED: REMARK    5  A    between atoms: N_12  and  C_13
DOCKED: REMARK    6  A    between atoms: N_12  and  C_16
DOCKED: REMARK    7  A    between atoms: C_13  and  C_14
DOCKED: REMARK    8  A    between atoms: C_14  and  O_15
DOCKED: REMARK    9  A    between atoms: C_16  and  C_17
DOCKED: REMARK   10  A    between atoms: C_17  and  C_18
DOCKED: REMARK                            x       y       z     vdW  Elec       q    Type
DOCKED: REMARK                         _______ _______ _______ _____ _____    ______ ____
DOCKED: USER                              x       y       z     vdW  Elec       q    Type
DOCKED: USER                           _______ _______ _______ _____ _____    ______ ____
DOCKED: ROOT
DOCKED: ATOM      1  N   UNL     1      37.716  18.049 124.509 -0.20 -0.00    +0.000 N 
DOCKED: ATOM      2  H   UNL     1      37.213  17.693 125.322 -0.02 -0.00    +0.000 HD
DOCKED: ENDROOT
DOCKED: BRANCH   1   3
DOCKED: ATOM      3  C   UNL     1      36.959  17.493 123.358 -0.23 -0.00    +0.000 C 
DOCKED: BRANCH   3   7
DOCKED: ATOM      4  C   UNL     1      36.759  13.154 123.326 -0.54 -0.00    +0.000 A 
DOCKED: ATOM      5  C   UNL     1      37.909  13.821 122.877 -0.45 -0.00    +0.000 A 
DOCKED: ATOM      6  C   UNL     1      37.975  15.216 122.890 -0.33 -0.00    +0.000 A 
DOCKED: ATOM      7  C   UNL     1      36.880  15.979 123.326 -0.31 -0.00    +0.000 A 
DOCKED: ATOM      8  C   UNL     1      35.732  15.314 123.788 -0.44 -0.00    +0.000 A 
DOCKED: ATOM      9  C   UNL     1      35.665  13.918 123.777 -0.48 -0.00    +0.000 A 
DOCKED: ATOM     10  CM  UNL     1      36.821  14.567 123.331 +0.00 -0.00    +0.000 AC
DOCKED: BRANCH   4  11
DOCKED: ATOM     11  C   UNL     1      36.937  10.955 122.166 -0.58 -0.00    +0.000 C 
DOCKED: ATOM     12  C   UNL     1      36.735  11.671 123.282 -0.69 -0.00    +0.000 C 
DOCKED: BRANCH  10  13
DOCKED: ATOM     13  O   UNL     1      36.690   8.845 121.091 -2.61 -0.00    +0.000 OA
DOCKED: ATOM     14  C   UNL     1      36.895   9.479 122.162 -0.66 -0.00    +0.000 C 
DOCKED: ATOM     15  N   UNL     1      37.086   8.761 123.382 -0.64 -0.00    +0.000 N 
DOCKED: ATOM     16  O   UNL     1      37.050   7.407 123.395 -2.45 -0.00    +0.000 OA
DOCKED: ATOM     17  H   UNL     1      37.246   9.253 124.221 -0.61 -0.00    +0.000 HD
DOCKED: ENDBRANCH  10  13
DOCKED: ENDBRANCH   4  11
DOCKED: ENDBRANCH   3   7
DOCKED: ENDBRANCH   1   3
DOCKED: BRANCH   1  17
DOCKED: ATOM     18  C   UNL     1      37.645  19.522 124.652 -0.13 -0.00    +0.000 C 
DOCKED: BRANCH  17  18
DOCKED: ATOM     19  C   UNL     1      37.174  19.931 126.051 -0.12 -0.00    +0.000 C 
DOCKED: BRANCH  18  19
DOCKED: ATOM     20  O   UNL     1      37.404  18.886 126.955 -0.18 -0.00    +0.000 OA
DOCKED: ATOM     21  H   UNL     1      38.357  18.796 127.109 -0.01 -0.00    +0.000 HD
DOCKED: ENDBRANCH  18  19
DOCKED: ENDBRANCH  17  18
DOCKED: ENDBRANCH   1  17
DOCKED: BRANCH   1  21
DOCKED: ATOM     22  C   UNL     1      39.098  17.525 124.618 -0.11 -0.00    +0.000 C 
DOCKED: BRANCH  21  22
DOCKED: ATOM     23  C   UNL     1      40.078  18.438 123.874 -0.21 -0.00    +0.000 C 
DOCKED: BRANCH  22  23
DOCKED: ATOM     24  C   UNL     1      40.848  19.295 124.837 -0.17 -0.00    +0.000 A 
DOCKED: ATOM     25  C   UNL     1      41.224  20.620 124.641 -0.08 -0.00    +0.000 A 
DOCKED: ATOM     26  N   UNL     1      41.786  21.124 125.763 -0.10 -0.00    +0.000 N 
DOCKED: ATOM     27  C   UNL     1      41.754  20.133 126.671 -0.14 -0.00    +0.000 A 
DOCKED: ATOM     28  C   UNL     1      41.185  19.001 126.145 -0.25 -0.00    +0.000 A 
DOCKED: ATOM     29  C   UNL     1      41.010  17.845 126.908 -0.35 -0.00    +0.000 A 
DOCKED: ATOM     30  C   UNL     1      41.439  17.872 128.247 -0.46 -0.00    +0.000 A 
DOCKED: ATOM     31  C   UNL     1      42.025  19.037 128.788 -0.26 -0.00    +0.000 A 
DOCKED: ATOM     32  C   UNL     1      42.185  20.188 127.996 -0.16 -0.00    +0.000 A 
DOCKED: ATOM     33  H   UNL     1      42.145  22.031 125.890 -0.00 -0.00    +0.000 HD
DOCKED: ATOM     34  CM  UNL     1      41.373  20.070 125.616 +0.00 -0.00    +0.000 AC
DOCKED: ATOM     35  CM  UNL     1      41.600  19.012 127.459 +0.00 -0.00    +0.000 AC
DOCKED: ENDBRANCH  22  23
DOCKED: ENDBRANCH  21  22
DOCKED: ENDBRANCH   1  21
DOCKED: TORSDOF 10DOCKED: TER
DOCKED: ENDMDL
________________________________________________________________________________


	BEGINNING GENETIC ALGORITHM DOCKING 25 of 100
Run: 25 Seed: 939358480 1451561653 [ Run 25 of 100 GA/GALS ]
Beginning LAMARCKIAN GENETIC ALGORITHM (LGA), with a maximum of 2500000 energy evaluations.

Final-Value: -15.949


	FINAL GENETIC ALGORITHM DOCKED STATE
	_______________________________________________


Detailed state:  trans 35.842 17.201 121.287 quatxyzw 0.635601 -0.041109 -0.694476 -0.334699 center 0.288 0.007 -0.056 ntor 10 -30.4692 -79.9948 49.6811 -172.5916 180.0000 -46.6323 142.8073 38.0083 103.6741 -81.6163
State:	 35.842  17.201 121.287   0.675 -0.044 -0.737 -140.892    -30.47  -79.99   49.68 -172.59  180.00  -46.63  142.81   38.01  103.67  -81.62

DOCKED: MODEL       25
DOCKED: USER    Run = 25
DOCKED: USER    DPF = ligand_dock.biased.dpf
DOCKED: USER  
DOCKED: USER    Estimated Free Energy of Binding    =  -10.40 kcal/mol  [=(1)+(2)+(3)-(4)]
DOCKED: USER    Estimated Inhibition Constant, Ki   =   23.70 nM (nanomolar)  [Temperature = 298.15 K]
DOCKED: USER    
DOCKED: USER    (1) Final Intermolecular Energy     =  -13.39 kcal/mol
DOCKED: USER        vdW + Hbond + desolv Energy     =  -13.39 kcal/mol
DOCKED: USER        Electrostatic Energy            =   +0.00 kcal/mol
DOCKED: USER    (2) Final Total Internal Energy     =   -2.56 kcal/mol
DOCKED: USER    (3) Torsional Free Energy           =   +2.98 kcal/mol
DOCKED: USER    (4) Unbound System's Energy  [=(2)] =   -2.56 kcal/mol
DOCKED: USER    
DOCKED: USER    
DOCKED: USER    NEWDPF move ligand.dum.pdbqt
DOCKED: USER    NEWDPF about 0.288000 0.007000 -0.056000
DOCKED: USER    NEWDPF tran0 35.841961 17.200831 121.286973
DOCKED: USER    NEWDPF quaternion0 0.635601 -0.041109 -0.694476 -0.334699
DOCKED: USER    NEWDPF axisangle0 0.674503 -0.043625 -0.736982 -140.891511
DOCKED: USER    NEWDPF quat0 0.674503 -0.043625 -0.736982 -140.891511
DOCKED: USER    NEWDPF dihe0 -30.47 -79.99 49.68 -172.59 180.00 -46.63 142.81 38.01 103.67 -81.62 
DOCKED: USER  keepresnum = 1 
DOCKED: USER  
DOCKED: REMARK  Name = 
DOCKED: REMARK  10 active torsions:
DOCKED: REMARK  status: ('A' for Active; 'I' for Inactive)
DOCKED: REMARK    1  A    between atoms: C_2  and  C_5
DOCKED: REMARK    2  A    between atoms: C_6  and  C_7
DOCKED: REMARK    3  A    between atoms: C_10  and  C_11
DOCKED: REMARK    4  A    between atoms: C_11  and  N_12
DOCKED: REMARK    5  A    between atoms: N_12  and  C_13
DOCKED: REMARK    6  A    between atoms: N_12  and  C_16
DOCKED: REMARK    7  A    between atoms: C_13  and  C_14
DOCKED: REMARK    8  A    between atoms: C_14  and  O_15
DOCKED: REMARK    9  A    between atoms: C_16  and  C_17
DOCKED: REMARK   10  A    between atoms: C_17  and  C_18
DOCKED: REMARK                            x       y       z     vdW  Elec       q    Type
DOCKED: REMARK                         _______ _______ _______ _____ _____    ______ ____
DOCKED: USER                              x       y       z     vdW  Elec       q    Type
DOCKED: USER                           _______ _______ _______ _____ _____    ______ ____
DOCKED: ROOT
DOCKED: ATOM      1  N   UNL     1      35.674  18.108 122.252 -0.23 -0.00    +0.000 N 
DOCKED: ATOM      2  H   UNL     1      36.036  18.415 123.154 +0.00 -0.00    +0.000 HD
DOCKED: ENDROOT
DOCKED: BRANCH   1   3
DOCKED: ATOM      3  C   UNL     1      36.824  17.397 121.636 -0.18 -0.00    +0.000 C 
DOCKED: BRANCH   3   7
DOCKED: ATOM      4  C   UNL     1      36.988  13.124 122.397 -0.48 -0.00    +0.000 A 
DOCKED: ATOM      5  C   UNL     1      37.119  13.624 121.093 -0.35 -0.00    +0.000 A 
DOCKED: ATOM      6  C   UNL     1      37.069  14.998 120.848 -0.22 -0.00    +0.000 A 
DOCKED: ATOM      7  C   UNL     1      36.858  15.904 121.900 -0.23 -0.00    +0.000 A 
DOCKED: ATOM      8  C   UNL     1      36.739  15.408 123.208 -0.35 -0.00    +0.000 A 
DOCKED: ATOM      9  C   UNL     1      36.790  14.032 123.455 -0.46 -0.00    +0.000 A 
DOCKED: ATOM     10  CM  UNL     1      36.927  14.514 122.149 +0.00 -0.00    +0.000 AC
DOCKED: BRANCH   4  11
DOCKED: ATOM     11  C   UNL     1      36.800  10.758 121.635 -0.49 -0.00    +0.000 C 
DOCKED: ATOM     12  C   UNL     1      37.037  11.655 122.603 -0.62 -0.00    +0.000 C 
DOCKED: BRANCH  10  13
DOCKED: ATOM     13  O   UNL     1      36.735   8.484 120.930 -2.29 -0.00    +0.000 OA
DOCKED: ATOM     14  C   UNL     1      36.849   9.303 121.883 -0.66 -0.00    +0.000 C 
DOCKED: ATOM     15  N   UNL     1      37.023   8.817 123.215 -0.67 -0.00    +0.000 N 
DOCKED: ATOM     16  O   UNL     1      37.070   7.485 123.459 -2.53 -0.00    +0.000 OA
DOCKED: ATOM     17  H   UNL     1      37.112   9.454 123.961 -0.52 -0.00    +0.000 HD
DOCKED: ENDBRANCH  10  13
DOCKED: ENDBRANCH   4  11
DOCKED: ENDBRANCH   3   7
DOCKED: ENDBRANCH   1   3
DOCKED: BRANCH   1  17
DOCKED: ATOM     18  C   UNL     1      34.517  17.249 122.596 -0.41 -0.00    +0.000 C 
DOCKED: BRANCH  17  18
DOCKED: ATOM     19  C   UNL     1      34.204  17.298 124.094 -0.43 -0.00    +0.000 C 
DOCKED: BRANCH  18  19
DOCKED: ATOM     20  O   UNL     1      35.358  17.641 124.811 -0.33 -0.00    +0.000 OA
DOCKED: ATOM     21  H   UNL     1      35.835  16.835 125.060 -0.02 -0.00    +0.000 HD
DOCKED: ENDBRANCH  18  19
DOCKED: ENDBRANCH  17  18
DOCKED: ENDBRANCH   1  17
DOCKED: BRANCH   1  21
DOCKED: ATOM     22  C   UNL     1      35.282  19.339 121.526 +0.05 -0.00    +0.000 C 
DOCKED: BRANCH  21  22
DOCKED: ATOM     23  C   UNL     1      35.898  19.353 120.122 -0.16 -0.00    +0.000 C 
DOCKED: BRANCH  22  23
DOCKED: ATOM     24  C   UNL     1      35.080  18.529 119.170 -0.17 -0.00    +0.000 A 
DOCKED: ATOM     25  C   UNL     1      35.553  17.518 118.341 -0.12 -0.00    +0.000 A 
DOCKED: ATOM     26  N   UNL     1      34.527  16.896 117.718 -0.15 -0.00    +0.000 N 
DOCKED: ATOM     27  C   UNL     1      33.407  17.497 118.159 -0.07 -0.00    +0.000 A 
DOCKED: ATOM     28  C   UNL     1      33.703  18.497 119.050 -0.24 -0.00    +0.000 A 
DOCKED: ATOM     29  C   UNL     1      32.702  19.245 119.672 -0.28 -0.00    +0.000 A 
DOCKED: ATOM     30  C   UNL     1      31.365  18.943 119.357 -0.42 -0.00    +0.000 A 
DOCKED: ATOM     31  C   UNL     1      31.061  17.914 118.439 -0.29 -0.00    +0.000 A 
DOCKED: ATOM     32  C   UNL     1      32.091  17.175 117.830 -0.07 -0.00    +0.000 A 
DOCKED: ATOM     33  H   UNL     1      34.585  16.155 117.073 -0.01 -0.00    +0.000 HD
DOCKED: ATOM     34  CM  UNL     1      34.456  17.758 118.463 +0.00 -0.00    +0.000 AC
DOCKED: ATOM     35  CM  UNL     1      32.389  18.212 118.751 +0.00 -0.00    +0.000 AC
DOCKED: ENDBRANCH  22  23
DOCKED: ENDBRANCH  21  22
DOCKED: ENDBRANCH   1  21
DOCKED: TORSDOF 10DOCKED: TER
DOCKED: ENDMDL
________________________________________________________________________________


	BEGINNING GENETIC ALGORITHM DOCKING 26 of 100
Run: 26 Seed: 1043192911 1897019186 [ Run 26 of 100 GA/GALS ]
Beginning LAMARCKIAN GENETIC ALGORITHM (LGA), with a maximum of 2500000 energy evaluations.

Final-Value: -16.603


	FINAL GENETIC ALGORITHM DOCKED STATE
	_______________________________________________


Detailed state:  trans 38.008 17.198 122.260 quatxyzw 0.369014 -0.470838 0.647489 0.472120 center 0.288 0.007 -0.056 ntor 10 177.8820 131.9540 -180.0000 -179.4867 161.1086 -21.6926 -170.7812 164.1697 37.0917 -6.2372
State:	 38.008  17.198 122.260   0.419 -0.534  0.735 123.656    177.88  131.95 -180.00 -179.49  161.11  -21.69 -170.78  164.17   37.09   -6.24

DOCKED: MODEL       26
DOCKED: USER    Run = 26
DOCKED: USER    DPF = ligand_dock.biased.dpf
DOCKED: USER  
DOCKED: USER    Estimated Free Energy of Binding    =  -11.58 kcal/mol  [=(1)+(2)+(3)-(4)]
DOCKED: USER    Estimated Inhibition Constant, Ki   =    3.23 nM (nanomolar)  [Temperature = 298.15 K]
DOCKED: USER    
DOCKED: USER    (1) Final Intermolecular Energy     =  -14.57 kcal/mol
DOCKED: USER        vdW + Hbond + desolv Energy     =  -14.57 kcal/mol
DOCKED: USER        Electrostatic Energy            =   +0.00 kcal/mol
DOCKED: USER    (2) Final Total Internal Energy     =   -2.04 kcal/mol
DOCKED: USER    (3) Torsional Free Energy           =   +2.98 kcal/mol
DOCKED: USER    (4) Unbound System's Energy  [=(2)] =   -2.04 kcal/mol
DOCKED: USER    
DOCKED: USER    
DOCKED: USER    NEWDPF move ligand.dum.pdbqt
DOCKED: USER    NEWDPF about 0.288000 0.007000 -0.056000
DOCKED: USER    NEWDPF tran0 38.008255 17.197510 122.259720
DOCKED: USER    NEWDPF quaternion0 0.369014 -0.470838 0.647489 0.472120
DOCKED: USER    NEWDPF axisangle0 0.418605 -0.534112 0.734503 123.655983
DOCKED: USER    NEWDPF quat0 0.418605 -0.534112 0.734503 123.655983
DOCKED: USER    NEWDPF dihe0 177.88 131.95 -180.00 -179.49 161.11 -21.69 -170.78 164.17 37.09 -6.24 
DOCKED: USER  keepresnum = 1 
DOCKED: USER  
DOCKED: REMARK  Name = 
DOCKED: REMARK  10 active torsions:
DOCKED: REMARK  status: ('A' for Active; 'I' for Inactive)
DOCKED: REMARK    1  A    between atoms: C_2  and  C_5
DOCKED: REMARK    2  A    between atoms: C_6  and  C_7
DOCKED: REMARK    3  A    between atoms: C_10  and  C_11
DOCKED: REMARK    4  A    between atoms: C_11  and  N_12
DOCKED: REMARK    5  A    between atoms: N_12  and  C_13
DOCKED: REMARK    6  A    between atoms: N_12  and  C_16
DOCKED: REMARK    7  A    between atoms: C_13  and  C_14
DOCKED: REMARK    8  A    between atoms: C_14  and  O_15
DOCKED: REMARK    9  A    between atoms: C_16  and  C_17
DOCKED: REMARK   10  A    between atoms: C_17  and  C_18
DOCKED: REMARK                            x       y       z     vdW  Elec       q    Type
DOCKED: REMARK                         _______ _______ _______ _____ _____    ______ ____
DOCKED: USER                              x       y       z     vdW  Elec       q    Type
DOCKED: USER                           _______ _______ _______ _____ _____    ______ ____
DOCKED: ROOT
DOCKED: ATOM      1  N   UNL     1      38.295  18.478 122.509 -0.09 -0.00    +0.000 N 
DOCKED: ATOM      2  H   UNL     1      38.394  19.392 122.067 +0.00 -0.00    +0.000 HD
DOCKED: ENDROOT
DOCKED: BRANCH   1   3
DOCKED: ATOM      3  C   UNL     1      37.393  17.739 121.587 -0.13 -0.00    +0.000 C 
DOCKED: BRANCH   3   7
DOCKED: ATOM      4  C   UNL     1      37.199  13.472 122.372 -0.45 -0.00    +0.000 A 
DOCKED: ATOM      5  C   UNL     1      37.947  13.967 121.294 -0.36 -0.00    +0.000 A 
DOCKED: ATOM      6  C   UNL     1      38.012  15.340 121.043 -0.23 -0.00    +0.000 A 
DOCKED: ATOM      7  C   UNL     1      37.306  16.248 121.848 -0.20 -0.00    +0.000 A 
DOCKED: ATOM      8  C   UNL     1      36.567  15.756 122.937 -0.32 -0.00    +0.000 A 
DOCKED: ATOM      9  C   UNL     1      36.501  14.382 123.190 -0.44 -0.00    +0.000 A 
DOCKED: ATOM     10  CM  UNL     1      37.256  14.860 122.114 +0.00 -0.00    +0.000 AC
DOCKED: BRANCH   4  11
DOCKED: ATOM     11  C   UNL     1      37.063  11.106 121.598 -0.53 -0.00    +0.000 C 
DOCKED: ATOM     12  C   UNL     1      37.152  12.004 122.590 -0.58 -0.00    +0.000 C 
DOCKED: BRANCH  10  13
DOCKED: ATOM     13  O   UNL     1      36.911   8.833 120.903 -2.66 -0.00    +0.000 OA
DOCKED: ATOM     14  C   UNL     1      37.010   9.653 121.857 -0.59 -0.00    +0.000 C 
DOCKED: ATOM     15  N   UNL     1      37.067   9.170 123.201 -0.63 -0.00    +0.000 N 
DOCKED: ATOM     16  O   UNL     1      37.019   7.840 123.454 -2.62 -0.00    +0.000 OA
DOCKED: ATOM     17  H   UNL     1      37.144   9.807 123.947 -0.47 -0.00    +0.000 HD
DOCKED: ENDBRANCH  10  13
DOCKED: ENDBRANCH   4  11
DOCKED: ENDBRANCH   3   7
DOCKED: ENDBRANCH   1   3
DOCKED: BRANCH   1  17
DOCKED: ATOM     18  C   UNL     1      39.679  17.955 122.582 -0.15 -0.00    +0.000 C 
DOCKED: BRANCH  17  18
DOCKED: ATOM     19  C   UNL     1      39.958  17.282 123.929 -0.20 -0.00    +0.000 C 
DOCKED: BRANCH  18  19
DOCKED: ATOM     20  O   UNL     1      41.313  16.941 124.019 -0.77 -0.00    +0.000 OA
DOCKED: ATOM     21  H   UNL     1      41.720  17.424 124.755 -0.20 -0.00    +0.000 HD
DOCKED: ENDBRANCH  18  19
DOCKED: ENDBRANCH  17  18
DOCKED: ENDBRANCH   1  17
DOCKED: BRANCH   1  21
DOCKED: ATOM     22  C   UNL     1      37.701  18.728 123.843 -0.16 -0.00    +0.000 C 
DOCKED: BRANCH  21  22
DOCKED: ATOM     23  C   UNL     1      36.310  19.354 123.702 -0.19 -0.00    +0.000 C 
DOCKED: BRANCH  22  23
DOCKED: ATOM     24  C   UNL     1      35.294  18.591 124.502 -0.25 -0.00    +0.000 A 
DOCKED: ATOM     25  C   UNL     1      34.356  17.695 124.001 -0.36 -0.00    +0.000 A 
DOCKED: ATOM     26  N   UNL     1      33.693  17.089 125.011 -0.39 -0.00    +0.000 N 
DOCKED: ATOM     27  C   UNL     1      34.216  17.582 126.147 -0.32 -0.00    +0.000 A 
DOCKED: ATOM     28  C   UNL     1      35.200  18.499 125.879 -0.22 -0.00    +0.000 A 
DOCKED: ATOM     29  C   UNL     1      35.917  19.127 126.899 -0.14 -0.00    +0.000 A 
DOCKED: ATOM     30  C   UNL     1      35.599  18.790 128.227 -0.12 -0.00    +0.000 A 
DOCKED: ATOM     31  C   UNL     1      34.586  17.846 128.504 -0.14 -0.00    +0.000 A 
DOCKED: ATOM     32  C   UNL     1      33.883  17.227 127.454 -0.27 -0.00    +0.000 A 
DOCKED: ATOM     33  H   UNL     1      32.974  16.421 124.933 +0.07 -0.00    +0.000 HD
DOCKED: ATOM     34  CM  UNL     1      34.525  17.865 125.105 -0.43 -0.00    +0.000 AC
DOCKED: ATOM     35  CM  UNL     1      34.900  18.179 127.185 -0.02 -0.00    +0.000 AC
DOCKED: ENDBRANCH  22  23
DOCKED: ENDBRANCH  21  22
DOCKED: ENDBRANCH   1  21
DOCKED: TORSDOF 10DOCKED: TER
DOCKED: ENDMDL
________________________________________________________________________________


	BEGINNING GENETIC ALGORITHM DOCKING 27 of 100
Run: 27 Seed: 813335994 315654800 [ Run 27 of 100 GA/GALS ]
Beginning LAMARCKIAN GENETIC ALGORITHM (LGA), with a maximum of 2500000 energy evaluations.

Final-Value: -15.499


	FINAL GENETIC ALGORITHM DOCKED STATE
	_______________________________________________


Detailed state:  trans 37.676 18.562 123.635 quatxyzw 0.229940 0.342448 0.897224 -0.157628 center 0.288 0.007 -0.056 ntor 10 -168.9598 -13.0854 28.7530 -2.9417 -179.0299 171.4588 -178.6230 25.9486 35.3605 177.8858
State:	 37.676  18.562 123.635   0.233  0.347  0.909 -161.862   -168.96  -13.09   28.75   -2.94 -179.03  171.46 -178.62   25.95   35.36  177.89

DOCKED: MODEL       27
DOCKED: USER    Run = 27
DOCKED: USER    DPF = ligand_dock.biased.dpf
DOCKED: USER  
DOCKED: USER    Estimated Free Energy of Binding    =  -10.06 kcal/mol  [=(1)+(2)+(3)-(4)]
DOCKED: USER    Estimated Inhibition Constant, Ki   =   41.99 nM (nanomolar)  [Temperature = 298.15 K]
DOCKED: USER    
DOCKED: USER    (1) Final Intermolecular Energy     =  -13.05 kcal/mol
DOCKED: USER        vdW + Hbond + desolv Energy     =  -13.05 kcal/mol
DOCKED: USER        Electrostatic Energy            =   +0.00 kcal/mol
DOCKED: USER    (2) Final Total Internal Energy     =   -2.45 kcal/mol
DOCKED: USER    (3) Torsional Free Energy           =   +2.98 kcal/mol
DOCKED: USER    (4) Unbound System's Energy  [=(2)] =   -2.45 kcal/mol
DOCKED: USER    
DOCKED: USER    
DOCKED: USER    NEWDPF move ligand.dum.pdbqt
DOCKED: USER    NEWDPF about 0.288000 0.007000 -0.056000
DOCKED: USER    NEWDPF tran0 37.676194 18.562288 123.634875
DOCKED: USER    NEWDPF quaternion0 0.229940 0.342448 0.897224 -0.157628
DOCKED: USER    NEWDPF axisangle0 0.232851 0.346783 0.908582 -161.861531
DOCKED: USER    NEWDPF quat0 0.232851 0.346783 0.908582 -161.861531
DOCKED: USER    NEWDPF dihe0 -168.96 -13.09 28.75 -2.94 -179.03 171.46 -178.62 25.95 35.36 177.89 
DOCKED: USER  keepresnum = 1 
DOCKED: USER  
DOCKED: REMARK  Name = 
DOCKED: REMARK  10 active torsions:
DOCKED: REMARK  status: ('A' for Active; 'I' for Inactive)
DOCKED: REMARK    1  A    between atoms: C_2  and  C_5
DOCKED: REMARK    2  A    between atoms: C_6  and  C_7
DOCKED: REMARK    3  A    between atoms: C_10  and  C_11
DOCKED: REMARK    4  A    between atoms: C_11  and  N_12
DOCKED: REMARK    5  A    between atoms: N_12  and  C_13
DOCKED: REMARK    6  A    between atoms: N_12  and  C_16
DOCKED: REMARK    7  A    between atoms: C_13  and  C_14
DOCKED: REMARK    8  A    between atoms: C_14  and  O_15
DOCKED: REMARK    9  A    between atoms: C_16  and  C_17
DOCKED: REMARK   10  A    between atoms: C_17  and  C_18
DOCKED: REMARK                            x       y       z     vdW  Elec       q    Type
DOCKED: REMARK                         _______ _______ _______ _____ _____    ______ ____
DOCKED: USER                              x       y       z     vdW  Elec       q    Type
DOCKED: USER                           _______ _______ _______ _____ _____    ______ ____
DOCKED: ROOT
DOCKED: ATOM      1  N   UNL     1      38.813  18.209 123.030 -0.12 -0.00    +0.000 N 
DOCKED: ATOM      2  H   UNL     1      39.403  17.407 122.809 +0.00 -0.00    +0.000 HD
DOCKED: ENDROOT
DOCKED: BRANCH   1   3
DOCKED: ATOM      3  C   UNL     1      37.466  17.610 123.219 -0.21 -0.00    +0.000 C 
DOCKED: BRANCH   3   7
DOCKED: ATOM      4  C   UNL     1      37.120  13.418 122.141 -0.44 -0.00    +0.000 A 
DOCKED: ATOM      5  C   UNL     1      36.884  13.839 123.458 -0.48 -0.00    +0.000 A 
DOCKED: ATOM      6  C   UNL     1      36.993  15.188 123.804 -0.25 -0.00    +0.000 A 
DOCKED: ATOM      7  C   UNL     1      37.367  16.144 122.847 -0.26 -0.00    +0.000 A 
DOCKED: ATOM      8  C   UNL     1      37.591  15.727 121.524 -0.21 -0.00    +0.000 A 
DOCKED: ATOM      9  C   UNL     1      37.483  14.377 121.175 -0.32 -0.00    +0.000 A 
DOCKED: ATOM     10  CM  UNL     1      37.239  14.781 122.492 +0.00 -0.00    +0.000 AC
DOCKED: BRANCH   4  11
DOCKED: ATOM     11  C   UNL     1      37.063  11.001 122.749 -0.60 -0.00    +0.000 C 
DOCKED: ATOM     12  C   UNL     1      37.003  11.971 121.826 -0.57 -0.00    +0.000 C 
DOCKED: BRANCH  10  13
DOCKED: ATOM     13  O   UNL     1      36.717   9.220 121.206 -2.63 -0.00    +0.000 OA
DOCKED: ATOM     14  C   UNL     1      36.952   9.572 122.394 -0.64 -0.00    +0.000 C 
DOCKED: ATOM     15  N   UNL     1      37.112   8.576 123.406 -0.66 -0.00    +0.000 N 
DOCKED: ATOM     16  O   UNL     1      37.013   7.261 123.097 -2.22 -0.00    +0.000 OA
DOCKED: ATOM     17  H   UNL     1      37.295   8.847 124.335 -0.58 -0.00    +0.000 HD
DOCKED: ENDBRANCH  10  13
DOCKED: ENDBRANCH   4  11
DOCKED: ENDBRANCH   3   7
DOCKED: ENDBRANCH   1   3
DOCKED: BRANCH   1  17
DOCKED: ATOM     18  C   UNL     1      39.420  18.783 124.253 -0.17 -0.00    +0.000 C 
DOCKED: BRANCH  17  18
DOCKED: ATOM     19  C   UNL     1      40.428  17.821 124.888 -0.29 -0.00    +0.000 C 
DOCKED: BRANCH  18  19
DOCKED: ATOM     20  O   UNL     1      41.206  17.220 123.891 -0.61 -0.00    +0.000 OA
DOCKED: ATOM     21  H   UNL     1      42.144  17.290 124.127 -0.21 -0.00    +0.000 HD
DOCKED: ENDBRANCH  18  19
DOCKED: ENDBRANCH  17  18
DOCKED: ENDBRANCH   1  17
DOCKED: BRANCH   1  21
DOCKED: ATOM     22  C   UNL     1      38.898  19.117 121.862 -0.05 -0.00    +0.000 C 
DOCKED: BRANCH  21  22
DOCKED: ATOM     23  C   UNL     1      38.382  18.417 120.600 -0.05 -0.00    +0.000 C 
DOCKED: BRANCH  22  23
DOCKED: ATOM     24  C   UNL     1      37.216  19.161 120.014 -0.07 -0.00    +0.000 A 
DOCKED: ATOM     25  C   UNL     1      37.280  20.178 119.068 -0.05 -0.00    +0.000 A 
DOCKED: ATOM     26  N   UNL     1      36.038  20.528 118.665 -0.09 -0.00    +0.000 N 
DOCKED: ATOM     27  C   UNL     1      35.190  19.730 119.337 -0.14 -0.00    +0.000 A 
DOCKED: ATOM     28  C   UNL     1      35.871  18.878 120.169 -0.16 -0.00    +0.000 A 
DOCKED: ATOM     29  C   UNL     1      35.209  17.928 120.948 -0.25 -0.00    +0.000 A 
DOCKED: ATOM     30  C   UNL     1      33.807  17.868 120.858 -0.23 -0.00    +0.000 A 
DOCKED: ATOM     31  C   UNL     1      33.106  18.745 120.002 -0.32 -0.00    +0.000 A 
DOCKED: ATOM     32  C   UNL     1      33.801  19.690 119.226 -0.15 -0.00    +0.000 A 
DOCKED: ATOM     33  H   UNL     1      35.801  21.226 118.012 -0.01 -0.00    +0.000 HD
DOCKED: ATOM     34  CM  UNL     1      36.310  19.721 119.425 +0.00 -0.00    +0.000 AC
DOCKED: ATOM     35  CM  UNL     1      34.498  18.807 120.090 +0.00 -0.00    +0.000 AC
DOCKED: ENDBRANCH  22  23
DOCKED: ENDBRANCH  21  22
DOCKED: ENDBRANCH   1  21
DOCKED: TORSDOF 10DOCKED: TER
DOCKED: ENDMDL
________________________________________________________________________________


	BEGINNING GENETIC ALGORITHM DOCKING 28 of 100
Run: 28 Seed: 235674196 1435723942 [ Run 28 of 100 GA/GALS ]
Beginning LAMARCKIAN GENETIC ALGORITHM (LGA), with a maximum of 2500000 energy evaluations.

Final-Value: -16.358


	FINAL GENETIC ALGORITHM DOCKED STATE
	_______________________________________________


Detailed state:  trans 36.558 17.653 122.546 quatxyzw 0.485242 -0.752697 -0.234640 0.378062 center 0.288 0.007 -0.056 ntor 10 -19.1731 -53.6978 10.4888 -60.4844 -118.9186 161.2033 -125.5657 15.9949 -172.5416 57.7410
State:	 36.558  17.653 122.546   0.524 -0.813 -0.253 135.573    -19.17  -53.70   10.49  -60.48 -118.92  161.20 -125.57   15.99 -172.54   57.74

DOCKED: MODEL       28
DOCKED: USER    Run = 28
DOCKED: USER    DPF = ligand_dock.biased.dpf
DOCKED: USER  
DOCKED: USER    Estimated Free Energy of Binding    =  -11.10 kcal/mol  [=(1)+(2)+(3)-(4)]
DOCKED: USER    Estimated Inhibition Constant, Ki   =    7.36 nM (nanomolar)  [Temperature = 298.15 K]
DOCKED: USER    
DOCKED: USER    (1) Final Intermolecular Energy     =  -14.08 kcal/mol
DOCKED: USER        vdW + Hbond + desolv Energy     =  -14.08 kcal/mol
DOCKED: USER        Electrostatic Energy            =   +0.00 kcal/mol
DOCKED: USER    (2) Final Total Internal Energy     =   -2.28 kcal/mol
DOCKED: USER    (3) Torsional Free Energy           =   +2.98 kcal/mol
DOCKED: USER    (4) Unbound System's Energy  [=(2)] =   -2.28 kcal/mol
DOCKED: USER    
DOCKED: USER    
DOCKED: USER    NEWDPF move ligand.dum.pdbqt
DOCKED: USER    NEWDPF about 0.288000 0.007000 -0.056000
DOCKED: USER    NEWDPF tran0 36.557808 17.652889 122.545863
DOCKED: USER    NEWDPF quaternion0 0.485242 -0.752697 -0.234640 0.378062
DOCKED: USER    NEWDPF axisangle0 0.524144 -0.813041 -0.253451 135.572671
DOCKED: USER    NEWDPF quat0 0.524144 -0.813041 -0.253451 135.572671
DOCKED: USER    NEWDPF dihe0 -19.17 -53.70 10.49 -60.48 -118.92 161.20 -125.57 15.99 -172.54 57.74 
DOCKED: USER  keepresnum = 1 
DOCKED: USER  
DOCKED: REMARK  Name = 
DOCKED: REMARK  10 active torsions:
DOCKED: REMARK  status: ('A' for Active; 'I' for Inactive)
DOCKED: REMARK    1  A    between atoms: C_2  and  C_5
DOCKED: REMARK    2  A    between atoms: C_6  and  C_7
DOCKED: REMARK    3  A    between atoms: C_10  and  C_11
DOCKED: REMARK    4  A    between atoms: C_11  and  N_12
DOCKED: REMARK    5  A    between atoms: N_12  and  C_13
DOCKED: REMARK    6  A    between atoms: N_12  and  C_16
DOCKED: REMARK    7  A    between atoms: C_13  and  C_14
DOCKED: REMARK    8  A    between atoms: C_14  and  O_15
DOCKED: REMARK    9  A    between atoms: C_16  and  C_17
DOCKED: REMARK   10  A    between atoms: C_17  and  C_18
DOCKED: REMARK                            x       y       z     vdW  Elec       q    Type
DOCKED: REMARK                         _______ _______ _______ _____ _____    ______ ____
DOCKED: USER                              x       y       z     vdW  Elec       q    Type
DOCKED: USER                           _______ _______ _______ _____ _____    ______ ____
DOCKED: ROOT
DOCKED: ATOM      1  N   UNL     1      37.151  18.245 123.585 -0.16 -0.00    +0.000 N 
DOCKED: ATOM      2  H   UNL     1      36.966  18.702 124.478 -0.00 -0.00    +0.000 HD
DOCKED: ENDROOT
DOCKED: BRANCH   1   3
DOCKED: ATOM      3  C   UNL     1      35.957  17.385 123.377 -0.30 -0.00    +0.000 C 
DOCKED: BRANCH   3   7
DOCKED: ATOM      4  C   UNL     1      36.789  13.221 122.466 -0.47 -0.00    +0.000 A 
DOCKED: ATOM      5  C   UNL     1      36.262  13.589 123.713 -0.50 -0.00    +0.000 A 
DOCKED: ATOM      6  C   UNL     1      35.991  14.928 124.005 -0.42 -0.00    +0.000 A 
DOCKED: ATOM      7  C   UNL     1      36.269  15.934 123.066 -0.33 -0.00    +0.000 A 
DOCKED: ATOM      8  C   UNL     1      36.785  15.568 121.812 -0.23 -0.00    +0.000 A 
DOCKED: ATOM      9  C   UNL     1      37.055  14.228 121.517 -0.29 -0.00    +0.000 A 
DOCKED: ATOM     10  CM  UNL     1      36.525  14.577 122.764 +0.00 -0.00    +0.000 AC
DOCKED: BRANCH   4  11
DOCKED: ATOM     11  C   UNL     1      36.265  10.788 122.600 -0.68 -0.00    +0.000 C 
DOCKED: ATOM     12  C   UNL     1      37.069  11.786 122.208 -0.59 -0.00    +0.000 C 
DOCKED: BRANCH  10  13
DOCKED: ATOM     13  O   UNL     1      36.688   8.946 121.151 -2.61 -0.00    +0.000 OA
DOCKED: ATOM     14  C   UNL     1      36.584   9.371 122.334 -0.72 -0.00    +0.000 C 
DOCKED: ATOM     15  N   UNL     1      36.776   8.470 123.427 -0.67 -0.00    +0.000 N 
DOCKED: ATOM     16  O   UNL     1      37.069   7.168 123.199 -2.16 -0.00    +0.000 OA
DOCKED: ATOM     17  H   UNL     1      36.695   8.798 124.352 -0.41 -0.00    +0.000 HD
DOCKED: ENDBRANCH  10  13
DOCKED: ENDBRANCH   4  11
DOCKED: ENDBRANCH   3   7
DOCKED: ENDBRANCH   1   3
DOCKED: BRANCH   1  17
DOCKED: ATOM     18  C   UNL     1      37.293  19.363 122.624 -0.13 -0.00    +0.000 C 
DOCKED: BRANCH  17  18
DOCKED: ATOM     19  C   UNL     1      36.413  20.554 123.011 -0.15 -0.00    +0.000 C 
DOCKED: BRANCH  18  19
DOCKED: ATOM     20  O   UNL     1      35.723  20.272 124.197 -0.20 -0.00    +0.000 OA
DOCKED: ATOM     21  H   UNL     1      34.958  19.709 124.000 -0.01 -0.00    +0.000 HD
DOCKED: ENDBRANCH  18  19
DOCKED: ENDBRANCH  17  18
DOCKED: ENDBRANCH   1  17
DOCKED: BRANCH   1  21
DOCKED: ATOM     22  C   UNL     1      38.406  17.479 123.769 -0.23 -0.00    +0.000 C 
DOCKED: BRANCH  21  22
DOCKED: ATOM     23  C   UNL     1      39.206  17.438 122.462 -0.17 -0.00    +0.000 C 
DOCKED: BRANCH  22  23
DOCKED: ATOM     24  C   UNL     1      40.551  16.806 122.676 -0.25 -0.00    +0.000 A 
DOCKED: ATOM     25  C   UNL     1      40.816  15.443 122.755 -0.39 -0.00    +0.000 A 
DOCKED: ATOM     26  N   UNL     1      42.149  15.223 122.817 -0.54 -0.00    +0.000 N 
DOCKED: ATOM     27  C   UNL     1      42.728  16.435 122.761 -0.40 -0.00    +0.000 A 
DOCKED: ATOM     28  C   UNL     1      41.786  17.427 122.671 -0.25 -0.00    +0.000 A 
DOCKED: ATOM     29  C   UNL     1      42.145  18.772 122.567 -0.13 -0.00    +0.000 A 
DOCKED: ATOM     30  C   UNL     1      43.515  19.087 122.559 -0.13 -0.00    +0.000 A 
DOCKED: ATOM     31  C   UNL     1      44.485  18.066 122.652 -0.22 -0.00    +0.000 A 
DOCKED: ATOM     32  C   UNL     1      44.094  16.718 122.752 -0.28 -0.00    +0.000 A 
DOCKED: ATOM     33  H   UNL     1      42.604  14.353 122.887 -0.05 -0.00    +0.000 HD
DOCKED: ATOM     34  CM  UNL     1      41.624  16.233 122.738 +0.00 -0.00    +0.000 AC
DOCKED: ATOM     35  CM  UNL     1      43.125  17.751 122.661 +0.00 -0.00    +0.000 AC
DOCKED: ENDBRANCH  22  23
DOCKED: ENDBRANCH  21  22
DOCKED: ENDBRANCH   1  21
DOCKED: TORSDOF 10DOCKED: TER
DOCKED: ENDMDL
________________________________________________________________________________


	BEGINNING GENETIC ALGORITHM DOCKING 29 of 100
Run: 29 Seed: 1054794162 1256790021 [ Run 29 of 100 GA/GALS ]
Beginning LAMARCKIAN GENETIC ALGORITHM (LGA), with a maximum of 2500000 energy evaluations.

Final-Value: -17.368


	FINAL GENETIC ALGORITHM DOCKED STATE
	_______________________________________________


Detailed state:  trans 34.756 18.353 124.015 quatxyzw 0.519153 -0.007762 -0.801288 0.297250 center 0.288 0.007 -0.056 ntor 10 -138.1459 -55.0134 26.4471 -118.1062 -104.5533 -105.3342 -47.1037 -16.1463 63.8499 -169.7953
State:	 34.756  18.353 124.015   0.544 -0.008 -0.839 145.415   -138.15  -55.01   26.45 -118.11 -104.55 -105.33  -47.10  -16.15   63.85 -169.80

DOCKED: MODEL       29
DOCKED: USER    Run = 29
DOCKED: USER    DPF = ligand_dock.biased.dpf
DOCKED: USER  
DOCKED: USER    Estimated Free Energy of Binding    =  -12.02 kcal/mol  [=(1)+(2)+(3)-(4)]
DOCKED: USER    Estimated Inhibition Constant, Ki   =    1.54 nM (nanomolar)  [Temperature = 298.15 K]
DOCKED: USER    
DOCKED: USER    (1) Final Intermolecular Energy     =  -15.01 kcal/mol
DOCKED: USER        vdW + Hbond + desolv Energy     =  -15.01 kcal/mol
DOCKED: USER        Electrostatic Energy            =   +0.00 kcal/mol
DOCKED: USER    (2) Final Total Internal Energy     =   -2.36 kcal/mol
DOCKED: USER    (3) Torsional Free Energy           =   +2.98 kcal/mol
DOCKED: USER    (4) Unbound System's Energy  [=(2)] =   -2.36 kcal/mol
DOCKED: USER    
DOCKED: USER    
DOCKED: USER    NEWDPF move ligand.dum.pdbqt
DOCKED: USER    NEWDPF about 0.288000 0.007000 -0.056000
DOCKED: USER    NEWDPF tran0 34.756321 18.352554 124.015433
DOCKED: USER    NEWDPF quaternion0 0.519153 -0.007762 -0.801288 0.297250
DOCKED: USER    NEWDPF axisangle0 0.543729 -0.008129 -0.839221 145.414940
DOCKED: USER    NEWDPF quat0 0.543729 -0.008129 -0.839221 145.414940
DOCKED: USER    NEWDPF dihe0 -138.15 -55.01 26.45 -118.11 -104.55 -105.33 -47.10 -16.15 63.85 -169.80 
DOCKED: USER  keepresnum = 1 
DOCKED: USER  
DOCKED: REMARK  Name = 
DOCKED: REMARK  10 active torsions:
DOCKED: REMARK  status: ('A' for Active; 'I' for Inactive)
DOCKED: REMARK    1  A    between atoms: C_2  and  C_5
DOCKED: REMARK    2  A    between atoms: C_6  and  C_7
DOCKED: REMARK    3  A    between atoms: C_10  and  C_11
DOCKED: REMARK    4  A    between atoms: C_11  and  N_12
DOCKED: REMARK    5  A    between atoms: N_12  and  C_13
DOCKED: REMARK    6  A    between atoms: N_12  and  C_16
DOCKED: REMARK    7  A    between atoms: C_13  and  C_14
DOCKED: REMARK    8  A    between atoms: C_14  and  O_15
DOCKED: REMARK    9  A    between atoms: C_16  and  C_17
DOCKED: REMARK   10  A    between atoms: C_17  and  C_18
DOCKED: REMARK                            x       y       z     vdW  Elec       q    Type
DOCKED: REMARK                         _______ _______ _______ _____ _____    ______ ____
DOCKED: USER                              x       y       z     vdW  Elec       q    Type
DOCKED: USER                           _______ _______ _______ _____ _____    ______ ____
DOCKED: ROOT
DOCKED: ATOM      1  N   UNL     1      35.273  17.995 125.194 -0.27 -0.00    +0.000 N 
DOCKED: ATOM      2  H   UNL     1      35.591  17.191 125.734 -0.02 -0.00    +0.000 HD
DOCKED: ENDROOT
DOCKED: BRANCH   1   3
DOCKED: ATOM      3  C   UNL     1      35.401  17.544 123.784 -0.34 -0.00    +0.000 C 
DOCKED: BRANCH   3   7
DOCKED: ATOM      4  C   UNL     1      36.618  13.409 123.249 -0.52 -0.00    +0.000 A 
DOCKED: ATOM      5  C   UNL     1      35.305  13.725 123.630 -0.22 -0.00    +0.000 A 
DOCKED: ATOM      6  C   UNL     1      34.913  15.055 123.800 -0.50 -0.00    +0.000 A 
DOCKED: ATOM      7  C   UNL     1      35.833  16.100 123.619 -0.37 -0.00    +0.000 A 
DOCKED: ATOM      8  C   UNL     1      37.144  15.788 123.224 -0.31 -0.00    +0.000 A 
DOCKED: ATOM      9  C   UNL     1      37.539  14.457 123.054 -0.42 -0.00    +0.000 A 
DOCKED: ATOM     10  CM  UNL     1      36.225  14.755 123.429 +0.00 -0.00    +0.000 AC
DOCKED: BRANCH   4  11
DOCKED: ATOM     11  C   UNL     1      36.329  11.121 122.302 -0.66 -0.00    +0.000 C 
DOCKED: ATOM     12  C   UNL     1      36.988  11.980 123.093 -0.66 -0.00    +0.000 C 
DOCKED: BRANCH  10  13
DOCKED: ATOM     13  O   UNL     1      37.071   9.224 121.068 -2.73 -0.00    +0.000 OA
DOCKED: ATOM     14  C   UNL     1      36.723   9.704 122.182 -0.68 -0.00    +0.000 C 
DOCKED: ATOM     15  N   UNL     1      36.708   8.864 123.338 -0.62 -0.00    +0.000 N 
DOCKED: ATOM     16  O   UNL     1      37.066   7.561 123.245 -2.50 -0.00    +0.000 OA
DOCKED: ATOM     17  H   UNL     1      36.436   9.234 124.209 -0.39 -0.00    +0.000 HD
DOCKED: ENDBRANCH  10  13
DOCKED: ENDBRANCH   4  11
DOCKED: ENDBRANCH   3   7
DOCKED: ENDBRANCH   1   3
DOCKED: BRANCH   1  17
DOCKED: ATOM     18  C   UNL     1      33.883  18.218 125.656 -0.37 -0.00    +0.000 C 
DOCKED: BRANCH  17  18
DOCKED: ATOM     19  C   UNL     1      33.338  17.003 126.410 -0.34 -0.00    +0.000 C 
DOCKED: BRANCH  18  19
DOCKED: ATOM     20  O   UNL     1      34.310  15.995 126.457 -0.32 -0.00    +0.000 OA
DOCKED: ATOM     21  H   UNL     1      34.088  15.365 127.160 -0.06 -0.00    +0.000 HD
DOCKED: ENDBRANCH  18  19
DOCKED: ENDBRANCH  17  18
DOCKED: ENDBRANCH   1  17
DOCKED: BRANCH   1  21
DOCKED: ATOM     22  C   UNL     1      36.183  19.111 125.543 -0.19 -0.00    +0.000 C 
DOCKED: BRANCH  21  22
DOCKED: ATOM     23  C   UNL     1      37.395  19.128 124.605 -0.16 -0.00    +0.000 C 
DOCKED: BRANCH  22  23
DOCKED: ATOM     24  C   UNL     1      38.636  18.685 125.324 -0.17 -0.00    +0.000 A 
DOCKED: ATOM     25  C   UNL     1      39.882  18.456 124.751 -0.22 -0.00    +0.000 A 
DOCKED: ATOM     26  N   UNL     1      40.803  18.200 125.707 -0.35 -0.00    +0.000 N 
DOCKED: ATOM     27  C   UNL     1      40.153  18.282 126.880 -0.30 -0.00    +0.000 A 
DOCKED: ATOM     28  C   UNL     1      38.828  18.580 126.689 -0.09 -0.00    +0.000 A 
DOCKED: ATOM     29  C   UNL     1      37.952  18.751 127.763 -0.09 -0.00    +0.000 A 
DOCKED: ATOM     30  C   UNL     1      38.470  18.606 129.062 -0.18 -0.00    +0.000 A 
DOCKED: ATOM     31  C   UNL     1      39.834  18.298 129.259 -0.26 -0.00    +0.000 A 
DOCKED: ATOM     32  C   UNL     1      40.694  18.135 128.157 -0.38 -0.00    +0.000 A 
DOCKED: ATOM     33  H   UNL     1      41.757  17.996 125.572 -0.34 -0.00    +0.000 HD
DOCKED: ATOM     34  CM  UNL     1      39.697  18.434 125.865 +0.00 -0.00    +0.000 AC
DOCKED: ATOM     35  CM  UNL     1      39.322  18.442 127.968 +0.00 -0.00    +0.000 AC
DOCKED: ENDBRANCH  22  23
DOCKED: ENDBRANCH  21  22
DOCKED: ENDBRANCH   1  21
DOCKED: TORSDOF 10DOCKED: TER
DOCKED: ENDMDL
________________________________________________________________________________


	BEGINNING GENETIC ALGORITHM DOCKING 30 of 100
Run: 30 Seed: 1004492492 465749153 [ Run 30 of 100 GA/GALS ]
Beginning LAMARCKIAN GENETIC ALGORITHM (LGA), with a maximum of 2500000 energy evaluations.

Final-Value: -16.490


	FINAL GENETIC ALGORITHM DOCKED STATE
	_______________________________________________


Detailed state:  trans 35.396 18.670 122.970 quatxyzw -0.271504 0.352407 0.841570 -0.306357 center 0.288 0.007 -0.056 ntor 10 -100.8738 -30.6310 -12.2777 173.8533 158.8973 86.5364 178.3886 -174.3826 -26.3696 173.6192
State:	 35.396  18.670 122.970  -0.285  0.370  0.884 -144.320   -100.87  -30.63  -12.28  173.85  158.90   86.54  178.39 -174.38  -26.37  173.62

DOCKED: MODEL       30
DOCKED: USER    Run = 30
DOCKED: USER    DPF = ligand_dock.biased.dpf
DOCKED: USER  
DOCKED: USER    Estimated Free Energy of Binding    =  -11.02 kcal/mol  [=(1)+(2)+(3)-(4)]
DOCKED: USER    Estimated Inhibition Constant, Ki   =    8.34 nM (nanomolar)  [Temperature = 298.15 K]
DOCKED: USER    
DOCKED: USER    (1) Final Intermolecular Energy     =  -14.00 kcal/mol
DOCKED: USER        vdW + Hbond + desolv Energy     =  -14.00 kcal/mol
DOCKED: USER        Electrostatic Energy            =   +0.00 kcal/mol
DOCKED: USER    (2) Final Total Internal Energy     =   -2.49 kcal/mol
DOCKED: USER    (3) Torsional Free Energy           =   +2.98 kcal/mol
DOCKED: USER    (4) Unbound System's Energy  [=(2)] =   -2.49 kcal/mol
DOCKED: USER    
DOCKED: USER    
DOCKED: USER    NEWDPF move ligand.dum.pdbqt
DOCKED: USER    NEWDPF about 0.288000 0.007000 -0.056000
DOCKED: USER    NEWDPF tran0 35.396354 18.669749 122.969977
DOCKED: USER    NEWDPF quaternion0 -0.271504 0.352407 0.841570 -0.306357
DOCKED: USER    NEWDPF axisangle0 -0.285218 0.370208 0.884080 -144.320333
DOCKED: USER    NEWDPF quat0 -0.285218 0.370208 0.884080 -144.320333
DOCKED: USER    NEWDPF dihe0 -100.87 -30.63 -12.28 173.85 158.90 86.54 178.39 -174.38 -26.37 173.62 
DOCKED: USER  keepresnum = 1 
DOCKED: USER  
DOCKED: REMARK  Name = 
DOCKED: REMARK  10 active torsions:
DOCKED: REMARK  status: ('A' for Active; 'I' for Inactive)
DOCKED: REMARK    1  A    between atoms: C_2  and  C_5
DOCKED: REMARK    2  A    between atoms: C_6  and  C_7
DOCKED: REMARK    3  A    between atoms: C_10  and  C_11
DOCKED: REMARK    4  A    between atoms: C_11  and  N_12
DOCKED: REMARK    5  A    between atoms: N_12  and  C_13
DOCKED: REMARK    6  A    between atoms: N_12  and  C_16
DOCKED: REMARK    7  A    between atoms: C_13  and  C_14
DOCKED: REMARK    8  A    between atoms: C_14  and  O_15
DOCKED: REMARK    9  A    between atoms: C_16  and  C_17
DOCKED: REMARK   10  A    between atoms: C_17  and  C_18
DOCKED: REMARK                            x       y       z     vdW  Elec       q    Type
DOCKED: REMARK                         _______ _______ _______ _____ _____    ______ ____
DOCKED: USER                              x       y       z     vdW  Elec       q    Type
DOCKED: USER                           _______ _______ _______ _____ _____    ______ ____
DOCKED: ROOT
DOCKED: ATOM      1  N   UNL     1      36.476  18.421 123.715 -0.18 -0.00    +0.000 N 
DOCKED: ATOM      2  H   UNL     1      36.907  17.719 124.317 -0.01 -0.00    +0.000 HD
DOCKED: ENDROOT
DOCKED: BRANCH   1   3
DOCKED: ATOM      3  C   UNL     1      35.560  17.629 122.854 -0.30 -0.00    +0.000 C 
DOCKED: BRANCH   3   7
DOCKED: ATOM      4  C   UNL     1      36.210  13.341 123.084 -0.48 -0.00    +0.000 A 
DOCKED: ATOM      5  C   UNL     1      37.010  14.142 122.255 -0.38 -0.00    +0.000 A 
DOCKED: ATOM      6  C   UNL     1      36.802  15.522 122.183 -0.27 -0.00    +0.000 A 
DOCKED: ATOM      7  C   UNL     1      35.771  16.129 122.918 -0.32 -0.00    +0.000 A 
DOCKED: ATOM      8  C   UNL     1      34.978  15.331 123.759 -0.49 -0.00    +0.000 A 
DOCKED: ATOM      9  C   UNL     1      35.184  13.950 123.833 -0.29 -0.00    +0.000 A 
DOCKED: ATOM     10  CM  UNL     1      35.993  14.736 123.005 +0.00 -0.00    +0.000 AC
DOCKED: BRANCH   4  11
DOCKED: ATOM     11  C   UNL     1      36.725  11.143 122.027 -0.62 -0.00    +0.000 C 
DOCKED: ATOM     12  C   UNL     1      36.464  11.879 123.117 -0.68 -0.00    +0.000 C 
DOCKED: BRANCH  10  13
DOCKED: ATOM     13  O   UNL     1      37.066   8.999 121.048 -2.72 -0.00    +0.000 OA
DOCKED: ATOM     14  C   UNL     1      36.961   9.687 122.100 -0.62 -0.00    +0.000 C 
DOCKED: ATOM     15  N   UNL     1      37.071   9.050 123.375 -0.60 -0.00    +0.000 N 
DOCKED: ATOM     16  O   UNL     1      37.287   7.716 123.459 -2.64 -0.00    +0.000 OA
DOCKED: ATOM     17  H   UNL     1      36.989   9.585 124.198 -0.56 -0.00    +0.000 HD
DOCKED: ENDBRANCH  10  13
DOCKED: ENDBRANCH   4  11
DOCKED: ENDBRANCH   3   7
DOCKED: ENDBRANCH   1   3
DOCKED: BRANCH   1  17
DOCKED: ATOM     18  C   UNL     1      35.806  19.348 124.656 -0.21 -0.00    +0.000 C 
DOCKED: BRANCH  17  18
DOCKED: ATOM     19  C   UNL     1      34.850  18.606 125.594 -0.28 -0.00    +0.000 C 
DOCKED: BRANCH  18  19
DOCKED: ATOM     20  O   UNL     1      35.242  17.266 125.711 -0.28 -0.00    +0.000 OA
DOCKED: ATOM     21  H   UNL     1      34.499  16.740 126.045 -0.02 -0.00    +0.000 HD
DOCKED: ENDBRANCH  18  19
DOCKED: ENDBRANCH  17  18
DOCKED: ENDBRANCH   1  17
DOCKED: BRANCH   1  21
DOCKED: ATOM     22  C   UNL     1      37.585  19.059 122.968 -0.12 -0.00    +0.000 C 
DOCKED: BRANCH  21  22
DOCKED: ATOM     23  C   UNL     1      38.931  18.457 123.388 -0.15 -0.00    +0.000 C 
DOCKED: BRANCH  22  23
DOCKED: ATOM     24  C   UNL     1      39.598  17.775 122.228 -0.11 -0.00    +0.000 A 
DOCKED: ATOM     25  C   UNL     1      39.149  17.762 120.912 -0.06 -0.00    +0.000 A 
DOCKED: ATOM     26  N   UNL     1      40.060  17.171 120.107 -0.08 -0.00    +0.000 N 
DOCKED: ATOM     27  C   UNL     1      41.088  16.824 120.901 -0.14 -0.00    +0.000 A 
DOCKED: ATOM     28  C   UNL     1      40.846  17.180 122.204 -0.19 -0.00    +0.000 A 
DOCKED: ATOM     29  C   UNL     1      41.783  16.955 123.213 -0.34 -0.00    +0.000 A 
DOCKED: ATOM     30  C   UNL     1      42.998  16.344 122.854 -0.38 -0.00    +0.000 A 
DOCKED: ATOM     31  C   UNL     1      43.248  15.977 121.514 -0.29 -0.00    +0.000 A 
DOCKED: ATOM     32  C   UNL     1      42.285  16.220 120.518 -0.19 -0.00    +0.000 A 
DOCKED: ATOM     33  H   UNL     1      39.987  17.023 119.136 +0.00 -0.00    +0.000 HD
DOCKED: ATOM     34  CM  UNL     1      40.145  17.337 121.233 +0.00 -0.00    +0.000 AC
DOCKED: ATOM     35  CM  UNL     1      42.041  16.583 121.867 +0.00 -0.00    +0.000 AC
DOCKED: ENDBRANCH  22  23
DOCKED: ENDBRANCH  21  22
DOCKED: ENDBRANCH   1  21
DOCKED: TORSDOF 10DOCKED: TER
DOCKED: ENDMDL
________________________________________________________________________________


	BEGINNING GENETIC ALGORITHM DOCKING 31 of 100
Run: 31 Seed: 578861244 1456334955 [ Run 31 of 100 GA/GALS ]
Beginning LAMARCKIAN GENETIC ALGORITHM (LGA), with a maximum of 2500000 energy evaluations.

Final-Value: -16.156


	FINAL GENETIC ALGORITHM DOCKED STATE
	_______________________________________________


Detailed state:  trans 37.660 18.641 123.468 quatxyzw 0.796473 0.316292 0.349169 0.379039 center 0.288 0.007 -0.056 ntor 10 -143.7353 -169.7529 174.8791 -30.2568 -24.5020 -51.8315 175.4027 16.2522 11.6445 -179.6661
State:	 37.660  18.641 123.468   0.861  0.342  0.377 135.452   -143.74 -169.75  174.88  -30.26  -24.50  -51.83  175.40   16.25   11.64 -179.67

DOCKED: MODEL       31
DOCKED: USER    Run = 31
DOCKED: USER    DPF = ligand_dock.biased.dpf
DOCKED: USER  
DOCKED: USER    Estimated Free Energy of Binding    =  -11.45 kcal/mol  [=(1)+(2)+(3)-(4)]
DOCKED: USER    Estimated Inhibition Constant, Ki   =    4.06 nM (nanomolar)  [Temperature = 298.15 K]
DOCKED: USER    
DOCKED: USER    (1) Final Intermolecular Energy     =  -14.43 kcal/mol
DOCKED: USER        vdW + Hbond + desolv Energy     =  -14.43 kcal/mol
DOCKED: USER        Electrostatic Energy            =   +0.00 kcal/mol
DOCKED: USER    (2) Final Total Internal Energy     =   -1.73 kcal/mol
DOCKED: USER    (3) Torsional Free Energy           =   +2.98 kcal/mol
DOCKED: USER    (4) Unbound System's Energy  [=(2)] =   -1.73 kcal/mol
DOCKED: USER    
DOCKED: USER    
DOCKED: USER    NEWDPF move ligand.dum.pdbqt
DOCKED: USER    NEWDPF about 0.288000 0.007000 -0.056000
DOCKED: USER    NEWDPF tran0 37.660459 18.641373 123.468204
DOCKED: USER    NEWDPF quaternion0 0.796473 0.316292 0.349169 0.379039
DOCKED: USER    NEWDPF axisangle0 0.860698 0.341796 0.377324 135.451604
DOCKED: USER    NEWDPF quat0 0.860698 0.341796 0.377324 135.451604
DOCKED: USER    NEWDPF dihe0 -143.74 -169.75 174.88 -30.26 -24.50 -51.83 175.40 16.25 11.64 -179.67 
DOCKED: USER  keepresnum = 1 
DOCKED: USER  
DOCKED: REMARK  Name = 
DOCKED: REMARK  10 active torsions:
DOCKED: REMARK  status: ('A' for Active; 'I' for Inactive)
DOCKED: REMARK    1  A    between atoms: C_2  and  C_5
DOCKED: REMARK    2  A    between atoms: C_6  and  C_7
DOCKED: REMARK    3  A    between atoms: C_10  and  C_11
DOCKED: REMARK    4  A    between atoms: C_11  and  N_12
DOCKED: REMARK    5  A    between atoms: N_12  and  C_13
DOCKED: REMARK    6  A    between atoms: N_12  and  C_16
DOCKED: REMARK    7  A    between atoms: C_13  and  C_14
DOCKED: REMARK    8  A    between atoms: C_14  and  O_15
DOCKED: REMARK    9  A    between atoms: C_16  and  C_17
DOCKED: REMARK   10  A    between atoms: C_17  and  C_18
DOCKED: REMARK                            x       y       z     vdW  Elec       q    Type
DOCKED: REMARK                         _______ _______ _______ _____ _____    ______ ____
DOCKED: USER                              x       y       z     vdW  Elec       q    Type
DOCKED: USER                           _______ _______ _______ _____ _____    ______ ____
DOCKED: ROOT
DOCKED: ATOM      1  N   UNL     1      36.703  18.488 122.550 -0.14 -0.00    +0.000 N 
DOCKED: ATOM      2  H   UNL     1      36.373  17.864 121.813 +0.00 -0.00    +0.000 HD
DOCKED: ENDROOT
DOCKED: BRANCH   1   3
DOCKED: ATOM      3  C   UNL     1      37.495  17.595 123.436 -0.22 -0.00    +0.000 C 
DOCKED: BRANCH   3   7
DOCKED: ATOM      4  C   UNL     1      37.361  13.371 122.433 -0.47 -0.00    +0.000 A 
DOCKED: ATOM      5  C   UNL     1      38.526  14.121 122.215 -0.39 -0.00    +0.000 A 
DOCKED: ATOM      6  C   UNL     1      38.570  15.479 122.540 -0.30 -0.00    +0.000 A 
DOCKED: ATOM      7  C   UNL     1      37.440  16.126 123.065 -0.27 -0.00    +0.000 A 
DOCKED: ATOM      8  C   UNL     1      36.276  15.375 123.296 -0.38 -0.00    +0.000 A 
DOCKED: ATOM      9  C   UNL     1      36.230  14.015 122.972 -0.39 -0.00    +0.000 A 
DOCKED: ATOM     10  CM  UNL     1      37.401  14.747 122.753 +0.00 -0.00    +0.000 AC
DOCKED: BRANCH   4  11
DOCKED: ATOM     11  C   UNL     1      36.874  10.961 122.844 -0.64 -0.00    +0.000 C 
DOCKED: ATOM     12  C   UNL     1      37.361  11.934 122.060 -0.46 -0.00    +0.000 C 
DOCKED: BRANCH  10  13
DOCKED: ATOM     13  O   UNL     1      36.812   9.215 121.226 -2.65 -0.00    +0.000 OA
DOCKED: ATOM     14  C   UNL     1      36.902   9.541 122.441 -0.65 -0.00    +0.000 C 
DOCKED: ATOM     15  N   UNL     1      37.030   8.524 123.438 -0.67 -0.00    +0.000 N 
DOCKED: ATOM     16  O   UNL     1      37.057   7.217 123.085 -2.19 -0.00    +0.000 OA
DOCKED: ATOM     17  H   UNL     1      37.100   8.776 124.387 -0.53 -0.00    +0.000 HD
DOCKED: ENDBRANCH  10  13
DOCKED: ENDBRANCH   4  11
DOCKED: ENDBRANCH   3   7
DOCKED: ENDBRANCH   1   3
DOCKED: BRANCH   1  17
DOCKED: ATOM     18  C   UNL     1      37.491  19.516 121.832 -0.10 -0.00    +0.000 C 
DOCKED: BRANCH  17  18
DOCKED: ATOM     19  C   UNL     1      37.120  20.930 122.287 -0.12 -0.00    +0.000 C 
DOCKED: BRANCH  18  19
DOCKED: ATOM     20  O   UNL     1      36.535  21.634 121.226 -0.13 -0.00    +0.000 OA
DOCKED: ATOM     21  H   UNL     1      35.976  22.343 121.578 -0.63 -0.00    +0.000 HD
DOCKED: ENDBRANCH  18  19
DOCKED: ENDBRANCH  17  18
DOCKED: ENDBRANCH   1  17
DOCKED: BRANCH   1  21
DOCKED: ATOM     22  C   UNL     1      35.489  19.038 123.197 -0.19 -0.00    +0.000 C 
DOCKED: BRANCH  21  22
DOCKED: ATOM     23  C   UNL     1      34.392  17.971 123.274 -0.34 -0.00    +0.000 C 
DOCKED: BRANCH  22  23
DOCKED: ATOM     24  C   UNL     1      34.098  17.606 124.701 -0.37 -0.00    +0.000 A 
DOCKED: ATOM     25  C   UNL     1      33.973  16.318 125.211 -0.37 -0.00    +0.000 A 
DOCKED: ATOM     26  N   UNL     1      33.842  16.353 126.557 -0.43 -0.00    +0.000 N 
DOCKED: ATOM     27  C   UNL     1      33.900  17.652 126.902 -0.30 -0.00    +0.000 A 
DOCKED: ATOM     28  C   UNL     1      34.060  18.448 125.797 -0.30 -0.00    +0.000 A 
DOCKED: ATOM     29  C   UNL     1      34.181  19.834 125.903 -0.19 -0.00    +0.000 A 
DOCKED: ATOM     30  C   UNL     1      34.133  20.401 127.189 -0.11 -0.00    +0.000 A 
DOCKED: ATOM     31  C   UNL     1      33.968  19.581 128.327 -0.09 -0.00    +0.000 A 
DOCKED: ATOM     32  C   UNL     1      33.852  18.186 128.189 -0.18 -0.00    +0.000 A 
DOCKED: ATOM     33  H   UNL     1      33.728  15.585 127.162 -0.07 -0.00    +0.000 HD
DOCKED: ATOM     34  CM  UNL     1      33.971  17.246 125.857 -0.14 -0.00    +0.000 AC
DOCKED: ATOM     35  CM  UNL     1      34.016  19.017 127.051 -0.00 -0.00    +0.000 AC
DOCKED: ENDBRANCH  22  23
DOCKED: ENDBRANCH  21  22
DOCKED: ENDBRANCH   1  21
DOCKED: TORSDOF 10DOCKED: TER
DOCKED: ENDMDL
________________________________________________________________________________


	BEGINNING GENETIC ALGORITHM DOCKING 32 of 100
Run: 32 Seed: 366017073 720337302 [ Run 32 of 100 GA/GALS ]
Beginning LAMARCKIAN GENETIC ALGORITHM (LGA), with a maximum of 2500000 energy evaluations.

Final-Value: -16.413


	FINAL GENETIC ALGORITHM DOCKED STATE
	_______________________________________________


Detailed state:  trans 35.442 18.337 122.755 quatxyzw -0.319012 -0.723434 -0.510976 -0.337309 center 0.288 0.007 -0.056 ntor 10 6.3428 -63.6402 29.3040 159.0522 -164.8171 51.9513 -59.5793 -62.8222 -99.2938 121.7126
State:	 35.442  18.337 122.755  -0.339 -0.768 -0.543 -140.574      6.34  -63.64   29.30  159.05 -164.82   51.95  -59.58  -62.82  -99.29  121.71

DOCKED: MODEL       32
DOCKED: USER    Run = 32
DOCKED: USER    DPF = ligand_dock.biased.dpf
DOCKED: USER  
DOCKED: USER    Estimated Free Energy of Binding    =  -11.24 kcal/mol  [=(1)+(2)+(3)-(4)]
DOCKED: USER    Estimated Inhibition Constant, Ki   =    5.78 nM (nanomolar)  [Temperature = 298.15 K]
DOCKED: USER    
DOCKED: USER    (1) Final Intermolecular Energy     =  -14.22 kcal/mol
DOCKED: USER        vdW + Hbond + desolv Energy     =  -14.22 kcal/mol
DOCKED: USER        Electrostatic Energy            =   +0.00 kcal/mol
DOCKED: USER    (2) Final Total Internal Energy     =   -2.19 kcal/mol
DOCKED: USER    (3) Torsional Free Energy           =   +2.98 kcal/mol
DOCKED: USER    (4) Unbound System's Energy  [=(2)] =   -2.19 kcal/mol
DOCKED: USER    
DOCKED: USER    
DOCKED: USER    NEWDPF move ligand.dum.pdbqt
DOCKED: USER    NEWDPF about 0.288000 0.007000 -0.056000
DOCKED: USER    NEWDPF tran0 35.441988 18.336966 122.754980
DOCKED: USER    NEWDPF quaternion0 -0.319012 -0.723434 -0.510976 -0.337309
DOCKED: USER    NEWDPF axisangle0 -0.338872 -0.768471 -0.542787 -140.574015
DOCKED: USER    NEWDPF quat0 -0.338872 -0.768471 -0.542787 -140.574015
DOCKED: USER    NEWDPF dihe0 6.34 -63.64 29.30 159.05 -164.82 51.95 -59.58 -62.82 -99.29 121.71 
DOCKED: USER  keepresnum = 1 
DOCKED: USER  
DOCKED: REMARK  Name = 
DOCKED: REMARK  10 active torsions:
DOCKED: REMARK  status: ('A' for Active; 'I' for Inactive)
DOCKED: REMARK    1  A    between atoms: C_2  and  C_5
DOCKED: REMARK    2  A    between atoms: C_6  and  C_7
DOCKED: REMARK    3  A    between atoms: C_10  and  C_11
DOCKED: REMARK    4  A    between atoms: C_11  and  N_12
DOCKED: REMARK    5  A    between atoms: N_12  and  C_13
DOCKED: REMARK    6  A    between atoms: N_12  and  C_16
DOCKED: REMARK    7  A    between atoms: C_13  and  C_14
DOCKED: REMARK    8  A    between atoms: C_14  and  O_15
DOCKED: REMARK    9  A    between atoms: C_16  and  C_17
DOCKED: REMARK   10  A    between atoms: C_17  and  C_18
DOCKED: REMARK                            x       y       z     vdW  Elec       q    Type
DOCKED: REMARK                         _______ _______ _______ _____ _____    ______ ____
DOCKED: USER                              x       y       z     vdW  Elec       q    Type
DOCKED: USER                           _______ _______ _______ _____ _____    ______ ____
DOCKED: ROOT
DOCKED: ATOM      1  N   UNL     1      35.935  18.102 121.537 -0.20 -0.00    +0.000 N 
DOCKED: ATOM      2  H   UNL     1      36.783  17.830 121.039 +0.00 -0.00    +0.000 HD
DOCKED: ENDROOT
DOCKED: BRANCH   1   3
DOCKED: ATOM      3  C   UNL     1      36.137  17.551 122.902 -0.26 -0.00    +0.000 C 
DOCKED: BRANCH   3   7
DOCKED: ATOM      4  C   UNL     1      36.402  13.221 123.113 -0.52 -0.00    +0.000 A 
DOCKED: ATOM      5  C   UNL     1      36.812  13.907 121.960 -0.30 -0.00    +0.000 A 
DOCKED: ATOM      6  C   UNL     1      36.729  15.300 121.893 -0.23 -0.00    +0.000 A 
DOCKED: ATOM      7  C   UNL     1      36.208  16.037 122.968 -0.32 -0.00    +0.000 A 
DOCKED: ATOM      8  C   UNL     1      35.809  15.354 124.129 -0.41 -0.00    +0.000 A 
DOCKED: ATOM      9  C   UNL     1      35.892  13.960 124.198 -0.39 -0.00    +0.000 A 
DOCKED: ATOM     10  CM  UNL     1      36.309  14.630 123.043 +0.00 -0.00    +0.000 AC
DOCKED: BRANCH   4  11
DOCKED: ATOM     11  C   UNL     1      36.857  11.004 122.068 -0.59 -0.00    +0.000 C 
DOCKED: ATOM     12  C   UNL     1      36.499  11.739 123.130 -0.69 -0.00    +0.000 C 
DOCKED: BRANCH  10  13
DOCKED: ATOM     13  O   UNL     1      36.856   8.843 121.068 -2.65 -0.00    +0.000 OA
DOCKED: ATOM     14  C   UNL     1      36.932   9.530 122.123 -0.64 -0.00    +0.000 C 
DOCKED: ATOM     15  N   UNL     1      37.090   8.875 123.383 -0.62 -0.00    +0.000 N 
DOCKED: ATOM     16  O   UNL     1      37.160   7.524 123.450 -2.53 -0.00    +0.000 OA
DOCKED: ATOM     17  H   UNL     1      37.150   9.409 124.209 -0.60 -0.00    +0.000 HD
DOCKED: ENDBRANCH  10  13
DOCKED: ENDBRANCH   4  11
DOCKED: ENDBRANCH   3   7
DOCKED: ENDBRANCH   1   3
DOCKED: BRANCH   1  17
DOCKED: ATOM     18  C   UNL     1      35.923  19.581 121.455 -0.04 -0.00    +0.000 C 
DOCKED: BRANCH  17  18
DOCKED: ATOM     19  C   UNL     1      37.271  20.131 120.979 -0.10 -0.00    +0.000 C 
DOCKED: BRANCH  18  19
DOCKED: ATOM     20  O   UNL     1      38.219  19.100 120.939 -0.05 -0.00    +0.000 OA
DOCKED: ATOM     21  H   UNL     1      38.252  18.659 121.802 +0.00 -0.00    +0.000 HD
DOCKED: ENDBRANCH  18  19
DOCKED: ENDBRANCH  17  18
DOCKED: ENDBRANCH   1  17
DOCKED: BRANCH   1  21
DOCKED: ATOM     22  C   UNL     1      34.810  17.474 120.806 -0.21 -0.00    +0.000 C 
DOCKED: BRANCH  21  22
DOCKED: ATOM     23  C   UNL     1      34.552  18.208 119.485 -0.25 -0.00    +0.000 C 
DOCKED: BRANCH  22  23
DOCKED: ATOM     24  C   UNL     1      33.153  18.749 119.436 -0.30 -0.00    +0.000 A 
DOCKED: ATOM     25  C   UNL     1      32.039  18.209 120.069 -0.42 -0.00    +0.000 A 
DOCKED: ATOM     26  N   UNL     1      30.970  19.023 119.924 -0.50 -0.00    +0.000 N 
DOCKED: ATOM     27  C   UNL     1      31.403  20.082 119.217 -0.29 -0.00    +0.000 A 
DOCKED: ATOM     28  C   UNL     1      32.732  19.953 118.903 -0.22 -0.00    +0.000 A 
DOCKED: ATOM     29  C   UNL     1      33.419  20.944 118.200 -0.14 -0.00    +0.000 A 
DOCKED: ATOM     30  C   UNL     1      32.703  22.092 117.815 -0.13 -0.00    +0.000 A 
DOCKED: ATOM     31  C   UNL     1      31.335  22.224 118.138 -0.15 -0.00    +0.000 A 
DOCKED: ATOM     32  C   UNL     1      30.670  21.210 118.851 -0.18 -0.00    +0.000 A 
DOCKED: ATOM     33  H   UNL     1      30.059  18.873 120.265 -0.30 -0.00    +0.000 HD
DOCKED: ATOM     34  CM  UNL     1      32.024  19.198 119.524 +0.00 -0.00    +0.000 AC
DOCKED: ATOM     35  CM  UNL     1      32.044  21.084 118.521 +0.00 -0.00    +0.000 AC
DOCKED: ENDBRANCH  22  23
DOCKED: ENDBRANCH  21  22
DOCKED: ENDBRANCH   1  21
DOCKED: TORSDOF 10DOCKED: TER
DOCKED: ENDMDL
________________________________________________________________________________


	BEGINNING GENETIC ALGORITHM DOCKING 33 of 100
Run: 33 Seed: 393279734 1987168937 [ Run 33 of 100 GA/GALS ]
Beginning LAMARCKIAN GENETIC ALGORITHM (LGA), with a maximum of 2500000 energy evaluations.

Final-Value: -15.941


	FINAL GENETIC ALGORITHM DOCKED STATE
	_______________________________________________


Detailed state:  trans 38.696 15.334 121.569 quatxyzw -0.376586 0.554632 -0.674286 -0.309686 center 0.288 0.007 -0.056 ntor 10 141.3007 180.0000 179.8109 61.4454 50.3435 180.0000 -150.9869 142.0135 18.3040 -11.9064
State:	 38.696  15.334 121.569  -0.396  0.583 -0.709 -143.919    141.30  180.00  179.81   61.45   50.34  180.00 -150.99  142.01   18.30  -11.91

DOCKED: MODEL       33
DOCKED: USER    Run = 33
DOCKED: USER    DPF = ligand_dock.biased.dpf
DOCKED: USER  
DOCKED: USER    Estimated Free Energy of Binding    =  -11.10 kcal/mol  [=(1)+(2)+(3)-(4)]
DOCKED: USER    Estimated Inhibition Constant, Ki   =    7.28 nM (nanomolar)  [Temperature = 298.15 K]
DOCKED: USER    
DOCKED: USER    (1) Final Intermolecular Energy     =  -14.08 kcal/mol
DOCKED: USER        vdW + Hbond + desolv Energy     =  -14.08 kcal/mol
DOCKED: USER        Electrostatic Energy            =   +0.00 kcal/mol
DOCKED: USER    (2) Final Total Internal Energy     =   -1.86 kcal/mol
DOCKED: USER    (3) Torsional Free Energy           =   +2.98 kcal/mol
DOCKED: USER    (4) Unbound System's Energy  [=(2)] =   -1.86 kcal/mol
DOCKED: USER    
DOCKED: USER    
DOCKED: USER    NEWDPF move ligand.dum.pdbqt
DOCKED: USER    NEWDPF about 0.288000 0.007000 -0.056000
DOCKED: USER    NEWDPF tran0 38.696399 15.333525 121.568769
DOCKED: USER    NEWDPF quaternion0 -0.376586 0.554632 -0.674286 -0.309686
DOCKED: USER    NEWDPF axisangle0 -0.396056 0.583308 -0.709149 -143.919412
DOCKED: USER    NEWDPF quat0 -0.396056 0.583308 -0.709149 -143.919412
DOCKED: USER    NEWDPF dihe0 141.30 180.00 179.81 61.45 50.34 180.00 -150.99 142.01 18.30 -11.91 
DOCKED: USER  keepresnum = 1 
DOCKED: USER  
DOCKED: REMARK  Name = 
DOCKED: REMARK  10 active torsions:
DOCKED: REMARK  status: ('A' for Active; 'I' for Inactive)
DOCKED: REMARK    1  A    between atoms: C_2  and  C_5
DOCKED: REMARK    2  A    between atoms: C_6  and  C_7
DOCKED: REMARK    3  A    between atoms: C_10  and  C_11
DOCKED: REMARK    4  A    between atoms: C_11  and  N_12
DOCKED: REMARK    5  A    between atoms: N_12  and  C_13
DOCKED: REMARK    6  A    between atoms: N_12  and  C_16
DOCKED: REMARK    7  A    between atoms: C_13  and  C_14
DOCKED: REMARK    8  A    between atoms: C_14  and  O_15
DOCKED: REMARK    9  A    between atoms: C_16  and  C_17
DOCKED: REMARK   10  A    between atoms: C_17  and  C_18
DOCKED: REMARK                            x       y       z     vdW  Elec       q    Type
DOCKED: REMARK                         _______ _______ _______ _____ _____    ______ ____
DOCKED: USER                              x       y       z     vdW  Elec       q    Type
DOCKED: USER                           _______ _______ _______ _____ _____    ______ ____
DOCKED: ROOT
DOCKED: ATOM      1  N   UNL     1      39.379  16.478 121.655 -0.17 -0.00    +0.000 N 
DOCKED: ATOM      2  H   UNL     1      39.629  17.319 121.134 +0.01 -0.00    +0.000 HD
DOCKED: ENDROOT
DOCKED: BRANCH   1   3
DOCKED: ATOM      3  C   UNL     1      38.123  16.023 121.003 -0.20 -0.00    +0.000 C 
DOCKED: BRANCH   3   7
DOCKED: ATOM      4  C   UNL     1      37.130  11.870 121.797 -0.48 -0.00    +0.000 A 
DOCKED: ATOM      5  C   UNL     1      37.228  12.343 120.480 -0.45 -0.00    +0.000 A 
DOCKED: ATOM      6  C   UNL     1      37.550  13.678 120.224 -0.37 -0.00    +0.000 A 
DOCKED: ATOM      7  C   UNL     1      37.754  14.579 121.282 -0.31 -0.00    +0.000 A 
DOCKED: ATOM      8  C   UNL     1      37.670  14.105 122.602 -0.43 -0.00    +0.000 A 
DOCKED: ATOM      9  C   UNL     1      37.348  12.769 122.859 -0.51 -0.00    +0.000 A 
DOCKED: ATOM     10  CM  UNL     1      37.447  13.223 121.540 +0.00 -0.00    +0.000 AC
DOCKED: BRANCH   4  11
DOCKED: ATOM     11  C   UNL     1      36.110  10.000 123.093 -0.67 -0.00    +0.000 C 
DOCKED: ATOM     12  C   UNL     1      36.774  10.446 122.016 -0.61 -0.00    +0.000 C 
DOCKED: BRANCH  10  13
DOCKED: ATOM     13  O   UNL     1      36.698   7.706 123.341 -2.43 -0.00    +0.000 OA
DOCKED: ATOM     14  C   UNL     1      35.784   8.572 123.279 -0.59 -0.00    +0.000 C 
DOCKED: ATOM     15  N   UNL     1      34.418   8.166 123.388 -0.64 -0.00    +0.000 N 
DOCKED: ATOM     16  O   UNL     1      34.101   6.861 123.558 -0.80 -0.00    +0.000 OA
DOCKED: ATOM     17  H   UNL     1      33.701   8.840 123.339 -0.49 -0.00    +0.000 HD
DOCKED: ENDBRANCH  10  13
DOCKED: ENDBRANCH   4  11
DOCKED: ENDBRANCH   3   7
DOCKED: ENDBRANCH   1   3
DOCKED: BRANCH   1  17
DOCKED: ATOM     18  C   UNL     1      40.541  15.577 121.472 -0.32 -0.00    +0.000 C 
DOCKED: BRANCH  17  18
DOCKED: ATOM     19  C   UNL     1      40.917  14.870 122.776 -0.48 -0.00    +0.000 C 
DOCKED: BRANCH  18  19
DOCKED: ATOM     20  O   UNL     1      42.267  15.102 123.072 -1.07 +0.00    +0.000 OA
DOCKED: ATOM     21  H   UNL     1      42.361  15.973 123.489 -0.06 +0.00    +0.000 HD
DOCKED: ENDBRANCH  18  19
DOCKED: ENDBRANCH  17  18
DOCKED: ENDBRANCH   1  17
DOCKED: BRANCH   1  21
DOCKED: ATOM     22  C   UNL     1      39.195  16.904 123.062 -0.25 -0.00    +0.000 C 
DOCKED: BRANCH  21  22
DOCKED: ATOM     23  C   UNL     1      38.395  18.209 123.127 -0.15 -0.00    +0.000 C 
DOCKED: BRANCH  22  23
DOCKED: ATOM     24  C   UNL     1      37.555  18.262 124.370 -0.17 -0.00    +0.000 A 
DOCKED: ATOM     25  C   UNL     1      37.873  18.926 125.550 -0.15 -0.00    +0.000 A 
DOCKED: ATOM     26  N   UNL     1      36.835  18.879 126.415 -0.16 -0.00    +0.000 N 
DOCKED: ATOM     27  C   UNL     1      35.857  18.205 125.784 -0.16 -0.00    +0.000 A 
DOCKED: ATOM     28  C   UNL     1      36.257  17.814 124.532 -0.23 -0.00    +0.000 A 
DOCKED: ATOM     29  C   UNL     1      35.402  17.126 123.670 -0.33 -0.00    +0.000 A 
DOCKED: ATOM     30  C   UNL     1      34.103  16.839 124.126 -0.39 -0.00    +0.000 A 
DOCKED: ATOM     31  C   UNL     1      33.691  17.240 125.415 -0.30 -0.00    +0.000 A 
DOCKED: ATOM     32  C   UNL     1      34.574  17.935 126.261 -0.27 -0.00    +0.000 A 
DOCKED: ATOM     33  H   UNL     1      36.800  19.261 127.321 -0.00 -0.00    +0.000 HD
DOCKED: ATOM     34  CM  UNL     1      36.874  18.433 125.365 -0.02 -0.00    +0.000 AC
DOCKED: ATOM     35  CM  UNL     1      34.981  17.526 124.965 -0.46 -0.00    +0.000 AC
DOCKED: ENDBRANCH  22  23
DOCKED: ENDBRANCH  21  22
DOCKED: ENDBRANCH   1  21
DOCKED: TORSDOF 10DOCKED: TER
DOCKED: ENDMDL
________________________________________________________________________________


	BEGINNING GENETIC ALGORITHM DOCKING 34 of 100
Run: 34 Seed: 894441546 1471681966 [ Run 34 of 100 GA/GALS ]
Beginning LAMARCKIAN GENETIC ALGORITHM (LGA), with a maximum of 2500000 energy evaluations.

Final-Value: -17.047


	FINAL GENETIC ALGORITHM DOCKED STATE
	_______________________________________________


Detailed state:  trans 36.886 18.664 123.495 quatxyzw -0.391024 0.403235 0.576848 -0.593084 center 0.288 0.007 -0.056 ntor 10 153.6000 -57.4358 30.9132 121.1646 -163.3429 -176.2970 178.4546 178.1907 -124.2586 140.6522
State:	 36.886  18.664 123.495  -0.486  0.501  0.716 -107.248    153.60  -57.44   30.91  121.16 -163.34 -176.30  178.45  178.19 -124.26  140.65

DOCKED: MODEL       34
DOCKED: USER    Run = 34
DOCKED: USER    DPF = ligand_dock.biased.dpf
DOCKED: USER  
DOCKED: USER    Estimated Free Energy of Binding    =  -11.56 kcal/mol  [=(1)+(2)+(3)-(4)]
DOCKED: USER    Estimated Inhibition Constant, Ki   =    3.35 nM (nanomolar)  [Temperature = 298.15 K]
DOCKED: USER    
DOCKED: USER    (1) Final Intermolecular Energy     =  -14.55 kcal/mol
DOCKED: USER        vdW + Hbond + desolv Energy     =  -14.55 kcal/mol
DOCKED: USER        Electrostatic Energy            =   +0.00 kcal/mol
DOCKED: USER    (2) Final Total Internal Energy     =   -2.50 kcal/mol
DOCKED: USER    (3) Torsional Free Energy           =   +2.98 kcal/mol
DOCKED: USER    (4) Unbound System's Energy  [=(2)] =   -2.50 kcal/mol
DOCKED: USER    
DOCKED: USER    
DOCKED: USER    NEWDPF move ligand.dum.pdbqt
DOCKED: USER    NEWDPF about 0.288000 0.007000 -0.056000
DOCKED: USER    NEWDPF tran0 36.886237 18.663974 123.495110
DOCKED: USER    NEWDPF quaternion0 -0.391024 0.403235 0.576848 -0.593084
DOCKED: USER    NEWDPF axisangle0 -0.485659 0.500825 0.716456 -107.247600
DOCKED: USER    NEWDPF quat0 -0.485659 0.500825 0.716456 -107.247600
DOCKED: USER    NEWDPF dihe0 153.60 -57.44 30.91 121.16 -163.34 -176.30 178.45 178.19 -124.26 140.65 
DOCKED: USER  keepresnum = 1 
DOCKED: USER  
DOCKED: REMARK  Name = 
DOCKED: REMARK  10 active torsions:
DOCKED: REMARK  status: ('A' for Active; 'I' for Inactive)
DOCKED: REMARK    1  A    between atoms: C_2  and  C_5
DOCKED: REMARK    2  A    between atoms: C_6  and  C_7
DOCKED: REMARK    3  A    between atoms: C_10  and  C_11
DOCKED: REMARK    4  A    between atoms: C_11  and  N_12
DOCKED: REMARK    5  A    between atoms: N_12  and  C_13
DOCKED: REMARK    6  A    between atoms: N_12  and  C_16
DOCKED: REMARK    7  A    between atoms: C_13  and  C_14
DOCKED: REMARK    8  A    between atoms: C_14  and  O_15
DOCKED: REMARK    9  A    between atoms: C_16  and  C_17
DOCKED: REMARK   10  A    between atoms: C_17  and  C_18
DOCKED: REMARK                            x       y       z     vdW  Elec       q    Type
DOCKED: REMARK                         _______ _______ _______ _____ _____    ______ ____
DOCKED: USER                              x       y       z     vdW  Elec       q    Type
DOCKED: USER                           _______ _______ _______ _____ _____    ______ ____
DOCKED: ROOT
DOCKED: ATOM      1  N   UNL     1      37.179  18.177 124.703 -0.20 -0.00    +0.000 N 
DOCKED: ATOM      2  H   UNL     1      36.815  17.594 125.457 -0.02 -0.00    +0.000 HD
DOCKED: ENDROOT
DOCKED: BRANCH   1   3
DOCKED: ATOM      3  C   UNL     1      36.437  17.704 123.506 -0.25 -0.00    +0.000 C 
DOCKED: BRANCH   3   7
DOCKED: ATOM      4  C   UNL     1      36.226  13.379 123.170 -0.49 -0.00    +0.000 A 
DOCKED: ATOM      5  C   UNL     1      37.292  14.090 122.598 -0.43 -0.00    +0.000 A 
DOCKED: ATOM      6  C   UNL     1      37.361  15.481 122.708 -0.31 -0.00    +0.000 A 
DOCKED: ATOM      7  C   UNL     1      36.350  16.196 123.369 -0.32 -0.00    +0.000 A 
DOCKED: ATOM      8  C   UNL     1      35.289  15.487 123.954 -0.47 -0.00    +0.000 A 
DOCKED: ATOM      9  C   UNL     1      35.218  14.094 123.846 -0.38 -0.00    +0.000 A 
DOCKED: ATOM     10  CM  UNL     1      36.290  14.787 123.274 +0.00 -0.00    +0.000 AC
DOCKED: BRANCH   4  11
DOCKED: ATOM     11  C   UNL     1      37.083  11.209 122.292 -0.55 -0.00    +0.000 C 
DOCKED: ATOM     12  C   UNL     1      36.193  11.903 123.015 -0.67 -0.00    +0.000 C 
DOCKED: BRANCH  10  13
DOCKED: ATOM     13  O   UNL     1      36.875   9.207 121.019 -2.67 -0.00    +0.000 OA
DOCKED: ATOM     14  C   UNL     1      37.009   9.741 122.154 -0.60 -0.00    +0.000 C 
DOCKED: ATOM     15  N   UNL     1      37.088   8.915 123.318 -0.63 -0.00    +0.000 N 
DOCKED: ATOM     16  O   UNL     1      37.022   7.567 123.208 -2.47 -0.00    +0.000 OA
DOCKED: ATOM     17  H   UNL     1      37.192   9.329 124.206 -0.60 -0.00    +0.000 HD
DOCKED: ENDBRANCH  10  13
DOCKED: ENDBRANCH   4  11
DOCKED: ENDBRANCH   3   7
DOCKED: ENDBRANCH   1   3
DOCKED: BRANCH   1  17
DOCKED: ATOM     18  C   UNL     1      36.866  19.561 125.128 -0.15 -0.00    +0.000 C 
DOCKED: BRANCH  17  18
DOCKED: ATOM     19  C   UNL     1      35.911  19.582 126.324 -0.15 -0.00    +0.000 C 
DOCKED: BRANCH  18  19
DOCKED: ATOM     20  O   UNL     1      35.541  18.273 126.661 -0.23 -0.00    +0.000 OA
DOCKED: ATOM     21  H   UNL     1      36.137  17.936 127.348 -0.01 -0.00    +0.000 HD
DOCKED: ENDBRANCH  18  19
DOCKED: ENDBRANCH  17  18
DOCKED: ENDBRANCH   1  17
DOCKED: BRANCH   1  21
DOCKED: ATOM     22  C   UNL     1      38.635  17.907 124.641 -0.19 -0.00    +0.000 C 
DOCKED: BRANCH  21  22
DOCKED: ATOM     23  C   UNL     1      39.415  19.002 125.376 -0.20 -0.00    +0.000 C 
DOCKED: BRANCH  22  23
DOCKED: ATOM     24  C   UNL     1      40.165  18.433 126.545 -0.29 -0.00    +0.000 A 
DOCKED: ATOM     25  C   UNL     1      41.527  18.153 126.592 -0.21 -0.00    +0.000 A 
DOCKED: ATOM     26  N   UNL     1      41.891  17.778 127.839 -0.49 -0.00    +0.000 N 
DOCKED: ATOM     27  C   UNL     1      40.773  17.834 128.585 -0.42 -0.00    +0.000 A 
DOCKED: ATOM     28  C   UNL     1      39.699  18.234 127.831 -0.26 -0.00    +0.000 A 
DOCKED: ATOM     29  C   UNL     1      38.431  18.400 128.391 -0.12 -0.00    +0.000 A 
DOCKED: ATOM     30  C   UNL     1      38.282  18.142 129.766 -0.20 -0.00    +0.000 A 
DOCKED: ATOM     31  C   UNL     1      39.388  17.730 130.541 -0.23 -0.00    +0.000 A 
DOCKED: ATOM     32  C   UNL     1      40.655  17.575 129.950 -0.30 -0.00    +0.000 A 
DOCKED: ATOM     33  H   UNL     1      42.790  17.517 128.142 -0.05 -0.00    +0.000 HD
DOCKED: ATOM     34  CM  UNL     1      40.846  18.077 127.490 +0.00 -0.00    +0.000 AC
DOCKED: ATOM     35  CM  UNL     1      39.538  17.985 129.177 +0.00 -0.00    +0.000 AC
DOCKED: ENDBRANCH  22  23
DOCKED: ENDBRANCH  21  22
DOCKED: ENDBRANCH   1  21
DOCKED: TORSDOF 10DOCKED: TER
DOCKED: ENDMDL
________________________________________________________________________________


	BEGINNING GENETIC ALGORITHM DOCKING 35 of 100
Run: 35 Seed: 218280091 813122138 [ Run 35 of 100 GA/GALS ]
Beginning LAMARCKIAN GENETIC ALGORITHM (LGA), with a maximum of 2500000 energy evaluations.

Final-Value: -16.823


	FINAL GENETIC ALGORITHM DOCKED STATE
	_______________________________________________


Detailed state:  trans 36.402 17.204 123.917 quatxyzw 0.390861 -0.438192 0.713127 0.382968 center 0.288 0.007 -0.056 ntor 10 -2.3189 -71.7957 27.5644 171.2631 -14.6022 -133.1931 -157.4614 2.8476 28.7308 -37.3427
State:	 36.402  17.204 123.917   0.423 -0.474  0.772 134.965     -2.32  -71.80   27.56  171.26  -14.60 -133.19 -157.46    2.85   28.73  -37.34

DOCKED: MODEL       35
DOCKED: USER    Run = 35
DOCKED: USER    DPF = ligand_dock.biased.dpf
DOCKED: USER  
DOCKED: USER    Estimated Free Energy of Binding    =  -11.38 kcal/mol  [=(1)+(2)+(3)-(4)]
DOCKED: USER    Estimated Inhibition Constant, Ki   =    4.56 nM (nanomolar)  [Temperature = 298.15 K]
DOCKED: USER    
DOCKED: USER    (1) Final Intermolecular Energy     =  -14.36 kcal/mol
DOCKED: USER        vdW + Hbond + desolv Energy     =  -14.36 kcal/mol
DOCKED: USER        Electrostatic Energy            =   +0.00 kcal/mol
DOCKED: USER    (2) Final Total Internal Energy     =   -2.46 kcal/mol
DOCKED: USER    (3) Torsional Free Energy           =   +2.98 kcal/mol
DOCKED: USER    (4) Unbound System's Energy  [=(2)] =   -2.46 kcal/mol
DOCKED: USER    
DOCKED: USER    
DOCKED: USER    NEWDPF move ligand.dum.pdbqt
DOCKED: USER    NEWDPF about 0.288000 0.007000 -0.056000
DOCKED: USER    NEWDPF tran0 36.401555 17.203860 123.917457
DOCKED: USER    NEWDPF quaternion0 0.390861 -0.438192 0.713127 0.382968
DOCKED: USER    NEWDPF axisangle0 0.423119 -0.474356 0.771982 134.964686
DOCKED: USER    NEWDPF quat0 0.423119 -0.474356 0.771982 134.964686
DOCKED: USER    NEWDPF dihe0 -2.32 -71.80 27.56 171.26 -14.60 -133.19 -157.46 2.85 28.73 -37.34 
DOCKED: USER  keepresnum = 1 
DOCKED: USER  
DOCKED: REMARK  Name = 
DOCKED: REMARK  10 active torsions:
DOCKED: REMARK  status: ('A' for Active; 'I' for Inactive)
DOCKED: REMARK    1  A    between atoms: C_2  and  C_5
DOCKED: REMARK    2  A    between atoms: C_6  and  C_7
DOCKED: REMARK    3  A    between atoms: C_10  and  C_11
DOCKED: REMARK    4  A    between atoms: C_11  and  N_12
DOCKED: REMARK    5  A    between atoms: N_12  and  C_13
DOCKED: REMARK    6  A    between atoms: N_12  and  C_16
DOCKED: REMARK    7  A    between atoms: C_13  and  C_14
DOCKED: REMARK    8  A    between atoms: C_14  and  O_15
DOCKED: REMARK    9  A    between atoms: C_16  and  C_17
DOCKED: REMARK   10  A    between atoms: C_17  and  C_18
DOCKED: REMARK                            x       y       z     vdW  Elec       q    Type
DOCKED: REMARK                         _______ _______ _______ _____ _____    ______ ____
DOCKED: USER                              x       y       z     vdW  Elec       q    Type
DOCKED: USER                           _______ _______ _______ _____ _____    ______ ____
DOCKED: ROOT
DOCKED: ATOM      1  N   UNL     1      36.862  18.457 123.911 -0.17 -0.00    +0.000 N 
DOCKED: ATOM      2  H   UNL     1      37.057  19.251 123.301 +0.00 -0.00    +0.000 HD
DOCKED: ENDROOT
DOCKED: BRANCH   1   3
DOCKED: ATOM      3  C   UNL     1      35.831  17.688 123.166 -0.28 -0.00    +0.000 C 
DOCKED: BRANCH   3   7
DOCKED: ATOM      4  C   UNL     1      36.393  13.382 123.107 -0.51 -0.00    +0.000 A 
DOCKED: ATOM      5  C   UNL     1      35.558  13.981 124.063 -0.40 -0.00    +0.000 A 
DOCKED: ATOM      6  C   UNL     1      35.375  15.366 124.080 -0.47 -0.00    +0.000 A 
DOCKED: ATOM      7  C   UNL     1      36.046  16.187 123.159 -0.33 -0.00    +0.000 A 
DOCKED: ATOM      8  C   UNL     1      36.872  15.588 122.194 -0.27 -0.00    +0.000 A 
DOCKED: ATOM      9  C   UNL     1      37.056  14.202 122.174 -0.37 -0.00    +0.000 A 
DOCKED: ATOM     10  CM  UNL     1      36.216  14.784 123.130 +0.00 -0.00    +0.000 AC
DOCKED: BRANCH   4  11
DOCKED: ATOM     11  C   UNL     1      36.705  11.150 122.041 -0.62 -0.00    +0.000 C 
DOCKED: ATOM     12  C   UNL     1      36.563  11.907 123.138 -0.68 -0.00    +0.000 C 
DOCKED: BRANCH  10  13
DOCKED: ATOM     13  O   UNL     1      36.805   8.979 121.068 -2.64 -0.00    +0.000 OA
DOCKED: ATOM     14  C   UNL     1      36.861   9.684 122.113 -0.64 -0.00    +0.000 C 
DOCKED: ATOM     15  N   UNL     1      37.077   9.055 123.378 -0.60 -0.00    +0.000 N 
DOCKED: ATOM     16  O   UNL     1      37.222   7.712 123.461 -2.65 -0.00    +0.000 OA
DOCKED: ATOM     17  H   UNL     1      37.121   9.603 124.196 -0.59 -0.00    +0.000 HD
DOCKED: ENDBRANCH  10  13
DOCKED: ENDBRANCH   4  11
DOCKED: ENDBRANCH   3   7
DOCKED: ENDBRANCH   1   3
DOCKED: BRANCH   1  17
DOCKED: ATOM     18  C   UNL     1      38.169  17.776 124.055 -0.21 -0.00    +0.000 C 
DOCKED: BRANCH  17  18
DOCKED: ATOM     19  C   UNL     1      39.174  18.256 123.005 -0.14 -0.00    +0.000 C 
DOCKED: BRANCH  18  19
DOCKED: ATOM     20  O   UNL     1      38.501  18.909 121.965 -0.07 -0.00    +0.000 OA
DOCKED: ATOM     21  H   UNL     1      37.903  18.285 121.525 +0.00 -0.00    +0.000 HD
DOCKED: ENDBRANCH  18  19
DOCKED: ENDBRANCH  17  18
DOCKED: ENDBRANCH   1  17
DOCKED: BRANCH   1  21
DOCKED: ATOM     22  C   UNL     1      36.366  19.030 125.185 -0.19 -0.00    +0.000 C 
DOCKED: BRANCH  21  22
DOCKED: ATOM     23  C   UNL     1      35.183  19.970 124.926 -0.18 -0.00    +0.000 C 
DOCKED: BRANCH  22  23
DOCKED: ATOM     24  C   UNL     1      34.142  19.828 125.998 -0.19 -0.00    +0.000 A 
DOCKED: ATOM     25  C   UNL     1      33.341  20.845 126.507 -0.16 -0.00    +0.000 A 
DOCKED: ATOM     26  N   UNL     1      32.422  20.342 127.362 -0.18 -0.00    +0.000 N 
DOCKED: ATOM     27  C   UNL     1      32.626  19.013 127.385 -0.21 -0.00    +0.000 A 
DOCKED: ATOM     28  C   UNL     1      33.665  18.659 126.562 -0.26 -0.00    +0.000 A 
DOCKED: ATOM     29  C   UNL     1      34.045  17.328 126.391 -0.33 -0.00    +0.000 A 
DOCKED: ATOM     30  C   UNL     1      33.327  16.344 127.096 -0.36 -0.00    +0.000 A 
DOCKED: ATOM     31  C   UNL     1      32.258  16.708 127.943 -0.40 -0.00    +0.000 A 
DOCKED: ATOM     32  C   UNL     1      31.895  18.059 128.093 -0.25 -0.00    +0.000 A 
DOCKED: ATOM     33  H   UNL     1      31.742  20.845 127.865 +0.00 -0.00    +0.000 HD
DOCKED: ATOM     34  CM  UNL     1      33.212  19.757 126.781 +0.00 -0.00    +0.000 AC
DOCKED: ATOM     35  CM  UNL     1      32.970  17.686 127.245 +0.00 -0.00    +0.000 AC
DOCKED: ENDBRANCH  22  23
DOCKED: ENDBRANCH  21  22
DOCKED: ENDBRANCH   1  21
DOCKED: TORSDOF 10DOCKED: TER
DOCKED: ENDMDL
________________________________________________________________________________


	BEGINNING GENETIC ALGORITHM DOCKING 36 of 100
Run: 36 Seed: 700006781 189956129 [ Run 36 of 100 GA/GALS ]
Beginning LAMARCKIAN GENETIC ALGORITHM (LGA), with a maximum of 2500000 energy evaluations.

Final-Value: -16.188


	FINAL GENETIC ALGORITHM DOCKED STATE
	_______________________________________________


Detailed state:  trans 36.228 17.225 122.225 quatxyzw 0.609766 -0.162683 -0.607338 -0.482557 center 0.288 0.007 -0.056 ntor 10 157.1598 -73.4015 33.1962 142.0059 44.3343 180.0000 -144.1662 -166.9212 149.9039 -46.1162
State:	 36.228  17.225 122.225   0.696 -0.186 -0.693 -122.295    157.16  -73.40   33.20  142.01   44.33  180.00 -144.17 -166.92  149.90  -46.12

DOCKED: MODEL       36
DOCKED: USER    Run = 36
DOCKED: USER    DPF = ligand_dock.biased.dpf
DOCKED: USER  
DOCKED: USER    Estimated Free Energy of Binding    =  -11.03 kcal/mol  [=(1)+(2)+(3)-(4)]
DOCKED: USER    Estimated Inhibition Constant, Ki   =    8.27 nM (nanomolar)  [Temperature = 298.15 K]
DOCKED: USER    
DOCKED: USER    (1) Final Intermolecular Energy     =  -14.01 kcal/mol
DOCKED: USER        vdW + Hbond + desolv Energy     =  -14.01 kcal/mol
DOCKED: USER        Electrostatic Energy            =   +0.00 kcal/mol
DOCKED: USER    (2) Final Total Internal Energy     =   -2.18 kcal/mol
DOCKED: USER    (3) Torsional Free Energy           =   +2.98 kcal/mol
DOCKED: USER    (4) Unbound System's Energy  [=(2)] =   -2.18 kcal/mol
DOCKED: USER    
DOCKED: USER    
DOCKED: USER    NEWDPF move ligand.dum.pdbqt
DOCKED: USER    NEWDPF about 0.288000 0.007000 -0.056000
DOCKED: USER    NEWDPF tran0 36.228078 17.225127 122.225476
DOCKED: USER    NEWDPF quaternion0 0.609766 -0.162683 -0.607338 -0.482557
DOCKED: USER    NEWDPF axisangle0 0.696187 -0.185740 -0.693415 -122.294961
DOCKED: USER    NEWDPF quat0 0.696187 -0.185740 -0.693415 -122.294961
DOCKED: USER    NEWDPF dihe0 157.16 -73.40 33.20 142.01 44.33 180.00 -144.17 -166.92 149.90 -46.12 
DOCKED: USER  keepresnum = 1 
DOCKED: USER  
DOCKED: REMARK  Name = 
DOCKED: REMARK  10 active torsions:
DOCKED: REMARK  status: ('A' for Active; 'I' for Inactive)
DOCKED: REMARK    1  A    between atoms: C_2  and  C_5
DOCKED: REMARK    2  A    between atoms: C_6  and  C_7
DOCKED: REMARK    3  A    between atoms: C_10  and  C_11
DOCKED: REMARK    4  A    between atoms: C_11  and  N_12
DOCKED: REMARK    5  A    between atoms: N_12  and  C_13
DOCKED: REMARK    6  A    between atoms: N_12  and  C_16
DOCKED: REMARK    7  A    between atoms: C_13  and  C_14
DOCKED: REMARK    8  A    between atoms: C_14  and  O_15
DOCKED: REMARK    9  A    between atoms: C_16  and  C_17
DOCKED: REMARK   10  A    between atoms: C_17  and  C_18
DOCKED: REMARK                            x       y       z     vdW  Elec       q    Type
DOCKED: REMARK                         _______ _______ _______ _____ _____    ______ ____
DOCKED: USER                              x       y       z     vdW  Elec       q    Type
DOCKED: USER                           _______ _______ _______ _____ _____    ______ ____
DOCKED: ROOT
DOCKED: ATOM      1  N   UNL     1      35.837  18.391 122.745 -0.21 -0.00    +0.000 N 
DOCKED: ATOM      2  H   UNL     1      36.024  19.052 123.499 -0.00 -0.00    +0.000 HD
DOCKED: ENDROOT
DOCKED: BRANCH   1   3
DOCKED: ATOM      3  C   UNL     1      37.123  17.663 122.589 -0.18 -0.00    +0.000 C 
DOCKED: BRANCH   3   7
DOCKED: ATOM      4  C   UNL     1      36.710  13.340 122.698 -0.49 -0.00    +0.000 A 
DOCKED: ATOM      5  C   UNL     1      36.613  14.098 123.875 -0.35 -0.00    +0.000 A 
DOCKED: ATOM      6  C   UNL     1      36.743  15.489 123.839 -0.29 -0.00    +0.000 A 
DOCKED: ATOM      7  C   UNL     1      37.001  16.152 122.629 -0.26 -0.00    +0.000 A 
DOCKED: ATOM      8  C   UNL     1      37.087  15.397 121.447 -0.23 -0.00    +0.000 A 
DOCKED: ATOM      9  C   UNL     1      36.956  14.005 121.480 -0.25 -0.00    +0.000 A 
DOCKED: ATOM     10  CM  UNL     1      36.851  14.746 122.662 +0.00 -0.00    +0.000 AC
DOCKED: BRANCH   4  11
DOCKED: ATOM     11  C   UNL     1      37.081  11.013 121.886 -0.51 -0.00    +0.000 C 
DOCKED: ATOM     12  C   UNL     1      36.576  11.865 122.790 -0.66 -0.00    +0.000 C 
DOCKED: BRANCH  10  13
DOCKED: ATOM     13  O   UNL     1      36.694   8.841 120.990 -2.61 -0.00    +0.000 OA
DOCKED: ATOM     14  C   UNL     1      36.917   9.551 122.008 -0.64 -0.00    +0.000 C 
DOCKED: ATOM     15  N   UNL     1      37.011   8.932 123.293 -0.63 -0.00    +0.000 N 
DOCKED: ATOM     16  O   UNL     1      36.862   7.592 123.422 -2.48 -0.00    +0.000 OA
DOCKED: ATOM     17  H   UNL     1      37.185   9.483 124.091 -0.56 -0.00    +0.000 HD
DOCKED: ENDBRANCH  10  13
DOCKED: ENDBRANCH   4  11
DOCKED: ENDBRANCH   3   7
DOCKED: ENDBRANCH   1   3
DOCKED: BRANCH   1  17
DOCKED: ATOM     18  C   UNL     1      34.710  17.572 123.248 -0.40 -0.00    +0.000 C 
DOCKED: BRANCH  17  18
DOCKED: ATOM     19  C   UNL     1      34.421  17.856 124.725 -0.39 -0.00    +0.000 C 
DOCKED: BRANCH  18  19
DOCKED: ATOM     20  O   UNL     1      35.529  18.477 125.315 -0.26 -0.00    +0.000 OA
DOCKED: ATOM     21  H   UNL     1      35.394  19.438 125.326 -0.00 -0.00    +0.000 HD
DOCKED: ENDBRANCH  18  19
DOCKED: ENDBRANCH  17  18
DOCKED: ENDBRANCH   1  17
DOCKED: BRANCH   1  21
DOCKED: ATOM     22  C   UNL     1      35.474  19.209 121.563 -0.12 -0.00    +0.000 C 
DOCKED: BRANCH  21  22
DOCKED: ATOM     23  C   UNL     1      35.282  18.317 120.332 -0.24 -0.00    +0.000 C 
DOCKED: BRANCH  22  23
DOCKED: ATOM     24  C   UNL     1      34.363  18.966 119.338 -0.22 -0.00    +0.000 A 
DOCKED: ATOM     25  C   UNL     1      34.745  19.676 118.205 -0.12 -0.00    +0.000 A 
DOCKED: ATOM     26  N   UNL     1      33.663  20.005 117.465 -0.10 -0.00    +0.000 N 
DOCKED: ATOM     27  C   UNL     1      32.601  19.495 118.113 -0.19 -0.00    +0.000 A 
DOCKED: ATOM     28  C   UNL     1      32.987  18.850 119.259 -0.30 -0.00    +0.000 A 
DOCKED: ATOM     29  C   UNL     1      32.065  18.208 120.087 -0.42 -0.00    +0.000 A 
DOCKED: ATOM     30  C   UNL     1      30.710  18.242 119.710 -0.41 -0.00    +0.000 A 
DOCKED: ATOM     31  C   UNL     1      30.312  18.907 118.529 -0.30 -0.00    +0.000 A 
DOCKED: ATOM     32  C   UNL     1      31.265  19.542 117.713 -0.17 -0.00    +0.000 A 
DOCKED: ATOM     33  H   UNL     1      33.653  20.514 116.622 +0.00 -0.00    +0.000 HD
DOCKED: ATOM     34  CM  UNL     1      33.671  19.417 118.443 +0.00 -0.00    +0.000 AC
DOCKED: ATOM     35  CM  UNL     1      31.657  18.874 118.902 +0.00 -0.00    +0.000 AC
DOCKED: ENDBRANCH  22  23
DOCKED: ENDBRANCH  21  22
DOCKED: ENDBRANCH   1  21
DOCKED: TORSDOF 10DOCKED: TER
DOCKED: ENDMDL
________________________________________________________________________________


	BEGINNING GENETIC ALGORITHM DOCKING 37 of 100
Run: 37 Seed: 1206671467 228116808 [ Run 37 of 100 GA/GALS ]
Beginning LAMARCKIAN GENETIC ALGORITHM (LGA), with a maximum of 2500000 energy evaluations.

Final-Value: -16.805


	FINAL GENETIC ALGORITHM DOCKED STATE
	_______________________________________________


Detailed state:  trans 37.120 17.875 123.142 quatxyzw 0.994458 -0.085882 0.058177 -0.017093 center 0.288 0.007 -0.056 ntor 10 15.1856 -84.2671 63.9178 125.3423 -179.6750 10.6638 -6.2731 14.1700 172.6014 -104.3700
State:	 37.120  17.875 123.142   0.995 -0.086  0.058 -178.041     15.19  -84.27   63.92  125.34 -179.68   10.66   -6.27   14.17  172.60 -104.37

DOCKED: MODEL       37
DOCKED: USER    Run = 37
DOCKED: USER    DPF = ligand_dock.biased.dpf
DOCKED: USER  
DOCKED: USER    Estimated Free Energy of Binding    =  -10.73 kcal/mol  [=(1)+(2)+(3)-(4)]
DOCKED: USER    Estimated Inhibition Constant, Ki   =   13.67 nM (nanomolar)  [Temperature = 298.15 K]
DOCKED: USER    
DOCKED: USER    (1) Final Intermolecular Energy     =  -13.71 kcal/mol
DOCKED: USER        vdW + Hbond + desolv Energy     =  -13.71 kcal/mol
DOCKED: USER        Electrostatic Energy            =   +0.00 kcal/mol
DOCKED: USER    (2) Final Total Internal Energy     =   -3.09 kcal/mol
DOCKED: USER    (3) Torsional Free Energy           =   +2.98 kcal/mol
DOCKED: USER    (4) Unbound System's Energy  [=(2)] =   -3.09 kcal/mol
DOCKED: USER    
DOCKED: USER    
DOCKED: USER    NEWDPF move ligand.dum.pdbqt
DOCKED: USER    NEWDPF about 0.288000 0.007000 -0.056000
DOCKED: USER    NEWDPF tran0 37.120157 17.875245 123.141770
DOCKED: USER    NEWDPF quaternion0 0.994458 -0.085882 0.058177 -0.017093
DOCKED: USER    NEWDPF axisangle0 0.994604 -0.085894 0.058186 -178.041230
DOCKED: USER    NEWDPF quat0 0.994604 -0.085894 0.058186 -178.041230
DOCKED: USER    NEWDPF dihe0 15.19 -84.27 63.92 125.34 -179.68 10.66 -6.27 14.17 172.60 -104.37 
DOCKED: USER  keepresnum = 1 
DOCKED: USER  
DOCKED: REMARK  Name = 
DOCKED: REMARK  10 active torsions:
DOCKED: REMARK  status: ('A' for Active; 'I' for Inactive)
DOCKED: REMARK    1  A    between atoms: C_2  and  C_5
DOCKED: REMARK    2  A    between atoms: C_6  and  C_7
DOCKED: REMARK    3  A    between atoms: C_10  and  C_11
DOCKED: REMARK    4  A    between atoms: C_11  and  N_12
DOCKED: REMARK    5  A    between atoms: N_12  and  C_13
DOCKED: REMARK    6  A    between atoms: N_12  and  C_16
DOCKED: REMARK    7  A    between atoms: C_13  and  C_14
DOCKED: REMARK    8  A    between atoms: C_14  and  O_15
DOCKED: REMARK    9  A    between atoms: C_16  and  C_17
DOCKED: REMARK   10  A    between atoms: C_17  and  C_18
DOCKED: REMARK                            x       y       z     vdW  Elec       q    Type
DOCKED: REMARK                         _______ _______ _______ _____ _____    ______ ____
DOCKED: USER                              x       y       z     vdW  Elec       q    Type
DOCKED: USER                           _______ _______ _______ _____ _____    ______ ____
DOCKED: ROOT
DOCKED: ATOM      1  N   UNL     1      35.901  18.395 122.979 -0.21 -0.00    +0.000 N 
DOCKED: ATOM      2  H   UNL     1      34.911  18.219 123.150 -0.01 -0.00    +0.000 HD
DOCKED: ENDROOT
DOCKED: BRANCH   1   3
DOCKED: ATOM      3  C   UNL     1      36.586  17.561 124.002 -0.26 -0.00    +0.000 C 
DOCKED: BRANCH   3   7
DOCKED: ATOM      4  C   UNL     1      36.313  13.269 123.401 -0.54 -0.00    +0.000 A 
DOCKED: ATOM      5  C   UNL     1      37.514  13.950 123.155 -0.45 -0.00    +0.000 A 
DOCKED: ATOM      6  C   UNL     1      37.603  15.331 123.351 -0.30 -0.00    +0.000 A 
DOCKED: ATOM      7  C   UNL     1      36.483  16.066 123.770 -0.32 -0.00    +0.000 A 
DOCKED: ATOM      8  C   UNL     1      35.282  15.385 124.029 -0.48 -0.00    +0.000 A 
DOCKED: ATOM      9  C   UNL     1      35.192  14.003 123.834 -0.33 -0.00    +0.000 A 
DOCKED: ATOM     10  CM  UNL     1      36.398  14.667 123.590 +0.00 -0.00    +0.000 AC
DOCKED: BRANCH   4  11
DOCKED: ATOM     11  C   UNL     1      37.134  11.146 122.384 -0.49 -0.00    +0.000 C 
DOCKED: ATOM     12  C   UNL     1      36.267  11.804 123.167 -0.69 -0.00    +0.000 C 
DOCKED: BRANCH  10  13
DOCKED: ATOM     13  O   UNL     1      36.963   9.214 121.003 -2.70 -0.00    +0.000 OA
DOCKED: ATOM     14  C   UNL     1      37.049   9.688 122.168 -0.60 -0.00    +0.000 C 
DOCKED: ATOM     15  N   UNL     1      37.062   8.804 123.291 -0.65 -0.00    +0.000 N 
DOCKED: ATOM     16  O   UNL     1      36.984   7.464 123.110 -2.36 -0.00    +0.000 OA
DOCKED: ATOM     17  H   UNL     1      37.128   9.170 124.203 -0.59 -0.00    +0.000 HD
DOCKED: ENDBRANCH  10  13
DOCKED: ENDBRANCH   4  11
DOCKED: ENDBRANCH   3   7
DOCKED: ENDBRANCH   1   3
DOCKED: BRANCH   1  17
DOCKED: ATOM     18  C   UNL     1      36.112  17.965 121.578 -0.22 -0.00    +0.000 C 
DOCKED: BRANCH  17  18
DOCKED: ATOM     19  C   UNL     1      34.801  17.953 120.787 -0.30 -0.00    +0.000 C 
DOCKED: BRANCH  18  19
DOCKED: ATOM     20  O   UNL     1      33.728  17.689 121.648 -0.47 -0.00    +0.000 OA
DOCKED: ATOM     21  H   UNL     1      33.961  16.955 122.238 -0.03 -0.00    +0.000 HD
DOCKED: ENDBRANCH  18  19
DOCKED: ENDBRANCH  17  18
DOCKED: ENDBRANCH   1  17
DOCKED: BRANCH   1  21
DOCKED: ATOM     22  C   UNL     1      36.100  19.851 123.173 -0.18 -0.00    +0.000 C 
DOCKED: BRANCH  21  22
DOCKED: ATOM     23  C   UNL     1      37.412  20.304 122.524 -0.11 -0.00    +0.000 C 
DOCKED: BRANCH  22  23
DOCKED: ATOM     24  C   UNL     1      38.595  19.723 123.243 -0.06 -0.00    +0.000 A 
DOCKED: ATOM     25  C   UNL     1      39.041  20.077 124.512 -0.07 -0.00    +0.000 A 
DOCKED: ATOM     26  N   UNL     1      40.046  19.262 124.905 -0.15 -0.00    +0.000 N 
DOCKED: ATOM     27  C   UNL     1      40.228  18.386 123.901 -0.19 -0.00    +0.000 A 
DOCKED: ATOM     28  C   UNL     1      39.358  18.632 122.869 -0.09 -0.00    +0.000 A 
DOCKED: ATOM     29  C   UNL     1      39.331  17.833 121.725 -0.08 -0.00    +0.000 A 
DOCKED: ATOM     30  C   UNL     1      40.232  16.755 121.656 -0.17 -0.00    +0.000 A 
DOCKED: ATOM     31  C   UNL     1      41.128  16.502 122.718 -0.32 -0.00    +0.000 A 
DOCKED: ATOM     32  C   UNL     1      41.130  17.323 123.860 -0.30 -0.00    +0.000 A 
DOCKED: ATOM     33  H   UNL     1      40.545  19.300 125.753 -0.01 -0.00    +0.000 HD
DOCKED: ATOM     34  CM  UNL     1      39.472  19.217 123.919 +0.00 -0.00    +0.000 AC
DOCKED: ATOM     35  CM  UNL     1      40.234  17.572 122.788 +0.00 -0.00    +0.000 AC
DOCKED: ENDBRANCH  22  23
DOCKED: ENDBRANCH  21  22
DOCKED: ENDBRANCH   1  21
DOCKED: TORSDOF 10DOCKED: TER
DOCKED: ENDMDL
________________________________________________________________________________


	BEGINNING GENETIC ALGORITHM DOCKING 38 of 100
Run: 38 Seed: 1757346925 539130332 [ Run 38 of 100 GA/GALS ]
Beginning LAMARCKIAN GENETIC ALGORITHM (LGA), with a maximum of 2500000 energy evaluations.

Final-Value: -17.117


	FINAL GENETIC ALGORITHM DOCKED STATE
	_______________________________________________


Detailed state:  trans 36.549 18.477 122.811 quatxyzw 0.449363 -0.555997 -0.427588 0.553271 center 0.288 0.007 -0.056 ntor 10 126.6562 -56.0679 16.0880 180.0000 157.7625 23.8818 141.9373 174.8241 -106.0824 110.5778
State:	 36.549  18.477 122.811   0.539 -0.667 -0.513 112.817    126.66  -56.07   16.09  180.00  157.76   23.88  141.94  174.82 -106.08  110.58

DOCKED: MODEL       38
DOCKED: USER    Run = 38
DOCKED: USER    DPF = ligand_dock.biased.dpf
DOCKED: USER  
DOCKED: USER    Estimated Free Energy of Binding    =  -11.74 kcal/mol  [=(1)+(2)+(3)-(4)]
DOCKED: USER    Estimated Inhibition Constant, Ki   =    2.48 nM (nanomolar)  [Temperature = 298.15 K]
DOCKED: USER    
DOCKED: USER    (1) Final Intermolecular Energy     =  -14.72 kcal/mol
DOCKED: USER        vdW + Hbond + desolv Energy     =  -14.72 kcal/mol
DOCKED: USER        Electrostatic Energy            =   +0.00 kcal/mol
DOCKED: USER    (2) Final Total Internal Energy     =   -2.40 kcal/mol
DOCKED: USER    (3) Torsional Free Energy           =   +2.98 kcal/mol
DOCKED: USER    (4) Unbound System's Energy  [=(2)] =   -2.40 kcal/mol
DOCKED: USER    
DOCKED: USER    
DOCKED: USER    NEWDPF move ligand.dum.pdbqt
DOCKED: USER    NEWDPF about 0.288000 0.007000 -0.056000
DOCKED: USER    NEWDPF tran0 36.548656 18.476778 122.810850
DOCKED: USER    NEWDPF quaternion0 0.449363 -0.555997 -0.427588 0.553271
DOCKED: USER    NEWDPF axisangle0 0.539451 -0.667462 -0.513310 112.816553
DOCKED: USER    NEWDPF quat0 0.539451 -0.667462 -0.513310 112.816553
DOCKED: USER    NEWDPF dihe0 126.66 -56.07 16.09 180.00 157.76 23.88 141.94 174.82 -106.08 110.58 
DOCKED: USER  keepresnum = 1 
DOCKED: USER  
DOCKED: REMARK  Name = 
DOCKED: REMARK  10 active torsions:
DOCKED: REMARK  status: ('A' for Active; 'I' for Inactive)
DOCKED: REMARK    1  A    between atoms: C_2  and  C_5
DOCKED: REMARK    2  A    between atoms: C_6  and  C_7
DOCKED: REMARK    3  A    between atoms: C_10  and  C_11
DOCKED: REMARK    4  A    between atoms: C_11  and  N_12
DOCKED: REMARK    5  A    between atoms: N_12  and  C_13
DOCKED: REMARK    6  A    between atoms: N_12  and  C_16
DOCKED: REMARK    7  A    between atoms: C_13  and  C_14
DOCKED: REMARK    8  A    between atoms: C_14  and  O_15
DOCKED: REMARK    9  A    between atoms: C_16  and  C_17
DOCKED: REMARK   10  A    between atoms: C_17  and  C_18
DOCKED: REMARK                            x       y       z     vdW  Elec       q    Type
DOCKED: REMARK                         _______ _______ _______ _____ _____    ______ ____
DOCKED: USER                              x       y       z     vdW  Elec       q    Type
DOCKED: USER                           _______ _______ _______ _____ _____    ______ ____
DOCKED: ROOT
DOCKED: ATOM      1  N   UNL     1      36.825  18.442 124.117 -0.18 -0.00    +0.000 N 
DOCKED: ATOM      2  H   UNL     1      36.408  18.281 125.034 -0.01 -0.00    +0.000 HD
DOCKED: ENDROOT
DOCKED: BRANCH   1   3
DOCKED: ATOM      3  C   UNL     1      35.924  17.708 123.189 -0.28 -0.00    +0.000 C 
DOCKED: BRANCH   3   7
DOCKED: ATOM      4  C   UNL     1      36.450  13.398 123.283 -0.52 -0.00    +0.000 A 
DOCKED: ATOM      5  C   UNL     1      37.150  14.184 122.356 -0.40 -0.00    +0.000 A 
DOCKED: ATOM      6  C   UNL     1      36.983  15.571 122.327 -0.28 -0.00    +0.000 A 
DOCKED: ATOM      7  C   UNL     1      36.090  16.201 123.208 -0.33 -0.00    +0.000 A 
DOCKED: ATOM      8  C   UNL     1      35.398  15.419 124.147 -0.46 -0.00    +0.000 A 
DOCKED: ATOM      9  C   UNL     1      35.564  14.031 124.177 -0.38 -0.00    +0.000 A 
DOCKED: ATOM     10  CM  UNL     1      36.273  14.800 123.249 +0.00 -0.00    +0.000 AC
DOCKED: BRANCH   4  11
DOCKED: ATOM     11  C   UNL     1      36.708  11.196 122.143 -0.63 -0.00    +0.000 C 
DOCKED: ATOM     12  C   UNL     1      36.654  11.928 123.266 -0.69 -0.00    +0.000 C 
DOCKED: BRANCH  10  13
DOCKED: ATOM     13  O   UNL     1      36.925   9.069 121.096 -2.68 -0.00    +0.000 OA
DOCKED: ATOM     14  C   UNL     1      36.902   9.733 122.168 -0.63 -0.00    +0.000 C 
DOCKED: ATOM     15  N   UNL     1      37.064   9.061 123.419 -0.59 -0.00    +0.000 N 
DOCKED: ATOM     16  O   UNL     1      37.242   7.719 123.459 -2.65 -0.00    +0.000 OA
DOCKED: ATOM     17  H   UNL     1      37.046   9.576 124.258 -0.56 -0.00    +0.000 HD
DOCKED: ENDBRANCH  10  13
DOCKED: ENDBRANCH   4  11
DOCKED: ENDBRANCH   3   7
DOCKED: ENDBRANCH   1   3
DOCKED: BRANCH   1  17
DOCKED: ATOM     18  C   UNL     1      36.814  19.915 123.964 -0.15 -0.00    +0.000 C 
DOCKED: BRANCH  17  18
DOCKED: ATOM     19  C   UNL     1      35.701  20.560 124.794 -0.17 -0.00    +0.000 C 
DOCKED: BRANCH  18  19
DOCKED: ATOM     20  O   UNL     1      34.967  19.570 125.459 -0.22 -0.00    +0.000 OA
DOCKED: ATOM     21  H   UNL     1      35.531  19.138 126.119 -0.00 -0.00    +0.000 HD
DOCKED: ENDBRANCH  18  19
DOCKED: ENDBRANCH  17  18
DOCKED: ENDBRANCH   1  17
DOCKED: BRANCH   1  21
DOCKED: ATOM     22  C   UNL     1      38.193  17.878 124.182 -0.21 -0.00    +0.000 C 
DOCKED: BRANCH  21  22
DOCKED: ATOM     23  C   UNL     1      39.147  18.861 124.871 -0.19 -0.00    +0.000 C 
DOCKED: BRANCH  22  23
DOCKED: ATOM     24  C   UNL     1      39.017  18.775 126.364 -0.17 -0.00    +0.000 A 
DOCKED: ATOM     25  C   UNL     1      37.854  18.969 127.102 -0.13 -0.00    +0.000 A 
DOCKED: ATOM     26  N   UNL     1      38.068  18.684 128.406 -0.17 -0.00    +0.000 N 
DOCKED: ATOM     27  C   UNL     1      39.353  18.297 128.496 -0.24 -0.00    +0.000 A 
DOCKED: ATOM     28  C   UNL     1      39.965  18.335 127.269 -0.28 -0.00    +0.000 A 
DOCKED: ATOM     29  C   UNL     1      41.294  17.945 127.100 -0.37 -0.00    +0.000 A 
DOCKED: ATOM     30  C   UNL     1      41.999  17.506 128.236 -0.44 -0.00    +0.000 A 
DOCKED: ATOM     31  C   UNL     1      41.369  17.467 129.499 -0.41 -0.00    +0.000 A 
DOCKED: ATOM     32  C   UNL     1      40.026  17.864 129.638 -0.31 -0.00    +0.000 A 
DOCKED: ATOM     33  H   UNL     1      37.417  18.747 129.141 -0.01 -0.00    +0.000 HD
DOCKED: ATOM     34  CM  UNL     1      38.826  18.614 127.555 +0.00 -0.00    +0.000 AC
DOCKED: ATOM     35  CM  UNL     1      40.667  17.903 128.373 +0.00 -0.00    +0.000 AC
DOCKED: ENDBRANCH  22  23
DOCKED: ENDBRANCH  21  22
DOCKED: ENDBRANCH   1  21
DOCKED: TORSDOF 10DOCKED: TER
DOCKED: ENDMDL
________________________________________________________________________________


	BEGINNING GENETIC ALGORITHM DOCKING 39 of 100
Run: 39 Seed: 868311244 1758658431 [ Run 39 of 100 GA/GALS ]
Beginning LAMARCKIAN GENETIC ALGORITHM (LGA), with a maximum of 2500000 energy evaluations.

Final-Value: -16.974


	FINAL GENETIC ALGORITHM DOCKED STATE
	_______________________________________________


Detailed state:  trans 35.681 17.136 122.893 quatxyzw 0.662987 -0.540237 -0.269239 -0.442835 center 0.288 0.007 -0.056 ntor 10 39.8780 165.4377 139.4779 172.3340 129.4028 113.5766 172.8281 9.0031 54.4005 -8.0815
State:	 35.681  17.136 122.893   0.739 -0.603 -0.300 -127.430     39.88  165.44  139.48  172.33  129.40  113.58  172.83    9.00   54.40   -8.08

DOCKED: MODEL       39
DOCKED: USER    Run = 39
DOCKED: USER    DPF = ligand_dock.biased.dpf
DOCKED: USER  
DOCKED: USER    Estimated Free Energy of Binding    =  -11.92 kcal/mol  [=(1)+(2)+(3)-(4)]
DOCKED: USER    Estimated Inhibition Constant, Ki   =    1.83 nM (nanomolar)  [Temperature = 298.15 K]
DOCKED: USER    
DOCKED: USER    (1) Final Intermolecular Energy     =  -14.90 kcal/mol
DOCKED: USER        vdW + Hbond + desolv Energy     =  -14.90 kcal/mol
DOCKED: USER        Electrostatic Energy            =   +0.00 kcal/mol
DOCKED: USER    (2) Final Total Internal Energy     =   -2.07 kcal/mol
DOCKED: USER    (3) Torsional Free Energy           =   +2.98 kcal/mol
DOCKED: USER    (4) Unbound System's Energy  [=(2)] =   -2.07 kcal/mol
DOCKED: USER    
DOCKED: USER    
DOCKED: USER    NEWDPF move ligand.dum.pdbqt
DOCKED: USER    NEWDPF about 0.288000 0.007000 -0.056000
DOCKED: USER    NEWDPF tran0 35.681229 17.136044 122.892590
DOCKED: USER    NEWDPF quaternion0 0.662987 -0.540237 -0.269239 -0.442835
DOCKED: USER    NEWDPF axisangle0 0.739443 -0.602537 -0.300288 -127.430187
DOCKED: USER    NEWDPF quat0 0.739443 -0.602537 -0.300288 -127.430187
DOCKED: USER    NEWDPF dihe0 39.88 165.44 139.48 172.33 129.40 113.58 172.83 9.00 54.40 -8.08 
DOCKED: USER  keepresnum = 1 
DOCKED: USER  
DOCKED: REMARK  Name = 
DOCKED: REMARK  10 active torsions:
DOCKED: REMARK  status: ('A' for Active; 'I' for Inactive)
DOCKED: REMARK    1  A    between atoms: C_2  and  C_5
DOCKED: REMARK    2  A    between atoms: C_6  and  C_7
DOCKED: REMARK    3  A    between atoms: C_10  and  C_11
DOCKED: REMARK    4  A    between atoms: C_11  and  N_12
DOCKED: REMARK    5  A    between atoms: N_12  and  C_13
DOCKED: REMARK    6  A    between atoms: N_12  and  C_16
DOCKED: REMARK    7  A    between atoms: C_13  and  C_14
DOCKED: REMARK    8  A    between atoms: C_14  and  O_15
DOCKED: REMARK    9  A    between atoms: C_16  and  C_17
DOCKED: REMARK   10  A    between atoms: C_17  and  C_18
DOCKED: REMARK                            x       y       z     vdW  Elec       q    Type
DOCKED: REMARK                         _______ _______ _______ _____ _____    ______ ____
DOCKED: USER                              x       y       z     vdW  Elec       q    Type
DOCKED: USER                           _______ _______ _______ _____ _____    ______ ____
DOCKED: ROOT
DOCKED: ATOM      1  N   UNL     1      35.473  18.384 122.466 -0.25 -0.00    +0.000 N 
DOCKED: ATOM      2  H   UNL     1      35.286  19.334 122.787 -0.01 -0.00    +0.000 HD
DOCKED: ENDROOT
DOCKED: BRANCH   1   3
DOCKED: ATOM      3  C   UNL     1      36.132  17.744 123.635 -0.27 -0.00    +0.000 C 
DOCKED: BRANCH   3   7
DOCKED: ATOM      4  C   UNL     1      36.406  13.412 123.484 -0.53 -0.00    +0.000 A 
DOCKED: ATOM      5  C   UNL     1      37.518  14.210 123.176 -0.42 -0.00    +0.000 A 
DOCKED: ATOM      6  C   UNL     1      37.431  15.604 123.227 -0.31 -0.00    +0.000 A 
DOCKED: ATOM      7  C   UNL     1      36.220  16.232 123.560 -0.33 -0.00    +0.000 A 
DOCKED: ATOM      8  C   UNL     1      35.109  15.435 123.882 -0.49 -0.00    +0.000 A 
DOCKED: ATOM      9  C   UNL     1      35.195  14.041 123.832 -0.35 -0.00    +0.000 A 
DOCKED: ATOM     10  CM  UNL     1      36.314  14.822 123.527 +0.00 -0.00    +0.000 AC
DOCKED: BRANCH   4  11
DOCKED: ATOM     11  C   UNL     1      36.660  11.260 122.252 -0.64 -0.00    +0.000 C 
DOCKED: ATOM     12  C   UNL     1      36.548  11.936 123.404 -0.69 -0.00    +0.000 C 
DOCKED: BRANCH  10  13
DOCKED: ATOM     13  O   UNL     1      36.724   9.167 121.119 -2.63 -0.00    +0.000 OA
DOCKED: ATOM     14  C   UNL     1      36.789   9.790 122.213 -0.66 -0.00    +0.000 C 
DOCKED: ATOM     15  N   UNL     1      36.986   9.064 123.429 -0.58 -0.00    +0.000 N 
DOCKED: ATOM     16  O   UNL     1      37.105   7.715 123.411 -2.66 -0.00    +0.000 OA
DOCKED: ATOM     17  H   UNL     1      37.036   9.547 124.285 -0.54 -0.00    +0.000 HD
DOCKED: ENDBRANCH  10  13
DOCKED: ENDBRANCH   4  11
DOCKED: ENDBRANCH   3   7
DOCKED: ENDBRANCH   1   3
DOCKED: BRANCH   1  17
DOCKED: ATOM     18  C   UNL     1      34.137  17.843 122.126 -0.38 -0.00    +0.000 C 
DOCKED: BRANCH  17  18
DOCKED: ATOM     19  C   UNL     1      33.847  17.956 120.627 -0.25 -0.00    +0.000 C 
DOCKED: BRANCH  18  19
DOCKED: ATOM     20  O   UNL     1      32.514  18.337 120.428 -0.52 -0.00    +0.000 OA
DOCKED: ATOM     21  H   UNL     1      31.998  18.135 121.224 -0.06 -0.00    +0.000 HD
DOCKED: ENDBRANCH  18  19
DOCKED: ENDBRANCH  17  18
DOCKED: ENDBRANCH   1  17
DOCKED: BRANCH   1  21
DOCKED: ATOM     22  C   UNL     1      36.360  18.516 121.287 -0.18 -0.00    +0.000 C 
DOCKED: BRANCH  21  22
DOCKED: ATOM     23  C   UNL     1      37.808  18.754 121.728 -0.09 -0.00    +0.000 C 
DOCKED: BRANCH  22  23
DOCKED: ATOM     24  C   UNL     1      38.671  17.571 121.398 -0.08 -0.00    +0.000 A 
DOCKED: ATOM     25  C   UNL     1      38.515  16.715 120.313 -0.10 -0.00    +0.000 A 
DOCKED: ATOM     26  N   UNL     1      39.545  15.842 120.247 -0.17 -0.00    +0.000 N 
DOCKED: ATOM     27  C   UNL     1      40.359  16.148 121.272 -0.20 -0.00    +0.000 A 
DOCKED: ATOM     28  C   UNL     1      39.862  17.201 121.997 -0.14 -0.00    +0.000 A 
DOCKED: ATOM     29  C   UNL     1      40.547  17.726 123.094 -0.20 -0.00    +0.000 A 
DOCKED: ATOM     30  C   UNL     1      41.777  17.138 123.442 -0.34 -0.00    +0.000 A 
DOCKED: ATOM     31  C   UNL     1      42.288  16.054 122.696 -0.43 -0.00    +0.000 A 
DOCKED: ATOM     32  C   UNL     1      41.576  15.548 121.593 -0.31 -0.00    +0.000 A 
DOCKED: ATOM     33  H   UNL     1      39.675  15.126 119.583 -0.05 -0.00    +0.000 HD
DOCKED: ATOM     34  CM  UNL     1      39.396  16.668 121.020 +0.00 -0.00    +0.000 AC
DOCKED: ATOM     35  CM  UNL     1      41.068  16.636 122.349 +0.00 -0.00    +0.000 AC
DOCKED: ENDBRANCH  22  23
DOCKED: ENDBRANCH  21  22
DOCKED: ENDBRANCH   1  21
DOCKED: TORSDOF 10DOCKED: TER
DOCKED: ENDMDL
________________________________________________________________________________


	BEGINNING GENETIC ALGORITHM DOCKING 40 of 100
Run: 40 Seed: 230526630 839479035 [ Run 40 of 100 GA/GALS ]
Beginning LAMARCKIAN GENETIC ALGORITHM (LGA), with a maximum of 2500000 energy evaluations.

Final-Value: -16.100


	FINAL GENETIC ALGORITHM DOCKED STATE
	_______________________________________________


Detailed state:  trans 37.644 16.491 120.120 quatxyzw 0.962879 0.131688 -0.074049 0.223693 center 0.288 0.007 -0.056 ntor 10 -179.5019 9.6275 -26.8446 -66.0190 -165.4652 150.0975 -40.0572 -9.4138 58.1994 -180.0000
State:	 37.644  16.491 120.120   0.988  0.135 -0.076 154.148   -179.50    9.63  -26.84  -66.02 -165.47  150.10  -40.06   -9.41   58.20 -180.00

DOCKED: MODEL       40
DOCKED: USER    Run = 40
DOCKED: USER    DPF = ligand_dock.biased.dpf
DOCKED: USER  
DOCKED: USER    Estimated Free Energy of Binding    =  -11.03 kcal/mol  [=(1)+(2)+(3)-(4)]
DOCKED: USER    Estimated Inhibition Constant, Ki   =    8.22 nM (nanomolar)  [Temperature = 298.15 K]
DOCKED: USER    
DOCKED: USER    (1) Final Intermolecular Energy     =  -14.01 kcal/mol
DOCKED: USER        vdW + Hbond + desolv Energy     =  -14.01 kcal/mol
DOCKED: USER        Electrostatic Energy            =   +0.00 kcal/mol
DOCKED: USER    (2) Final Total Internal Energy     =   -2.09 kcal/mol
DOCKED: USER    (3) Torsional Free Energy           =   +2.98 kcal/mol
DOCKED: USER    (4) Unbound System's Energy  [=(2)] =   -2.09 kcal/mol
DOCKED: USER    
DOCKED: USER    
DOCKED: USER    NEWDPF move ligand.dum.pdbqt
DOCKED: USER    NEWDPF about 0.288000 0.007000 -0.056000
DOCKED: USER    NEWDPF tran0 37.644267 16.490673 120.119803
DOCKED: USER    NEWDPF quaternion0 0.962879 0.131688 -0.074049 0.223693
DOCKED: USER    NEWDPF axisangle0 0.987913 0.135112 -0.075974 154.147896
DOCKED: USER    NEWDPF quat0 0.987913 0.135112 -0.075974 154.147896
DOCKED: USER    NEWDPF dihe0 -179.50 9.63 -26.84 -66.02 -165.47 150.10 -40.06 -9.41 58.20 -180.00 
DOCKED: USER  keepresnum = 1 
DOCKED: USER  
DOCKED: REMARK  Name = 
DOCKED: REMARK  10 active torsions:
DOCKED: REMARK  status: ('A' for Active; 'I' for Inactive)
DOCKED: REMARK    1  A    between atoms: C_2  and  C_5
DOCKED: REMARK    2  A    between atoms: C_6  and  C_7
DOCKED: REMARK    3  A    between atoms: C_10  and  C_11
DOCKED: REMARK    4  A    between atoms: C_11  and  N_12
DOCKED: REMARK    5  A    between atoms: N_12  and  C_13
DOCKED: REMARK    6  A    between atoms: N_12  and  C_16
DOCKED: REMARK    7  A    between atoms: C_13  and  C_14
DOCKED: REMARK    8  A    between atoms: C_14  and  O_15
DOCKED: REMARK    9  A    between atoms: C_16  and  C_17
DOCKED: REMARK   10  A    between atoms: C_17  and  C_18
DOCKED: REMARK                            x       y       z     vdW  Elec       q    Type
DOCKED: REMARK                         _______ _______ _______ _____ _____    ______ ____
DOCKED: USER                              x       y       z     vdW  Elec       q    Type
DOCKED: USER                           _______ _______ _______ _____ _____    ______ ____
DOCKED: ROOT
DOCKED: ATOM      1  N   UNL     1      36.336  16.382 120.365 -0.18 -0.00    +0.000 N 
DOCKED: ATOM      2  H   UNL     1      35.591  15.705 120.528 +0.02 -0.00    +0.000 HD
DOCKED: ENDROOT
DOCKED: BRANCH   1   3
DOCKED: ATOM      3  C   UNL     1      37.567  15.650 120.761 -0.23 -0.00    +0.000 C 
DOCKED: BRANCH   3   7
DOCKED: ATOM      4  C   UNL     1      36.927  11.735 122.528 -0.55 -0.00    +0.000 A 
DOCKED: ATOM      5  C   UNL     1      36.935  11.898 121.134 -0.46 -0.00    +0.000 A 
DOCKED: ATOM      6  C   UNL     1      37.144  13.157 120.566 -0.40 -0.00    +0.000 A 
DOCKED: ATOM      7  C   UNL     1      37.321  14.287 121.379 -0.32 -0.00    +0.000 A 
DOCKED: ATOM      8  C   UNL     1      37.327  14.125 122.774 -0.43 -0.00    +0.000 A 
DOCKED: ATOM      9  C   UNL     1      37.119  12.866 123.345 -0.54 -0.00    +0.000 A 
DOCKED: ATOM     10  CM  UNL     1      37.129  13.011 121.954 +0.00 -0.00    +0.000 AC
DOCKED: BRANCH   4  11
DOCKED: ATOM     11  C   UNL     1      36.364   9.314 122.336 -0.72 -0.00    +0.000 C 
DOCKED: ATOM     12  C   UNL     1      36.690  10.378 123.083 -0.68 -0.00    +0.000 C 
DOCKED: BRANCH  10  13
DOCKED: ATOM     13  O   UNL     1      37.070   7.336 123.458 -2.41 -0.00    +0.000 OA
DOCKED: ATOM     14  C   UNL     1      36.126   7.982 122.928 -0.77 -0.00    +0.000 C 
DOCKED: ATOM     15  N   UNL     1      34.813   7.418 122.898 -0.64 -0.00    +0.000 N 
DOCKED: ATOM     16  O   UNL     1      34.579   6.198 123.435 -0.84 -0.00    +0.000 OA
DOCKED: ATOM     17  H   UNL     1      34.074   7.920 122.484 -0.01 -0.00    +0.000 HD
DOCKED: ENDBRANCH  10  13
DOCKED: ENDBRANCH   4  11
DOCKED: ENDBRANCH   3   7
DOCKED: ENDBRANCH   1   3
DOCKED: BRANCH   1  17
DOCKED: ATOM     18  C   UNL     1      36.233  16.699 118.922 -0.16 -0.00    +0.000 C 
DOCKED: BRANCH  17  18
DOCKED: ATOM     19  C   UNL     1      36.643  15.508 118.052 -0.21 -0.00    +0.000 C 
DOCKED: BRANCH  18  19
DOCKED: ATOM     20  O   UNL     1      35.748  14.447 118.245 -0.33 -0.00    +0.000 OA
DOCKED: ATOM     21  H   UNL     1      35.328  14.221 117.400 -0.03 -0.00    +0.000 HD
DOCKED: ENDBRANCH  18  19
DOCKED: ENDBRANCH  17  18
DOCKED: ENDBRANCH   1  17
DOCKED: BRANCH   1  21
DOCKED: ATOM     22  C   UNL     1      36.034  17.544 121.234 -0.22 -0.00    +0.000 C 
DOCKED: BRANCH  21  22
DOCKED: ATOM     23  C   UNL     1      36.558  17.302 122.654 -0.24 -0.00    +0.000 C 
DOCKED: BRANCH  22  23
DOCKED: ATOM     24  C   UNL     1      35.445  16.889 123.573 -0.34 -0.00    +0.000 A 
DOCKED: ATOM     25  C   UNL     1      34.748  15.687 123.531 -0.45 -0.00    +0.000 A 
DOCKED: ATOM     26  N   UNL     1      33.907  15.590 124.587 -0.56 -0.00    +0.000 N 
DOCKED: ATOM     27  C   UNL     1      34.080  16.715 125.303 -0.42 -0.00    +0.000 A 
DOCKED: ATOM     28  C   UNL     1      35.014  17.532 124.719 -0.33 -0.00    +0.000 A 
DOCKED: ATOM     29  C   UNL     1      35.391  18.745 125.296 -0.22 -0.00    +0.000 A 
DOCKED: ATOM     30  C   UNL     1      34.779  19.114 126.507 -0.19 -0.00    +0.000 A 
DOCKED: ATOM     31  C   UNL     1      33.817  18.273 127.109 -0.24 -0.00    +0.000 A 
DOCKED: ATOM     32  C   UNL     1      33.460  17.054 126.505 -0.33 -0.00    +0.000 A 
DOCKED: ATOM     33  H   UNL     1      33.294  14.848 124.790 -0.24 -0.00    +0.000 HD
DOCKED: ATOM     34  CM  UNL     1      34.616  16.453 124.351 -0.10 -0.00    +0.000 AC
DOCKED: ATOM     35  CM  UNL     1      34.424  17.905 125.906 -0.25 -0.00    +0.000 AC
DOCKED: ENDBRANCH  22  23
DOCKED: ENDBRANCH  21  22
DOCKED: ENDBRANCH   1  21
DOCKED: TORSDOF 10DOCKED: TER
DOCKED: ENDMDL
________________________________________________________________________________


	BEGINNING GENETIC ALGORITHM DOCKING 41 of 100
Run: 41 Seed: 985953765 1698968567 [ Run 41 of 100 GA/GALS ]
Beginning LAMARCKIAN GENETIC ALGORITHM (LGA), with a maximum of 2500000 energy evaluations.

Final-Value: -16.382


	FINAL GENETIC ALGORITHM DOCKED STATE
	_______________________________________________


Detailed state:  trans 39.396 16.195 121.598 quatxyzw 0.314781 0.046498 0.905393 -0.281096 center 0.288 0.007 -0.056 ntor 10 -102.9485 166.0320 -171.6908 125.5337 157.7484 27.6063 -9.4332 0.3140 46.9882 -121.8159
State:	 39.396  16.195 121.598   0.328  0.048  0.943 -147.349   -102.95  166.03 -171.69  125.53  157.75   27.61   -9.43    0.31   46.99 -121.82

DOCKED: MODEL       41
DOCKED: USER    Run = 41
DOCKED: USER    DPF = ligand_dock.biased.dpf
DOCKED: USER  
DOCKED: USER    Estimated Free Energy of Binding    =  -11.27 kcal/mol  [=(1)+(2)+(3)-(4)]
DOCKED: USER    Estimated Inhibition Constant, Ki   =    5.51 nM (nanomolar)  [Temperature = 298.15 K]
DOCKED: USER    
DOCKED: USER    (1) Final Intermolecular Energy     =  -14.25 kcal/mol
DOCKED: USER        vdW + Hbond + desolv Energy     =  -14.25 kcal/mol
DOCKED: USER        Electrostatic Energy            =   +0.00 kcal/mol
DOCKED: USER    (2) Final Total Internal Energy     =   -2.13 kcal/mol
DOCKED: USER    (3) Torsional Free Energy           =   +2.98 kcal/mol
DOCKED: USER    (4) Unbound System's Energy  [=(2)] =   -2.13 kcal/mol
DOCKED: USER    
DOCKED: USER    
DOCKED: USER    NEWDPF move ligand.dum.pdbqt
DOCKED: USER    NEWDPF about 0.288000 0.007000 -0.056000
DOCKED: USER    NEWDPF tran0 39.395702 16.195289 121.597758
DOCKED: USER    NEWDPF quaternion0 0.314781 0.046498 0.905393 -0.281096
DOCKED: USER    NEWDPF axisangle0 0.328006 0.048451 0.943432 -147.348706
DOCKED: USER    NEWDPF quat0 0.328006 0.048451 0.943432 -147.348706
DOCKED: USER    NEWDPF dihe0 -102.95 166.03 -171.69 125.53 157.75 27.61 -9.43 0.31 46.99 -121.82 
DOCKED: USER  keepresnum = 1 
DOCKED: USER  
DOCKED: REMARK  Name = 
DOCKED: REMARK  10 active torsions:
DOCKED: REMARK  status: ('A' for Active; 'I' for Inactive)
DOCKED: REMARK    1  A    between atoms: C_2  and  C_5
DOCKED: REMARK    2  A    between atoms: C_6  and  C_7
DOCKED: REMARK    3  A    between atoms: C_10  and  C_11
DOCKED: REMARK    4  A    between atoms: C_11  and  N_12
DOCKED: REMARK    5  A    between atoms: N_12  and  C_13
DOCKED: REMARK    6  A    between atoms: N_12  and  C_16
DOCKED: REMARK    7  A    between atoms: C_13  and  C_14
DOCKED: REMARK    8  A    between atoms: C_14  and  O_15
DOCKED: REMARK    9  A    between atoms: C_16  and  C_17
DOCKED: REMARK   10  A    between atoms: C_17  and  C_18
DOCKED: REMARK                            x       y       z     vdW  Elec       q    Type
DOCKED: REMARK                         _______ _______ _______ _____ _____    ______ ____
DOCKED: USER                              x       y       z     vdW  Elec       q    Type
DOCKED: USER                           _______ _______ _______ _____ _____    ______ ____
DOCKED: ROOT
DOCKED: ATOM      1  N   UNL     1      40.380  15.751 120.812 -0.21 -0.00    +0.000 N 
DOCKED: ATOM      2  H   UNL     1      40.642  14.990 120.185 -0.02 -0.00    +0.000 HD
DOCKED: ENDROOT
DOCKED: BRANCH   1   3
DOCKED: ATOM      3  C   UNL     1      38.894  15.727 120.790 -0.22 -0.00    +0.000 C 
DOCKED: BRANCH   3   7
DOCKED: ATOM      4  C   UNL     1      37.072  11.873 121.620 -0.50 -0.00    +0.000 A 
DOCKED: ATOM      5  C   UNL     1      37.301  12.793 122.654 -0.50 -0.00    +0.000 A 
DOCKED: ATOM      6  C   UNL     1      37.885  14.034 122.387 -0.42 -0.00    +0.000 A 
DOCKED: ATOM      7  C   UNL     1      38.279  14.372 121.082 -0.32 -0.00    +0.000 A 
DOCKED: ATOM      8  C   UNL     1      38.039  13.458 120.043 -0.32 -0.00    +0.000 A 
DOCKED: ATOM      9  C   UNL     1      37.455  12.216 120.309 -0.47 -0.00    +0.000 A 
DOCKED: ATOM     10  CM  UNL     1      37.671  13.124 121.350 +0.00 -0.00    +0.000 AC
DOCKED: BRANCH   4  11
DOCKED: ATOM     11  C   UNL     1      36.812   9.828 123.023 -0.64 -0.00    +0.000 C 
DOCKED: ATOM     12  C   UNL     1      36.460  10.563 121.958 -0.60 -0.00    +0.000 C 
DOCKED: BRANCH  10  13
DOCKED: ATOM     13  O   UNL     1      36.891   7.487 123.451 -2.44 -0.00    +0.000 OA
DOCKED: ATOM     14  C   UNL     1      36.186   8.525 123.319 -0.58 -0.00    +0.000 C 
DOCKED: ATOM     15  N   UNL     1      34.766   8.435 123.455 -0.60 -0.00    +0.000 N 
DOCKED: ATOM     16  O   UNL     1      34.176   7.246 123.726 -0.78 -0.00    +0.000 OA
DOCKED: ATOM     17  H   UNL     1      34.212   9.243 123.351 -0.47 -0.00    +0.000 HD
DOCKED: ENDBRANCH  10  13
DOCKED: ENDBRANCH   4  11
DOCKED: ENDBRANCH   3   7
DOCKED: ENDBRANCH   1   3
DOCKED: BRANCH   1  17
DOCKED: ATOM     18  C   UNL     1      40.992  15.383 122.109 -0.44 -0.00    +0.000 C 
DOCKED: BRANCH  17  18
DOCKED: ATOM     19  C   UNL     1      41.450  16.619 122.888 -0.38 -0.00    +0.000 C 
DOCKED: BRANCH  18  19
DOCKED: ATOM     20  O   UNL     1      42.691  16.371 123.489 -1.08 +0.00    +0.000 OA
DOCKED: ATOM     21  H   UNL     1      42.853  17.031 124.181 -0.50 -0.00    +0.000 HD
DOCKED: ENDBRANCH  18  19
DOCKED: ENDBRANCH  17  18
DOCKED: ENDBRANCH   1  17
DOCKED: BRANCH   1  21
DOCKED: ATOM     22  C   UNL     1      40.960  16.983 120.228 -0.13 -0.00    +0.000 C 
DOCKED: BRANCH  21  22
DOCKED: ATOM     23  C   UNL     1      40.189  17.395 118.970 -0.07 -0.00    +0.000 C 
DOCKED: BRANCH  22  23
DOCKED: ATOM     24  C   UNL     1      40.450  16.438 117.843 -0.12 -0.00    +0.000 A 
DOCKED: ATOM     25  C   UNL     1      41.696  16.066 117.351 -0.20 -0.00    +0.000 A 
DOCKED: ATOM     26  N   UNL     1      41.568  15.086 116.428 -0.34 -0.00    +0.000 N 
DOCKED: ATOM     27  C   UNL     1      40.252  14.825 116.344 -0.20 -0.00    +0.000 A 
DOCKED: ATOM     28  C   UNL     1      39.535  15.627 117.195 -0.16 -0.00    +0.000 A 
DOCKED: ATOM     29  C   UNL     1      38.149  15.520 117.312 -0.15 -0.00    +0.000 A 
DOCKED: ATOM     30  C   UNL     1      37.496  14.556 116.523 -0.26 -0.00    +0.000 A 
DOCKED: ATOM     31  C   UNL     1      38.234  13.730 115.646 -0.40 -0.00    +0.000 A 
DOCKED: ATOM     32  C   UNL     1      39.631  13.859 115.552 -0.37 -0.00    +0.000 A 
DOCKED: ATOM     33  H   UNL     1      42.290  14.652 115.920 -0.35 -0.00    +0.000 HD
DOCKED: ATOM     34  CM  UNL     1      40.728  15.591 117.013 +0.00 -0.00    +0.000 AC
DOCKED: ATOM     35  CM  UNL     1      38.883  14.687 116.429 +0.00 -0.00    +0.000 AC
DOCKED: ENDBRANCH  22  23
DOCKED: ENDBRANCH  21  22
DOCKED: ENDBRANCH   1  21
DOCKED: TORSDOF 10DOCKED: TER
DOCKED: ENDMDL
________________________________________________________________________________


	BEGINNING GENETIC ALGORITHM DOCKING 42 of 100
Run: 42 Seed: 698904143 1933023530 [ Run 42 of 100 GA/GALS ]
Beginning LAMARCKIAN GENETIC ALGORITHM (LGA), with a maximum of 2500000 energy evaluations.

Final-Value: -16.649


	FINAL GENETIC ALGORITHM DOCKED STATE
	_______________________________________________


Detailed state:  trans 36.163 17.383 123.514 quatxyzw -0.179396 0.435131 0.456452 0.755070 center 0.288 0.007 -0.056 ntor 10 -86.3053 55.8629 -170.3776 -147.1340 -68.3451 133.8746 -66.7634 -146.9212 -39.8036 33.7898
State:	 36.163  17.383 123.514  -0.274  0.664  0.696 81.937    -86.31   55.86 -170.38 -147.13  -68.35  133.87  -66.76 -146.92  -39.80   33.79

DOCKED: MODEL       42
DOCKED: USER    Run = 42
DOCKED: USER    DPF = ligand_dock.biased.dpf
DOCKED: USER  
DOCKED: USER    Estimated Free Energy of Binding    =  -12.06 kcal/mol  [=(1)+(2)+(3)-(4)]
DOCKED: USER    Estimated Inhibition Constant, Ki   =    1.43 nM (nanomolar)  [Temperature = 298.15 K]
DOCKED: USER    
DOCKED: USER    (1) Final Intermolecular Energy     =  -15.05 kcal/mol
DOCKED: USER        vdW + Hbond + desolv Energy     =  -15.05 kcal/mol
DOCKED: USER        Electrostatic Energy            =   +0.00 kcal/mol
DOCKED: USER    (2) Final Total Internal Energy     =   -1.60 kcal/mol
DOCKED: USER    (3) Torsional Free Energy           =   +2.98 kcal/mol
DOCKED: USER    (4) Unbound System's Energy  [=(2)] =   -1.60 kcal/mol
DOCKED: USER    
DOCKED: USER    
DOCKED: USER    NEWDPF move ligand.dum.pdbqt
DOCKED: USER    NEWDPF about 0.288000 0.007000 -0.056000
DOCKED: USER    NEWDPF tran0 36.162991 17.382951 123.514046
DOCKED: USER    NEWDPF quaternion0 -0.179396 0.435131 0.456452 0.755070
DOCKED: USER    NEWDPF axisangle0 -0.273618 0.663669 0.696187 81.937110
DOCKED: USER    NEWDPF quat0 -0.273618 0.663669 0.696187 81.937110
DOCKED: USER    NEWDPF dihe0 -86.31 55.86 -170.38 -147.13 -68.35 133.87 -66.76 -146.92 -39.80 33.79 
DOCKED: USER  keepresnum = 1 
DOCKED: USER  
DOCKED: REMARK  Name = 
DOCKED: REMARK  10 active torsions:
DOCKED: REMARK  status: ('A' for Active; 'I' for Inactive)
DOCKED: REMARK    1  A    between atoms: C_2  and  C_5
DOCKED: REMARK    2  A    between atoms: C_6  and  C_7
DOCKED: REMARK    3  A    between atoms: C_10  and  C_11
DOCKED: REMARK    4  A    between atoms: C_11  and  N_12
DOCKED: REMARK    5  A    between atoms: N_12  and  C_13
DOCKED: REMARK    6  A    between atoms: N_12  and  C_16
DOCKED: REMARK    7  A    between atoms: C_13  and  C_14
DOCKED: REMARK    8  A    between atoms: C_14  and  O_15
DOCKED: REMARK    9  A    between atoms: C_16  and  C_17
DOCKED: REMARK   10  A    between atoms: C_17  and  C_18
DOCKED: REMARK                            x       y       z     vdW  Elec       q    Type
DOCKED: REMARK                         _______ _______ _______ _____ _____    ______ ____
DOCKED: USER                              x       y       z     vdW  Elec       q    Type
DOCKED: USER                           _______ _______ _______ _____ _____    ______ ____
DOCKED: ROOT
DOCKED: ATOM      1  N   UNL     1      35.734  18.324 122.669 -0.22 -0.00    +0.000 N 
DOCKED: ATOM      2  H   UNL     1      35.955  19.247 122.297 -0.01 -0.00    +0.000 HD
DOCKED: ENDROOT
DOCKED: BRANCH   1   3
DOCKED: ATOM      3  C   UNL     1      37.051  17.799 123.113 -0.20 -0.00    +0.000 C 
DOCKED: BRANCH   3   7
DOCKED: ATOM      4  C   UNL     1      37.350  13.468 123.001 -0.49 -0.00    +0.000 A 
DOCKED: ATOM      5  C   UNL     1      36.317  14.095 123.713 -0.47 -0.00    +0.000 A 
DOCKED: ATOM      6  C   UNL     1      36.219  15.489 123.747 -0.38 -0.00    +0.000 A 
DOCKED: ATOM      7  C   UNL     1      37.170  16.288 123.092 -0.27 -0.00    +0.000 A 
DOCKED: ATOM      8  C   UNL     1      38.198  15.662 122.367 -0.27 -0.00    +0.000 A 
DOCKED: ATOM      9  C   UNL     1      38.297  14.268 122.332 -0.40 -0.00    +0.000 A 
DOCKED: ATOM     10  CM  UNL     1      37.258  14.878 123.042 +0.00 -0.00    +0.000 AC
DOCKED: BRANCH   4  11
DOCKED: ATOM     11  C   UNL     1      36.820  11.210 122.088 -0.60 -0.00    +0.000 C 
DOCKED: ATOM     12  C   UNL     1      37.417  11.985 123.005 -0.50 -0.00    +0.000 C 
DOCKED: BRANCH  10  13
DOCKED: ATOM     13  O   UNL     1      36.889   9.059 121.068 -2.67 -0.00    +0.000 OA
DOCKED: ATOM     14  C   UNL     1      36.902   9.736 122.132 -0.63 -0.00    +0.000 C 
DOCKED: ATOM     15  N   UNL     1      36.994   9.069 123.393 -0.59 -0.00    +0.000 N 
DOCKED: ATOM     16  O   UNL     1      37.069   7.718 123.451 -2.70 -0.00    +0.000 OA
DOCKED: ATOM     17  H   UNL     1      37.004   9.595 124.226 -0.56 -0.00    +0.000 HD
DOCKED: ENDBRANCH  10  13
DOCKED: ENDBRANCH   4  11
DOCKED: ENDBRANCH   3   7
DOCKED: ENDBRANCH   1   3
DOCKED: BRANCH   1  17
DOCKED: ATOM     18  C   UNL     1      34.768  18.593 123.760 -0.21 -0.00    +0.000 C 
DOCKED: BRANCH  17  18
DOCKED: ATOM     19  C   UNL     1      33.749  17.459 123.904 -0.19 -0.00    +0.000 C 
DOCKED: BRANCH  18  19
DOCKED: ATOM     20  O   UNL     1      33.974  16.766 125.100 -0.52 -0.00    +0.000 OA
DOCKED: ATOM     21  H   UNL     1      33.756  15.829 124.977 -0.05 -0.00    +0.000 HD
DOCKED: ENDBRANCH  18  19
DOCKED: ENDBRANCH  17  18
DOCKED: ENDBRANCH   1  17
DOCKED: BRANCH   1  21
DOCKED: ATOM     22  C   UNL     1      35.140  17.559 121.548 -0.31 -0.00    +0.000 C 
DOCKED: BRANCH  21  22
DOCKED: ATOM     23  C   UNL     1      34.754  18.500 120.401 -0.28 -0.00    +0.000 C 
DOCKED: BRANCH  22  23
DOCKED: ATOM     24  C   UNL     1      33.326  18.286 119.990 -0.30 -0.00    +0.000 A 
DOCKED: ATOM     25  C   UNL     1      32.218  18.294 120.830 -0.29 -0.00    +0.000 A 
DOCKED: ATOM     26  N   UNL     1      31.077  18.204 120.109 -0.47 -0.00    +0.000 N 
DOCKED: ATOM     27  C   UNL     1      31.456  18.156 118.820 -0.32 -0.00    +0.000 A 
DOCKED: ATOM     28  C   UNL     1      32.821  18.208 118.705 -0.24 -0.00    +0.000 A 
DOCKED: ATOM     29  C   UNL     1      33.454  18.206 117.461 -0.13 -0.00    +0.000 A 
DOCKED: ATOM     30  C   UNL     1      32.643  18.148 116.313 -0.08 -0.00    +0.000 A 
DOCKED: ATOM     31  C   UNL     1      31.237  18.095 116.431 -0.10 -0.00    +0.000 A 
DOCKED: ATOM     32  C   UNL     1      30.628  18.101 117.698 -0.21 -0.00    +0.000 A 
DOCKED: ATOM     33  H   UNL     1      30.157  18.179 120.456 -0.36 -0.00    +0.000 HD
DOCKED: ATOM     34  CM  UNL     1      32.144  18.229 119.704 +0.00 -0.00    +0.000 AC
DOCKED: ATOM     35  CM  UNL     1      32.040  18.152 117.572 +0.00 -0.00    +0.000 AC
DOCKED: ENDBRANCH  22  23
DOCKED: ENDBRANCH  21  22
DOCKED: ENDBRANCH   1  21
DOCKED: TORSDOF 10DOCKED: TER
DOCKED: ENDMDL
________________________________________________________________________________


	BEGINNING GENETIC ALGORITHM DOCKING 43 of 100
Run: 43 Seed: 1217982710 1432327115 [ Run 43 of 100 GA/GALS ]
Beginning LAMARCKIAN GENETIC ALGORITHM (LGA), with a maximum of 2500000 energy evaluations.

Final-Value: -16.659


	FINAL GENETIC ALGORITHM DOCKED STATE
	_______________________________________________


Detailed state:  trans 37.681 18.694 121.716 quatxyzw -0.838516 -0.384841 -0.273155 -0.272351 center 0.288 0.007 -0.056 ntor 10 177.6255 -148.7662 -180.0000 177.2995 178.2990 -58.6302 158.0358 -34.0516 -1.0590 171.7449
State:	 37.681  18.694 121.716  -0.871 -0.400 -0.284 -148.392    177.63 -148.77 -180.00  177.30  178.30  -58.63  158.04  -34.05   -1.06  171.74

DOCKED: MODEL       43
DOCKED: USER    Run = 43
DOCKED: USER    DPF = ligand_dock.biased.dpf
DOCKED: USER  
DOCKED: USER    Estimated Free Energy of Binding    =  -11.37 kcal/mol  [=(1)+(2)+(3)-(4)]
DOCKED: USER    Estimated Inhibition Constant, Ki   =    4.66 nM (nanomolar)  [Temperature = 298.15 K]
DOCKED: USER    
DOCKED: USER    (1) Final Intermolecular Energy     =  -14.35 kcal/mol
DOCKED: USER        vdW + Hbond + desolv Energy     =  -14.35 kcal/mol
DOCKED: USER        Electrostatic Energy            =   +0.00 kcal/mol
DOCKED: USER    (2) Final Total Internal Energy     =   -2.31 kcal/mol
DOCKED: USER    (3) Torsional Free Energy           =   +2.98 kcal/mol
DOCKED: USER    (4) Unbound System's Energy  [=(2)] =   -2.31 kcal/mol
DOCKED: USER    
DOCKED: USER    
DOCKED: USER    NEWDPF move ligand.dum.pdbqt
DOCKED: USER    NEWDPF about 0.288000 0.007000 -0.056000
DOCKED: USER    NEWDPF tran0 37.681334 18.694071 121.715968
DOCKED: USER    NEWDPF quaternion0 -0.838516 -0.384841 -0.273155 -0.272351
DOCKED: USER    NEWDPF axisangle0 -0.871459 -0.399960 -0.283887 -148.391610
DOCKED: USER    NEWDPF quat0 -0.871459 -0.399960 -0.283887 -148.391610
DOCKED: USER    NEWDPF dihe0 177.63 -148.77 -180.00 177.30 178.30 -58.63 158.04 -34.05 -1.06 171.74 
DOCKED: USER  keepresnum = 1 
DOCKED: USER  
DOCKED: REMARK  Name = 
DOCKED: REMARK  10 active torsions:
DOCKED: REMARK  status: ('A' for Active; 'I' for Inactive)
DOCKED: REMARK    1  A    between atoms: C_2  and  C_5
DOCKED: REMARK    2  A    between atoms: C_6  and  C_7
DOCKED: REMARK    3  A    between atoms: C_10  and  C_11
DOCKED: REMARK    4  A    between atoms: C_11  and  N_12
DOCKED: REMARK    5  A    between atoms: N_12  and  C_13
DOCKED: REMARK    6  A    between atoms: N_12  and  C_16
DOCKED: REMARK    7  A    between atoms: C_13  and  C_14
DOCKED: REMARK    8  A    between atoms: C_14  and  O_15
DOCKED: REMARK    9  A    between atoms: C_16  and  C_17
DOCKED: REMARK   10  A    between atoms: C_17  and  C_18
DOCKED: REMARK                            x       y       z     vdW  Elec       q    Type
DOCKED: REMARK                         _______ _______ _______ _____ _____    ______ ____
DOCKED: USER                              x       y       z     vdW  Elec       q    Type
DOCKED: USER                           _______ _______ _______ _____ _____    ______ ____
DOCKED: ROOT
DOCKED: ATOM      1  N   UNL     1      36.718  18.219 120.922 -0.12 -0.00    +0.000 N 
DOCKED: ATOM      2  H   UNL     1      36.417  17.387 120.415 +0.00 -0.00    +0.000 HD
DOCKED: ENDROOT
DOCKED: BRANCH   1   3
DOCKED: ATOM      3  C   UNL     1      37.589  17.677 121.998 -0.14 -0.00    +0.000 C 
DOCKED: BRANCH   3   7
DOCKED: ATOM      4  C   UNL     1      37.320  13.387 122.625 -0.48 -0.00    +0.000 A 
DOCKED: ATOM      5  C   UNL     1      37.681  13.906 121.372 -0.37 -0.00    +0.000 A 
DOCKED: ATOM      6  C   UNL     1      37.770  15.286 121.171 -0.24 -0.00    +0.000 A 
DOCKED: ATOM      7  C   UNL     1      37.472  16.180 122.212 -0.22 -0.00    +0.000 A 
DOCKED: ATOM      8  C   UNL     1      37.123  15.664 123.470 -0.32 -0.00    +0.000 A 
DOCKED: ATOM      9  C   UNL     1      37.034  14.283 123.674 -0.32 -0.00    +0.000 A 
DOCKED: ATOM     10  CM  UNL     1      37.400  14.784 122.420 +0.00 -0.00    +0.000 AC
DOCKED: BRANCH   4  11
DOCKED: ATOM     11  C   UNL     1      37.040  11.065 121.764 -0.53 -0.00    +0.000 C 
DOCKED: ATOM     12  C   UNL     1      37.228  11.914 122.784 -0.56 -0.00    +0.000 C 
DOCKED: BRANCH  10  13
DOCKED: ATOM     13  O   UNL     1      36.692   8.838 120.996 -2.61 -0.00    +0.000 OA
DOCKED: ATOM     14  C   UNL     1      36.944   9.605 121.965 -0.63 -0.00    +0.000 C 
DOCKED: ATOM     15  N   UNL     1      37.136   9.055 123.270 -0.60 -0.00    +0.000 N 
DOCKED: ATOM     16  O   UNL     1      37.050   7.719 123.471 -2.68 -0.00    +0.000 OA
DOCKED: ATOM     17  H   UNL     1      37.332   9.652 124.029 -0.53 -0.00    +0.000 HD
DOCKED: ENDBRANCH  10  13
DOCKED: ENDBRANCH   4  11
DOCKED: ENDBRANCH   3   7
DOCKED: ENDBRANCH   1   3
DOCKED: BRANCH   1  17
DOCKED: ATOM     18  C   UNL     1      37.418  19.035 119.904 -0.07 -0.00    +0.000 C 
DOCKED: BRANCH  17  18
DOCKED: ATOM     19  C   UNL     1      37.053  20.517 120.021 -0.09 -0.00    +0.000 C 
DOCKED: BRANCH  18  19
DOCKED: ATOM     20  O   UNL     1      35.992  20.817 119.156 -0.11 -0.00    +0.000 OA
DOCKED: ATOM     21  H   UNL     1      35.226  21.109 119.673 -0.33 -0.00    +0.000 HD
DOCKED: ENDBRANCH  18  19
DOCKED: ENDBRANCH  17  18
DOCKED: ENDBRANCH   1  17
DOCKED: BRANCH   1  21
DOCKED: ATOM     22  C   UNL     1      35.483  18.861 121.429 -0.23 -0.00    +0.000 C 
DOCKED: BRANCH  21  22
DOCKED: ATOM     23  C   UNL     1      34.357  17.830 121.562 -0.38 -0.00    +0.000 C 
DOCKED: BRANCH  22  23
DOCKED: ATOM     24  C   UNL     1      34.257  17.324 122.972 -0.36 -0.00    +0.000 A 
DOCKED: ATOM     25  C   UNL     1      34.012  16.012 123.360 -0.25 -0.00    +0.000 A 
DOCKED: ATOM     26  N   UNL     1      34.122  15.887 124.702 -0.56 -0.00    +0.000 N 
DOCKED: ATOM     27  C   UNL     1      34.450  17.106 125.163 -0.39 -0.00    +0.000 A 
DOCKED: ATOM     28  C   UNL     1      34.546  18.011 124.137 -0.33 -0.00    +0.000 A 
DOCKED: ATOM     29  C   UNL     1      34.908  19.340 124.362 -0.03 -0.00    +0.000 A 
DOCKED: ATOM     30  C   UNL     1      35.174  19.733 125.686 -0.17 -0.00    +0.000 A 
DOCKED: ATOM     31  C   UNL     1      35.075  18.802 126.743 -0.18 -0.00    +0.000 A 
DOCKED: ATOM     32  C   UNL     1      34.711  17.468 126.485 -0.05 -0.00    +0.000 A 
DOCKED: ATOM     33  H   UNL     1      33.989  15.069 125.235 -0.07 -0.00    +0.000 HD
DOCKED: ATOM     34  CM  UNL     1      34.273  16.836 124.087 -0.11 -0.00    +0.000 AC
DOCKED: ATOM     35  CM  UNL     1      34.810  18.410 125.429 -0.33 -0.00    +0.000 AC
DOCKED: ENDBRANCH  22  23
DOCKED: ENDBRANCH  21  22
DOCKED: ENDBRANCH   1  21
DOCKED: TORSDOF 10DOCKED: TER
DOCKED: ENDMDL
________________________________________________________________________________


	BEGINNING GENETIC ALGORITHM DOCKING 44 of 100
Run: 44 Seed: 1646732408 1590042333 [ Run 44 of 100 GA/GALS ]
Beginning LAMARCKIAN GENETIC ALGORITHM (LGA), with a maximum of 2500000 energy evaluations.

Final-Value: -15.741


	FINAL GENETIC ALGORITHM DOCKED STATE
	_______________________________________________


Detailed state:  trans 39.329 16.495 121.146 quatxyzw 0.446659 0.272422 0.786272 -0.328721 center 0.288 0.007 -0.056 ntor 10 -129.3044 67.6148 -37.5710 146.7944 -59.9900 -139.5247 176.7292 -136.1595 -63.2577 -152.3842
State:	 39.329  16.495 121.146   0.473  0.288  0.833 -141.618   -129.30   67.61  -37.57  146.79  -59.99 -139.52  176.73 -136.16  -63.26 -152.38

DOCKED: MODEL       44
DOCKED: USER    Run = 44
DOCKED: USER    DPF = ligand_dock.biased.dpf
DOCKED: USER  
DOCKED: USER    Estimated Free Energy of Binding    =  -10.89 kcal/mol  [=(1)+(2)+(3)-(4)]
DOCKED: USER    Estimated Inhibition Constant, Ki   =   10.45 nM (nanomolar)  [Temperature = 298.15 K]
DOCKED: USER    
DOCKED: USER    (1) Final Intermolecular Energy     =  -13.87 kcal/mol
DOCKED: USER        vdW + Hbond + desolv Energy     =  -13.87 kcal/mol
DOCKED: USER        Electrostatic Energy            =   +0.00 kcal/mol
DOCKED: USER    (2) Final Total Internal Energy     =   -1.87 kcal/mol
DOCKED: USER    (3) Torsional Free Energy           =   +2.98 kcal/mol
DOCKED: USER    (4) Unbound System's Energy  [=(2)] =   -1.87 kcal/mol
DOCKED: USER    
DOCKED: USER    
DOCKED: USER    NEWDPF move ligand.dum.pdbqt
DOCKED: USER    NEWDPF about 0.288000 0.007000 -0.056000
DOCKED: USER    NEWDPF tran0 39.329416 16.494853 121.145831
DOCKED: USER    NEWDPF quaternion0 0.446659 0.272422 0.786272 -0.328721
DOCKED: USER    NEWDPF axisangle0 0.472942 0.288452 0.832539 -141.617628
DOCKED: USER    NEWDPF quat0 0.472942 0.288452 0.832539 -141.617628
DOCKED: USER    NEWDPF dihe0 -129.30 67.61 -37.57 146.79 -59.99 -139.52 176.73 -136.16 -63.26 -152.38 
DOCKED: USER  keepresnum = 1 
DOCKED: USER  
DOCKED: REMARK  Name = 
DOCKED: REMARK  10 active torsions:
DOCKED: REMARK  status: ('A' for Active; 'I' for Inactive)
DOCKED: REMARK    1  A    between atoms: C_2  and  C_5
DOCKED: REMARK    2  A    between atoms: C_6  and  C_7
DOCKED: REMARK    3  A    between atoms: C_10  and  C_11
DOCKED: REMARK    4  A    between atoms: C_11  and  N_12
DOCKED: REMARK    5  A    between atoms: N_12  and  C_13
DOCKED: REMARK    6  A    between atoms: N_12  and  C_16
DOCKED: REMARK    7  A    between atoms: C_13  and  C_14
DOCKED: REMARK    8  A    between atoms: C_14  and  O_15
DOCKED: REMARK    9  A    between atoms: C_16  and  C_17
DOCKED: REMARK   10  A    between atoms: C_17  and  C_18
DOCKED: REMARK                            x       y       z     vdW  Elec       q    Type
DOCKED: REMARK                         _______ _______ _______ _____ _____    ______ ____
DOCKED: USER                              x       y       z     vdW  Elec       q    Type
DOCKED: USER                           _______ _______ _______ _____ _____    ______ ____
DOCKED: ROOT
DOCKED: ATOM      1  N   UNL     1      39.914  15.700 120.246 -0.18 -0.00    +0.000 N 
DOCKED: ATOM      2  H   UNL     1      39.932  14.744 119.893 -0.06 -0.00    +0.000 HD
DOCKED: ENDROOT
DOCKED: BRANCH   1   3
DOCKED: ATOM      3  C   UNL     1      38.562  15.826 120.851 -0.21 -0.00    +0.000 C 
DOCKED: BRANCH   3   7
DOCKED: ATOM      4  C   UNL     1      36.755  12.029 121.939 -0.51 -0.00    +0.000 A 
DOCKED: ATOM      5  C   UNL     1      37.407  12.184 120.706 -0.47 -0.00    +0.000 A 
DOCKED: ATOM      6  C   UNL     1      37.991  13.404 120.357 -0.37 -0.00    +0.000 A 
DOCKED: ATOM      7  C   UNL     1      37.911  14.507 121.222 -0.32 -0.00    +0.000 A 
DOCKED: ATOM      8  C   UNL     1      37.270  14.352 122.462 -0.39 -0.00    +0.000 A 
DOCKED: ATOM      9  C   UNL     1      36.686  13.131 122.813 -0.51 -0.00    +0.000 A 
DOCKED: ATOM     10  CM  UNL     1      37.337  13.267 121.583 +0.00 -0.00    +0.000 AC
DOCKED: BRANCH   4  11
DOCKED: ATOM     11  C   UNL     1      36.722   9.791 123.035 -0.67 -0.00    +0.000 C 
DOCKED: ATOM     12  C   UNL     1      36.141  10.716 122.257 -0.65 -0.00    +0.000 C 
DOCKED: BRANCH  10  13
DOCKED: ATOM     13  O   UNL     1      36.778   7.447 123.455 -2.35 -0.00    +0.000 OA
DOCKED: ATOM     14  C   UNL     1      36.083   8.491 123.320 -0.59 -0.00    +0.000 C 
DOCKED: ATOM     15  N   UNL     1      34.661   8.412 123.443 -0.61 -0.00    +0.000 N 
DOCKED: ATOM     16  O   UNL     1      34.059   7.227 123.705 -0.78 -0.00    +0.000 OA
DOCKED: ATOM     17  H   UNL     1      34.114   9.225 123.338 -0.49 -0.00    +0.000 HD
DOCKED: ENDBRANCH  10  13
DOCKED: ENDBRANCH   4  11
DOCKED: ENDBRANCH   3   7
DOCKED: ENDBRANCH   1   3
DOCKED: BRANCH   1  17
DOCKED: ATOM     18  C   UNL     1      41.038  15.755 121.209 -0.27 -0.00    +0.000 C 
DOCKED: BRANCH  17  18
DOCKED: ATOM     19  C   UNL     1      40.656  15.140 122.558 -0.47 -0.00    +0.000 C 
DOCKED: BRANCH  18  19
DOCKED: ATOM     20  O   UNL     1      41.536  14.096 122.871 -1.06 +0.00    +0.000 OA
DOCKED: ATOM     21  H   UNL     1      41.387  13.811 123.785 -0.13 -0.00    +0.000 HD
DOCKED: ENDBRANCH  18  19
DOCKED: ENDBRANCH  17  18
DOCKED: ENDBRANCH   1  17
DOCKED: BRANCH   1  21
DOCKED: ATOM     22  C   UNL     1      40.119  16.577 119.069 -0.12 -0.00    +0.000 C 
DOCKED: BRANCH  21  22
DOCKED: ATOM     23  C   UNL     1      41.129  15.951 118.102 -0.17 -0.00    +0.000 C 
DOCKED: BRANCH  22  23
DOCKED: ATOM     24  C   UNL     1      40.481  15.618 116.790 -0.22 -0.00    +0.000 A 
DOCKED: ATOM     25  C   UNL     1      41.034  15.805 115.528 -0.25 -0.00    +0.000 A 
DOCKED: ATOM     26  N   UNL     1      40.234  15.273 114.576 -0.28 -0.00    +0.000 N 
DOCKED: ATOM     27  C   UNL     1      39.187  14.737 115.229 -0.31 -0.00    +0.000 A 
DOCKED: ATOM     28  C   UNL     1      39.303  14.923 116.582 -0.21 -0.00    +0.000 A 
DOCKED: ATOM     29  C   UNL     1      38.354  14.425 117.476 -0.15 -0.00    +0.000 A 
DOCKED: ATOM     30  C   UNL     1      37.260  13.718 116.944 -0.35 -0.00    +0.000 A 
DOCKED: ATOM     31  C   UNL     1      37.141  13.526 115.550 -0.34 -0.00    +0.000 A 
DOCKED: ATOM     32  C   UNL     1      38.115  14.037 114.674 -0.33 -0.00    +0.000 A 
DOCKED: ATOM     33  H   UNL     1      40.386  15.276 113.604 -0.05 -0.00    +0.000 HD
DOCKED: ATOM     34  CM  UNL     1      40.054  15.271 115.703 +0.00 -0.00    +0.000 AC
DOCKED: ATOM     35  CM  UNL     1      38.227  14.228 116.076 +0.00 -0.00    +0.000 AC
DOCKED: ENDBRANCH  22  23
DOCKED: ENDBRANCH  21  22
DOCKED: ENDBRANCH   1  21
DOCKED: TORSDOF 10DOCKED: TER
DOCKED: ENDMDL
________________________________________________________________________________


	BEGINNING GENETIC ALGORITHM DOCKING 45 of 100
Run: 45 Seed: 975548166 188331392 [ Run 45 of 100 GA/GALS ]
Beginning LAMARCKIAN GENETIC ALGORITHM (LGA), with a maximum of 2500000 energy evaluations.

Final-Value: -16.582


	FINAL GENETIC ALGORITHM DOCKED STATE
	_______________________________________________


Detailed state:  trans 38.681 15.845 122.420 quatxyzw -0.271656 0.358532 -0.805472 -0.385840 center 0.288 0.007 -0.056 ntor 10 35.3599 -179.3346 -24.2265 -111.7248 -165.2337 -28.1210 176.2341 140.6413 43.2312 -10.8261
State:	 38.681  15.845 122.420  -0.294  0.389 -0.873 -134.608     35.36 -179.33  -24.23 -111.72 -165.23  -28.12  176.23  140.64   43.23  -10.83

DOCKED: MODEL       45
DOCKED: USER    Run = 45
DOCKED: USER    DPF = ligand_dock.biased.dpf
DOCKED: USER  
DOCKED: USER    Estimated Free Energy of Binding    =  -11.34 kcal/mol  [=(1)+(2)+(3)-(4)]
DOCKED: USER    Estimated Inhibition Constant, Ki   =    4.83 nM (nanomolar)  [Temperature = 298.15 K]
DOCKED: USER    
DOCKED: USER    (1) Final Intermolecular Energy     =  -14.33 kcal/mol
DOCKED: USER        vdW + Hbond + desolv Energy     =  -14.33 kcal/mol
DOCKED: USER        Electrostatic Energy            =   +0.00 kcal/mol
DOCKED: USER    (2) Final Total Internal Energy     =   -2.25 kcal/mol
DOCKED: USER    (3) Torsional Free Energy           =   +2.98 kcal/mol
DOCKED: USER    (4) Unbound System's Energy  [=(2)] =   -2.25 kcal/mol
DOCKED: USER    
DOCKED: USER    
DOCKED: USER    NEWDPF move ligand.dum.pdbqt
DOCKED: USER    NEWDPF about 0.288000 0.007000 -0.056000
DOCKED: USER    NEWDPF tran0 38.681322 15.844579 122.420171
DOCKED: USER    NEWDPF quaternion0 -0.271656 0.358532 -0.805472 -0.385840
DOCKED: USER    NEWDPF axisangle0 -0.294457 0.388625 -0.873078 -134.608160
DOCKED: USER    NEWDPF quat0 -0.294457 0.388625 -0.873078 -134.608160
DOCKED: USER    NEWDPF dihe0 35.36 -179.33 -24.23 -111.72 -165.23 -28.12 176.23 140.64 43.23 -10.83 
DOCKED: USER  keepresnum = 1 
DOCKED: USER  
DOCKED: REMARK  Name = 
DOCKED: REMARK  10 active torsions:
DOCKED: REMARK  status: ('A' for Active; 'I' for Inactive)
DOCKED: REMARK    1  A    between atoms: C_2  and  C_5
DOCKED: REMARK    2  A    between atoms: C_6  and  C_7
DOCKED: REMARK    3  A    between atoms: C_10  and  C_11
DOCKED: REMARK    4  A    between atoms: C_11  and  N_12
DOCKED: REMARK    5  A    between atoms: N_12  and  C_13
DOCKED: REMARK    6  A    between atoms: N_12  and  C_16
DOCKED: REMARK    7  A    between atoms: C_13  and  C_14
DOCKED: REMARK    8  A    between atoms: C_14  and  O_15
DOCKED: REMARK    9  A    between atoms: C_16  and  C_17
DOCKED: REMARK   10  A    between atoms: C_17  and  C_18
DOCKED: REMARK                            x       y       z     vdW  Elec       q    Type
DOCKED: REMARK                         _______ _______ _______ _____ _____    ______ ____
DOCKED: USER                              x       y       z     vdW  Elec       q    Type
DOCKED: USER                           _______ _______ _______ _____ _____    ______ ____
DOCKED: ROOT
DOCKED: ATOM      1  N   UNL     1      39.273  17.041 122.452 -0.17 -0.00    +0.000 N 
DOCKED: ATOM      2  H   UNL     1      39.736  17.737 121.867 +0.01 -0.00    +0.000 HD
DOCKED: ENDROOT
DOCKED: BRANCH   1   3
DOCKED: ATOM      3  C   UNL     1      38.423  16.288 121.493 -0.19 -0.00    +0.000 C 
DOCKED: BRANCH   3   7
DOCKED: ATOM      4  C   UNL     1      37.066  12.441 122.983 -0.56 -0.00    +0.000 A 
DOCKED: ATOM      5  C   UNL     1      37.725  12.538 121.748 -0.33 -0.00    +0.000 A 
DOCKED: ATOM      6  C   UNL     1      38.164  13.775 121.270 -0.37 -0.00    +0.000 A 
DOCKED: ATOM      7  C   UNL     1      37.929  14.949 122.003 -0.32 -0.00    +0.000 A 
DOCKED: ATOM      8  C   UNL     1      37.281  14.853 123.246 -0.37 -0.00    +0.000 A 
DOCKED: ATOM      9  C   UNL     1      36.842  13.616 123.727 -0.39 -0.00    +0.000 A 
DOCKED: ATOM     10  CM  UNL     1      37.501  13.695 122.496 +0.00 -0.00    +0.000 AC
DOCKED: BRANCH   4  11
DOCKED: ATOM     11  C   UNL     1      36.686   9.994 122.695 -0.69 -0.00    +0.000 C 
DOCKED: ATOM     12  C   UNL     1      36.610  11.105 123.442 -0.69 -0.00    +0.000 C 
DOCKED: BRANCH  10  13
DOCKED: ATOM     13  O   UNL     1      37.025   7.746 123.403 -2.64 -0.00    +0.000 OA
DOCKED: ATOM     14  C   UNL     1      36.211   8.685 123.184 -0.64 -0.00    +0.000 C 
DOCKED: ATOM     15  N   UNL     1      34.815   8.476 123.409 -0.60 -0.00    +0.000 N 
DOCKED: ATOM     16  O   UNL     1      34.363   7.281 123.857 -0.78 -0.00    +0.000 OA
DOCKED: ATOM     17  H   UNL     1      34.177   9.207 123.238 -0.44 -0.00    +0.000 HD
DOCKED: ENDBRANCH  10  13
DOCKED: ENDBRANCH   4  11
DOCKED: ENDBRANCH   3   7
DOCKED: ENDBRANCH   1   3
DOCKED: BRANCH   1  17
DOCKED: ATOM     18  C   UNL     1      40.385  16.264 123.046 -0.30 -0.00    +0.000 C 
DOCKED: BRANCH  17  18
DOCKED: ATOM     19  C   UNL     1      41.147  15.467 121.983 -0.42 -0.00    +0.000 C 
DOCKED: BRANCH  18  19
DOCKED: ATOM     20  O   UNL     1      41.170  14.110 122.332 -1.08 +0.00    +0.000 OA
DOCKED: ATOM     21  H   UNL     1      41.069  14.022 123.293 -0.08 +0.00    +0.000 HD
DOCKED: ENDBRANCH  18  19
DOCKED: ENDBRANCH  17  18
DOCKED: ENDBRANCH   1  17
DOCKED: BRANCH   1  21
DOCKED: ATOM     22  C   UNL     1      38.497  17.801 123.460 -0.20 -0.00    +0.000 C 
DOCKED: BRANCH  21  22
DOCKED: ATOM     23  C   UNL     1      37.329  18.537 122.794 -0.14 -0.00    +0.000 C 
DOCKED: BRANCH  22  23
DOCKED: ATOM     24  C   UNL     1      36.012  18.004 123.279 -0.22 -0.00    +0.000 A 
DOCKED: ATOM     25  C   UNL     1      35.109  17.246 122.541 -0.31 -0.00    +0.000 A 
DOCKED: ATOM     26  N   UNL     1      34.094  16.821 123.328 -0.43 -0.00    +0.000 N 
DOCKED: ATOM     27  C   UNL     1      34.357  17.291 124.560 -0.39 -0.00    +0.000 A 
DOCKED: ATOM     28  C   UNL     1      35.522  18.015 124.572 -0.26 -0.00    +0.000 A 
DOCKED: ATOM     29  C   UNL     1      36.024  18.578 125.747 -0.18 -0.00    +0.000 A 
DOCKED: ATOM     30  C   UNL     1      35.293  18.382 126.932 -0.12 -0.00    +0.000 A 
DOCKED: ATOM     31  C   UNL     1      34.094  17.637 126.919 -0.28 -0.00    +0.000 A 
DOCKED: ATOM     32  C   UNL     1      33.614  17.079 125.721 -0.24 -0.00    +0.000 A 
DOCKED: ATOM     33  H   UNL     1      33.320  16.278 123.055 -0.02 -0.00    +0.000 HD
DOCKED: ATOM     34  CM  UNL     1      34.990  17.454 123.646 -0.12 -0.00    +0.000 AC
DOCKED: ATOM     35  CM  UNL     1      34.817  17.830 125.741 -0.35 -0.00    +0.000 AC
DOCKED: ENDBRANCH  22  23
DOCKED: ENDBRANCH  21  22
DOCKED: ENDBRANCH   1  21
DOCKED: TORSDOF 10DOCKED: TER
DOCKED: ENDMDL
________________________________________________________________________________


	BEGINNING GENETIC ALGORITHM DOCKING 46 of 100
Run: 46 Seed: 1858394588 2031230941 [ Run 46 of 100 GA/GALS ]
Beginning LAMARCKIAN GENETIC ALGORITHM (LGA), with a maximum of 2500000 energy evaluations.

Final-Value: -17.732


	FINAL GENETIC ALGORITHM DOCKED STATE
	_______________________________________________


Detailed state:  trans 36.185 18.335 123.146 quatxyzw -0.665155 0.021274 0.667743 -0.333520 center 0.288 0.007 -0.056 ntor 10 -58.2680 -91.3427 61.6229 166.5834 172.6611 25.6634 -35.6449 109.1704 107.8207 -158.0095
State:	 36.185  18.335 123.146  -0.706  0.023  0.708 -141.035    -58.27  -91.34   61.62  166.58  172.66   25.66  -35.64  109.17  107.82 -158.01

DOCKED: MODEL       46
DOCKED: USER    Run = 46
DOCKED: USER    DPF = ligand_dock.biased.dpf
DOCKED: USER  
DOCKED: USER    Estimated Free Energy of Binding    =  -12.01 kcal/mol  [=(1)+(2)+(3)-(4)]
DOCKED: USER    Estimated Inhibition Constant, Ki   =    1.58 nM (nanomolar)  [Temperature = 298.15 K]
DOCKED: USER    
DOCKED: USER    (1) Final Intermolecular Energy     =  -14.99 kcal/mol
DOCKED: USER        vdW + Hbond + desolv Energy     =  -14.99 kcal/mol
DOCKED: USER        Electrostatic Energy            =   +0.00 kcal/mol
DOCKED: USER    (2) Final Total Internal Energy     =   -2.74 kcal/mol
DOCKED: USER    (3) Torsional Free Energy           =   +2.98 kcal/mol
DOCKED: USER    (4) Unbound System's Energy  [=(2)] =   -2.74 kcal/mol
DOCKED: USER    
DOCKED: USER    
DOCKED: USER    NEWDPF move ligand.dum.pdbqt
DOCKED: USER    NEWDPF about 0.288000 0.007000 -0.056000
DOCKED: USER    NEWDPF tran0 36.184995 18.334810 123.146251
DOCKED: USER    NEWDPF quaternion0 -0.665155 0.021274 0.667743 -0.333520
DOCKED: USER    NEWDPF axisangle0 -0.705553 0.022566 0.708298 -141.034844
DOCKED: USER    NEWDPF quat0 -0.705553 0.022566 0.708298 -141.034844
DOCKED: USER    NEWDPF dihe0 -58.27 -91.34 61.62 166.58 172.66 25.66 -35.64 109.17 107.82 -158.01 
DOCKED: USER  keepresnum = 1 
DOCKED: USER  
DOCKED: REMARK  Name = 
DOCKED: REMARK  10 active torsions:
DOCKED: REMARK  status: ('A' for Active; 'I' for Inactive)
DOCKED: REMARK    1  A    between atoms: C_2  and  C_5
DOCKED: REMARK    2  A    between atoms: C_6  and  C_7
DOCKED: REMARK    3  A    between atoms: C_10  and  C_11
DOCKED: REMARK    4  A    between atoms: C_11  and  N_12
DOCKED: REMARK    5  A    between atoms: N_12  and  C_13
DOCKED: REMARK    6  A    between atoms: N_12  and  C_16
DOCKED: REMARK    7  A    between atoms: C_13  and  C_14
DOCKED: REMARK    8  A    between atoms: C_14  and  O_15
DOCKED: REMARK    9  A    between atoms: C_16  and  C_17
DOCKED: REMARK   10  A    between atoms: C_17  and  C_18
DOCKED: REMARK                            x       y       z     vdW  Elec       q    Type
DOCKED: REMARK                         _______ _______ _______ _____ _____    ______ ____
DOCKED: USER                              x       y       z     vdW  Elec       q    Type
DOCKED: USER                           _______ _______ _______ _____ _____    ______ ____
DOCKED: ROOT
DOCKED: ATOM      1  N   UNL     1      36.189  18.030 124.446 -0.23 -0.00    +0.000 N 
DOCKED: ATOM      2  H   UNL     1      36.164  17.247 125.100 -0.02 -0.00    +0.000 HD
DOCKED: ENDROOT
DOCKED: BRANCH   1   3
DOCKED: ATOM      3  C   UNL     1      36.732  17.429 123.200 -0.24 -0.00    +0.000 C 
DOCKED: BRANCH   3   7
DOCKED: ATOM      4  C   UNL     1      36.677  13.086 123.136 -0.54 -0.00    +0.000 A 
DOCKED: ATOM      5  C   UNL     1      37.552  13.803 122.305 -0.43 -0.00    +0.000 A 
DOCKED: ATOM      6  C   UNL     1      37.572  15.200 122.328 -0.31 -0.00    +0.000 A 
DOCKED: ATOM      7  C   UNL     1      36.696  15.913 123.162 -0.32 -0.00    +0.000 A 
DOCKED: ATOM      8  C   UNL     1      35.828  15.199 124.004 -0.43 -0.00    +0.000 A 
DOCKED: ATOM      9  C   UNL     1      35.807  13.801 123.983 -0.43 -0.00    +0.000 A 
DOCKED: ATOM     10  CM  UNL     1      36.689  14.500 123.153 +0.00 -0.00    +0.000 AC
DOCKED: BRANCH   4  11
DOCKED: ATOM     11  C   UNL     1      37.026  10.911 121.969 -0.54 -0.00    +0.000 C 
DOCKED: ATOM     12  C   UNL     1      36.686  11.604 123.066 -0.69 -0.00    +0.000 C 
DOCKED: BRANCH  10  13
DOCKED: ATOM     13  O   UNL     1      37.064   8.815 120.840 -2.69 -0.00    +0.000 OA
DOCKED: ATOM     14  C   UNL     1      37.013   9.435 121.937 -0.63 -0.00    +0.000 C 
DOCKED: ATOM     15  N   UNL     1      36.938   8.700 123.160 -0.69 -0.00    +0.000 N 
DOCKED: ATOM     16  O   UNL     1      36.925   7.346 123.148 -2.28 -0.00    +0.000 OA
DOCKED: ATOM     17  H   UNL     1      36.898   9.181 124.019 -0.50 -0.00    +0.000 HD
DOCKED: ENDBRANCH  10  13
DOCKED: ENDBRANCH   4  11
DOCKED: ENDBRANCH   3   7
DOCKED: ENDBRANCH   1   3
DOCKED: BRANCH   1  17
DOCKED: ATOM     18  C   UNL     1      34.780  18.480 124.362 -0.31 -0.00    +0.000 C 
DOCKED: BRANCH  17  18
DOCKED: ATOM     19  C   UNL     1      33.958  17.989 125.556 -0.38 -0.00    +0.000 C 
DOCKED: BRANCH  18  19
DOCKED: ATOM     20  O   UNL     1      34.376  16.704 125.926 -0.48 -0.00    +0.000 OA
DOCKED: ATOM     21  H   UNL     1      33.638  16.084 125.829 -0.05 -0.00    +0.000 HD
DOCKED: ENDBRANCH  18  19
DOCKED: ENDBRANCH  17  18
DOCKED: ENDBRANCH   1  17
DOCKED: BRANCH   1  21
DOCKED: ATOM     22  C   UNL     1      37.084  19.044 125.052 -0.17 -0.00    +0.000 C 
DOCKED: BRANCH  21  22
DOCKED: ATOM     23  C   UNL     1      38.080  19.570 124.013 -0.11 -0.00    +0.000 C 
DOCKED: BRANCH  22  23
DOCKED: ATOM     24  C   UNL     1      39.393  18.850 124.117 -0.14 -0.00    +0.000 A 
DOCKED: ATOM     25  C   UNL     1      40.184  18.741 125.255 -0.23 -0.00    +0.000 A 
DOCKED: ATOM     26  N   UNL     1      41.228  17.911 125.028 -0.36 -0.00    +0.000 N 
DOCKED: ATOM     27  C   UNL     1      41.094  17.483 123.761 -0.30 -0.00    +0.000 A 
DOCKED: ATOM     28  C   UNL     1      39.983  18.031 123.172 -0.16 -0.00    +0.000 A 
DOCKED: ATOM     29  C   UNL     1      39.612  17.711 121.865 -0.10 -0.00    +0.000 A 
DOCKED: ATOM     30  C   UNL     1      40.420  16.801 121.158 -0.14 -0.00    +0.000 A 
DOCKED: ATOM     31  C   UNL     1      41.563  16.238 121.764 -0.28 -0.00    +0.000 A 
DOCKED: ATOM     32  C   UNL     1      41.910  16.577 123.085 -0.38 -0.00    +0.000 A 
DOCKED: ATOM     33  H   UNL     1      41.942  17.670 125.662 -0.43 -0.00    +0.000 HD
DOCKED: ATOM     34  CM  UNL     1      40.403  18.193 124.291 +0.00 -0.00    +0.000 AC
DOCKED: ATOM     35  CM  UNL     1      40.764  17.141 122.468 +0.00 -0.00    +0.000 AC
DOCKED: ENDBRANCH  22  23
DOCKED: ENDBRANCH  21  22
DOCKED: ENDBRANCH   1  21
DOCKED: TORSDOF 10DOCKED: TER
DOCKED: ENDMDL
________________________________________________________________________________


	BEGINNING GENETIC ALGORITHM DOCKING 47 of 100
Run: 47 Seed: 1115484206 190780066 [ Run 47 of 100 GA/GALS ]
Beginning LAMARCKIAN GENETIC ALGORITHM (LGA), with a maximum of 2500000 energy evaluations.

Final-Value: -14.926


	FINAL GENETIC ALGORITHM DOCKED STATE
	_______________________________________________


Detailed state:  trans 38.706 17.863 122.364 quatxyzw -0.553025 0.038544 -0.820856 0.137376 center 0.288 0.007 -0.056 ntor 10 -174.3776 119.0473 -137.8320 164.0299 -129.2150 171.9604 153.9479 180.0000 -4.8337 -108.8696
State:	 38.706  17.863 122.364  -0.558  0.039 -0.829 164.208   -174.38  119.05 -137.83  164.03 -129.21  171.96  153.95  180.00   -4.83 -108.87

DOCKED: MODEL       47
DOCKED: USER    Run = 47
DOCKED: USER    DPF = ligand_dock.biased.dpf
DOCKED: USER  
DOCKED: USER    Estimated Free Energy of Binding    =  -10.00 kcal/mol  [=(1)+(2)+(3)-(4)]
DOCKED: USER    Estimated Inhibition Constant, Ki   =   46.85 nM (nanomolar)  [Temperature = 298.15 K]
DOCKED: USER    
DOCKED: USER    (1) Final Intermolecular Energy     =  -12.98 kcal/mol
DOCKED: USER        vdW + Hbond + desolv Energy     =  -12.98 kcal/mol
DOCKED: USER        Electrostatic Energy            =   +0.00 kcal/mol
DOCKED: USER    (2) Final Total Internal Energy     =   -1.94 kcal/mol
DOCKED: USER    (3) Torsional Free Energy           =   +2.98 kcal/mol
DOCKED: USER    (4) Unbound System's Energy  [=(2)] =   -1.94 kcal/mol
DOCKED: USER    
DOCKED: USER    
DOCKED: USER    NEWDPF move ligand.dum.pdbqt
DOCKED: USER    NEWDPF about 0.288000 0.007000 -0.056000
DOCKED: USER    NEWDPF tran0 38.706448 17.862725 122.363831
DOCKED: USER    NEWDPF quaternion0 -0.553025 0.038544 -0.820856 0.137376
DOCKED: USER    NEWDPF axisangle0 -0.558319 0.038913 -0.828713 164.207895
DOCKED: USER    NEWDPF quat0 -0.558319 0.038913 -0.828713 164.207895
DOCKED: USER    NEWDPF dihe0 -174.38 119.05 -137.83 164.03 -129.21 171.96 153.95 180.00 -4.83 -108.87 
DOCKED: USER  keepresnum = 1 
DOCKED: USER  
DOCKED: REMARK  Name = 
DOCKED: REMARK  10 active torsions:
DOCKED: REMARK  status: ('A' for Active; 'I' for Inactive)
DOCKED: REMARK    1  A    between atoms: C_2  and  C_5
DOCKED: REMARK    2  A    between atoms: C_6  and  C_7
DOCKED: REMARK    3  A    between atoms: C_10  and  C_11
DOCKED: REMARK    4  A    between atoms: C_11  and  N_12
DOCKED: REMARK    5  A    between atoms: N_12  and  C_13
DOCKED: REMARK    6  A    between atoms: N_12  and  C_16
DOCKED: REMARK    7  A    between atoms: C_13  and  C_14
DOCKED: REMARK    8  A    between atoms: C_14  and  O_15
DOCKED: REMARK    9  A    between atoms: C_16  and  C_17
DOCKED: REMARK   10  A    between atoms: C_17  and  C_18
DOCKED: REMARK                            x       y       z     vdW  Elec       q    Type
DOCKED: REMARK                         _______ _______ _______ _____ _____    ______ ____
DOCKED: USER                              x       y       z     vdW  Elec       q    Type
DOCKED: USER                           _______ _______ _______ _____ _____    ______ ____
DOCKED: ROOT
DOCKED: ATOM      1  N   UNL     1      39.245  17.917 121.143 -0.06 -0.00    +0.000 N 
DOCKED: ATOM      2  H   UNL     1      39.229  17.474 120.225 +0.00 -0.00    +0.000 HD
DOCKED: ENDROOT
DOCKED: BRANCH   1   3
DOCKED: ATOM      3  C   UNL     1      37.915  17.584 121.716 -0.12 -0.00    +0.000 C 
DOCKED: BRANCH   3   7
DOCKED: ATOM      4  C   UNL     1      37.327  13.340 122.425 -0.47 -0.00    +0.000 A 
DOCKED: ATOM      5  C   UNL     1      37.019  13.906 121.179 -0.27 -0.00    +0.000 A 
DOCKED: ATOM      6  C   UNL     1      37.211  15.271 120.950 -0.22 -0.00    +0.000 A 
DOCKED: ATOM      7  C   UNL     1      37.689  16.107 121.972 -0.21 -0.00    +0.000 A 
DOCKED: ATOM      8  C   UNL     1      38.010  15.541 123.217 -0.27 -0.00    +0.000 A 
DOCKED: ATOM      9  C   UNL     1      37.820  14.175 123.448 -0.31 -0.00    +0.000 A 
DOCKED: ATOM     10  CM  UNL     1      37.513  14.723 122.198 +0.00 -0.00    +0.000 AC
DOCKED: BRANCH   4  11
DOCKED: ATOM     11  C   UNL     1      37.175  10.979 121.638 -0.39 -0.00    +0.000 C 
DOCKED: ATOM     12  C   UNL     1      37.095  11.887 122.622 -0.60 -0.00    +0.000 C 
DOCKED: BRANCH  10  13
DOCKED: ATOM     13  O   UNL     1      36.689   8.766 120.908 -2.54 +0.00    +0.000 OA
DOCKED: ATOM     14  C   UNL     1      36.927   9.543 121.872 -0.62 -0.00    +0.000 C 
DOCKED: ATOM     15  N   UNL     1      36.955   9.027 123.205 -0.64 -0.00    +0.000 N 
DOCKED: ATOM     16  O   UNL     1      36.729   7.712 123.436 -2.49 -0.00    +0.000 OA
DOCKED: ATOM     17  H   UNL     1      37.140   9.632 123.960 -0.51 -0.00    +0.000 HD
DOCKED: ENDBRANCH  10  13
DOCKED: ENDBRANCH   4  11
DOCKED: ENDBRANCH   3   7
DOCKED: ENDBRANCH   1   3
DOCKED: BRANCH   1  17
DOCKED: ATOM     18  C   UNL     1      40.397  17.291 121.831 -0.16 -0.00    +0.000 C 
DOCKED: BRANCH  17  18
DOCKED: ATOM     19  C   UNL     1      40.580  17.845 123.246 -0.24 -0.00    +0.000 C 
DOCKED: BRANCH  18  19
DOCKED: ATOM     20  O   UNL     1      41.587  17.134 123.910 -0.81 -0.00    +0.000 OA
DOCKED: ATOM     21  H   UNL     1      42.257  17.753 124.239 -0.41 -0.00    +0.000 HD
DOCKED: ENDBRANCH  18  19
DOCKED: ENDBRANCH  17  18
DOCKED: ENDBRANCH   1  17
DOCKED: BRANCH   1  21
DOCKED: ATOM     22  C   UNL     1      39.437  19.366 120.898 -0.03 -0.00    +0.000 C 
DOCKED: BRANCH  21  22
DOCKED: ATOM     23  C   UNL     1      39.034  19.725 119.463 -0.02 -0.00    +0.000 C 
DOCKED: BRANCH  22  23
DOCKED: ATOM     24  C   UNL     1      37.600  20.164 119.403 -0.05 -0.00    +0.000 A 
DOCKED: ATOM     25  C   UNL     1      37.132  21.467 119.537 -0.07 -0.00    +0.000 A 
DOCKED: ATOM     26  N   UNL     1      35.802  21.519 119.295 +0.03 -0.00    +0.000 N 
DOCKED: ATOM     27  C   UNL     1      35.430  20.263 118.995 -0.09 -0.00    +0.000 A 
DOCKED: ATOM     28  C   UNL     1      36.500  19.406 119.046 -0.08 -0.00    +0.000 A 
DOCKED: ATOM     29  C   UNL     1      36.370  18.051 118.739 -0.09 -0.00    +0.000 A 
DOCKED: ATOM     30  C   UNL     1      35.097  17.580 118.373 -0.14 -0.00    +0.000 A 
DOCKED: ATOM     31  C   UNL     1      33.995  18.461 118.320 -0.17 -0.00    +0.000 A 
DOCKED: ATOM     32  C   UNL     1      34.157  19.823 118.632 -0.17 -0.00    +0.000 A 
DOCKED: ATOM     33  H   UNL     1      35.224  22.315 119.332 -0.79 -0.00    +0.000 HD
DOCKED: ATOM     34  CM  UNL     1      36.471  20.595 119.256 +0.00 -0.00    +0.000 AC
DOCKED: ATOM     35  CM  UNL     1      35.258  18.931 118.684 +0.00 -0.00    +0.000 AC
DOCKED: ENDBRANCH  22  23
DOCKED: ENDBRANCH  21  22
DOCKED: ENDBRANCH   1  21
DOCKED: TORSDOF 10DOCKED: TER
DOCKED: ENDMDL
________________________________________________________________________________


	BEGINNING GENETIC ALGORITHM DOCKING 48 of 100
Run: 48 Seed: 367575693 399378299 [ Run 48 of 100 GA/GALS ]
Beginning LAMARCKIAN GENETIC ALGORITHM (LGA), with a maximum of 2500000 energy evaluations.

Final-Value: -17.077


	FINAL GENETIC ALGORITHM DOCKED STATE
	_______________________________________________


Detailed state:  trans 35.921 18.622 122.494 quatxyzw 0.370086 -0.555743 -0.616831 0.416780 center 0.288 0.007 -0.056 ntor 10 157.6320 -63.7580 21.1720 -167.6373 171.5443 -170.8627 -103.1575 166.5497 5.9815 131.3965
State:	 35.921  18.622 122.494   0.407 -0.611 -0.679 130.737    157.63  -63.76   21.17 -167.64  171.54 -170.86 -103.16  166.55    5.98  131.40

DOCKED: MODEL       48
DOCKED: USER    Run = 48
DOCKED: USER    DPF = ligand_dock.biased.dpf
DOCKED: USER  
DOCKED: USER    Estimated Free Energy of Binding    =  -11.69 kcal/mol  [=(1)+(2)+(3)-(4)]
DOCKED: USER    Estimated Inhibition Constant, Ki   =    2.70 nM (nanomolar)  [Temperature = 298.15 K]
DOCKED: USER    
DOCKED: USER    (1) Final Intermolecular Energy     =  -14.67 kcal/mol
DOCKED: USER        vdW + Hbond + desolv Energy     =  -14.67 kcal/mol
DOCKED: USER        Electrostatic Energy            =   +0.00 kcal/mol
DOCKED: USER    (2) Final Total Internal Energy     =   -2.40 kcal/mol
DOCKED: USER    (3) Torsional Free Energy           =   +2.98 kcal/mol
DOCKED: USER    (4) Unbound System's Energy  [=(2)] =   -2.40 kcal/mol
DOCKED: USER    
DOCKED: USER    
DOCKED: USER    NEWDPF move ligand.dum.pdbqt
DOCKED: USER    NEWDPF about 0.288000 0.007000 -0.056000
DOCKED: USER    NEWDPF tran0 35.920727 18.622492 122.494215
DOCKED: USER    NEWDPF quaternion0 0.370086 -0.555743 -0.616831 0.416780
DOCKED: USER    NEWDPF axisangle0 0.407132 -0.611374 -0.678576 130.737022
DOCKED: USER    NEWDPF quat0 0.407132 -0.611374 -0.678576 130.737022
DOCKED: USER    NEWDPF dihe0 157.63 -63.76 21.17 -167.64 171.54 -170.86 -103.16 166.55 5.98 131.40 
DOCKED: USER  keepresnum = 1 
DOCKED: USER  
DOCKED: REMARK  Name = 
DOCKED: REMARK  10 active torsions:
DOCKED: REMARK  status: ('A' for Active; 'I' for Inactive)
DOCKED: REMARK    1  A    between atoms: C_2  and  C_5
DOCKED: REMARK    2  A    between atoms: C_6  and  C_7
DOCKED: REMARK    3  A    between atoms: C_10  and  C_11
DOCKED: REMARK    4  A    between atoms: C_11  and  N_12
DOCKED: REMARK    5  A    between atoms: N_12  and  C_13
DOCKED: REMARK    6  A    between atoms: N_12  and  C_16
DOCKED: REMARK    7  A    between atoms: C_13  and  C_14
DOCKED: REMARK    8  A    between atoms: C_14  and  O_15
DOCKED: REMARK    9  A    between atoms: C_16  and  C_17
DOCKED: REMARK   10  A    between atoms: C_17  and  C_18
DOCKED: REMARK                            x       y       z     vdW  Elec       q    Type
DOCKED: REMARK                         _______ _______ _______ _____ _____    ______ ____
DOCKED: USER                              x       y       z     vdW  Elec       q    Type
DOCKED: USER                           _______ _______ _______ _____ _____    ______ ____
DOCKED: ROOT
DOCKED: ATOM      1  N   UNL     1      36.695  18.500 123.575 -0.16 -0.00    +0.000 N 
DOCKED: ATOM      2  H   UNL     1      36.719  18.122 124.522 -0.01 -0.00    +0.000 HD
DOCKED: ENDROOT
DOCKED: BRANCH   1   3
DOCKED: ATOM      3  C   UNL     1      35.663  17.675 122.894 -0.29 -0.00    +0.000 C 
DOCKED: BRANCH   3   7
DOCKED: ATOM      4  C   UNL     1      36.410  13.403 123.118 -0.51 -0.00    +0.000 A 
DOCKED: ATOM      5  C   UNL     1      36.714  14.122 121.952 -0.25 -0.00    +0.000 A 
DOCKED: ATOM      6  C   UNL     1      36.476  15.497 121.881 -0.15 -0.00    +0.000 A 
DOCKED: ATOM      7  C   UNL     1      35.903  16.180 122.965 -0.32 -0.00    +0.000 A 
DOCKED: ATOM      8  C   UNL     1      35.610  15.465 124.138 -0.43 -0.00    +0.000 A 
DOCKED: ATOM      9  C   UNL     1      35.847  14.089 124.211 -0.40 -0.00    +0.000 A 
DOCKED: ATOM     10  CM  UNL     1      36.160  14.792 123.044 +0.00 -0.00    +0.000 AC
DOCKED: BRANCH   4  11
DOCKED: ATOM     11  C   UNL     1      36.633  11.162 122.049 -0.62 -0.00    +0.000 C 
DOCKED: ATOM     12  C   UNL     1      36.671  11.941 123.139 -0.68 -0.00    +0.000 C 
DOCKED: BRANCH  10  13
DOCKED: ATOM     13  O   UNL     1      37.052   9.037 121.058 -2.71 -0.00    +0.000 OA
DOCKED: ATOM     14  C   UNL     1      36.889   9.709 122.113 -0.63 -0.00    +0.000 C 
DOCKED: ATOM     15  N   UNL     1      36.949   9.055 123.382 -0.59 -0.00    +0.000 N 
DOCKED: ATOM     16  O   UNL     1      37.182   7.724 123.458 -2.67 -0.00    +0.000 OA
DOCKED: ATOM     17  H   UNL     1      36.822   9.577 124.208 -0.52 -0.00    +0.000 HD
DOCKED: ENDBRANCH  10  13
DOCKED: ENDBRANCH   4  11
DOCKED: ENDBRANCH   3   7
DOCKED: ENDBRANCH   1   3
DOCKED: BRANCH   1  17
DOCKED: ATOM     18  C   UNL     1      36.335  19.925 123.760 -0.18 -0.00    +0.000 C 
DOCKED: BRANCH  17  18
DOCKED: ATOM     19  C   UNL     1      35.651  20.164 125.109 -0.18 -0.00    +0.000 C 
DOCKED: BRANCH  18  19
DOCKED: ATOM     20  O   UNL     1      35.367  18.938 125.722 -0.23 -0.00    +0.000 OA
DOCKED: ATOM     21  H   UNL     1      36.064  18.728 126.363 -0.01 -0.00    +0.000 HD
DOCKED: ENDBRANCH  18  19
DOCKED: ENDBRANCH  17  18
DOCKED: ENDBRANCH   1  17
DOCKED: BRANCH   1  21
DOCKED: ATOM     22  C   UNL     1      38.058  18.316 123.024 -0.14 -0.00    +0.000 C 
DOCKED: BRANCH  21  22
DOCKED: ATOM     23  C   UNL     1      38.710  17.061 123.613 -0.25 -0.00    +0.000 C 
DOCKED: BRANCH  22  23
DOCKED: ATOM     24  C   UNL     1      40.192  17.063 123.374 -0.24 -0.00    +0.000 A 
DOCKED: ATOM     25  C   UNL     1      41.180  17.278 124.330 -0.16 -0.00    +0.000 A 
DOCKED: ATOM     26  N   UNL     1      42.406  17.076 123.797 -0.36 -0.00    +0.000 N 
DOCKED: ATOM     27  C   UNL     1      42.201  16.721 122.516 -0.34 -0.00    +0.000 A 
DOCKED: ATOM     28  C   UNL     1      40.861  16.698 122.221 -0.24 -0.00    +0.000 A 
DOCKED: ATOM     29  C   UNL     1      40.395  16.324 120.959 -0.17 -0.00    +0.000 A 
DOCKED: ATOM     30  C   UNL     1      41.347  15.970 119.986 -0.12 -0.00    +0.000 A 
DOCKED: ATOM     31  C   UNL     1      42.725  15.994 120.290 -0.19 -0.00    +0.000 A 
DOCKED: ATOM     32  C   UNL     1      43.166  16.371 121.572 -0.28 -0.00    +0.000 A 
DOCKED: ATOM     33  H   UNL     1      43.273  17.171 124.252 -0.63 -0.00    +0.000 HD
DOCKED: ATOM     34  CM  UNL     1      41.401  16.970 123.265 +0.00 -0.00    +0.000 AC
DOCKED: ATOM     35  CM  UNL     1      41.782  16.347 121.258 +0.00 -0.00    +0.000 AC
DOCKED: ENDBRANCH  22  23
DOCKED: ENDBRANCH  21  22
DOCKED: ENDBRANCH   1  21
DOCKED: TORSDOF 10DOCKED: TER
DOCKED: ENDMDL
________________________________________________________________________________


	BEGINNING GENETIC ALGORITHM DOCKING 49 of 100
Run: 49 Seed: 1841652388 807606012 [ Run 49 of 100 GA/GALS ]
Beginning LAMARCKIAN GENETIC ALGORITHM (LGA), with a maximum of 2500000 energy evaluations.

Final-Value: -17.952


	FINAL GENETIC ALGORITHM DOCKED STATE
	_______________________________________________


Detailed state:  trans 35.624 18.531 122.963 quatxyzw -0.506346 0.172362 0.758495 -0.372277 center 0.288 0.007 -0.056 ntor 10 -69.6335 -58.0500 26.8605 -163.3228 135.5665 -177.2254 -157.6205 150.3966 -21.7149 -180.0000
State:	 35.624  18.531 122.963  -0.546  0.186  0.817 -136.288    -69.63  -58.05   26.86 -163.32  135.57 -177.23 -157.62  150.40  -21.71 -180.00

DOCKED: MODEL       49
DOCKED: USER    Run = 49
DOCKED: USER    DPF = ligand_dock.biased.dpf
DOCKED: USER  
DOCKED: USER    Estimated Free Energy of Binding    =  -12.41 kcal/mol  [=(1)+(2)+(3)-(4)]
DOCKED: USER    Estimated Inhibition Constant, Ki   =  798.67 pM (picomolar)  [Temperature = 298.15 K]
DOCKED: USER    
DOCKED: USER    (1) Final Intermolecular Energy     =  -15.39 kcal/mol
DOCKED: USER        vdW + Hbond + desolv Energy     =  -15.39 kcal/mol
DOCKED: USER        Electrostatic Energy            =   +0.00 kcal/mol
DOCKED: USER    (2) Final Total Internal Energy     =   -2.56 kcal/mol
DOCKED: USER    (3) Torsional Free Energy           =   +2.98 kcal/mol
DOCKED: USER    (4) Unbound System's Energy  [=(2)] =   -2.56 kcal/mol
DOCKED: USER    
DOCKED: USER    
DOCKED: USER    NEWDPF move ligand.dum.pdbqt
DOCKED: USER    NEWDPF about 0.288000 0.007000 -0.056000
DOCKED: USER    NEWDPF tran0 35.624098 18.531407 122.962731
DOCKED: USER    NEWDPF quaternion0 -0.506346 0.172362 0.758495 -0.372277
DOCKED: USER    NEWDPF axisangle0 -0.545560 0.185710 0.817237 -136.287757
DOCKED: USER    NEWDPF quat0 -0.545560 0.185710 0.817237 -136.287757
DOCKED: USER    NEWDPF dihe0 -69.63 -58.05 26.86 -163.32 135.57 -177.23 -157.62 150.40 -21.71 -180.00 
DOCKED: USER  keepresnum = 1 
DOCKED: USER  
DOCKED: REMARK  Name = 
DOCKED: REMARK  10 active torsions:
DOCKED: REMARK  status: ('A' for Active; 'I' for Inactive)
DOCKED: REMARK    1  A    between atoms: C_2  and  C_5
DOCKED: REMARK    2  A    between atoms: C_6  and  C_7
DOCKED: REMARK    3  A    between atoms: C_10  and  C_11
DOCKED: REMARK    4  A    between atoms: C_11  and  N_12
DOCKED: REMARK    5  A    between atoms: N_12  and  C_13
DOCKED: REMARK    6  A    between atoms: N_12  and  C_16
DOCKED: REMARK    7  A    between atoms: C_13  and  C_14
DOCKED: REMARK    8  A    between atoms: C_14  and  O_15
DOCKED: REMARK    9  A    between atoms: C_16  and  C_17
DOCKED: REMARK   10  A    between atoms: C_17  and  C_18
DOCKED: REMARK                            x       y       z     vdW  Elec       q    Type
DOCKED: REMARK                         _______ _______ _______ _____ _____    ______ ____
DOCKED: USER                              x       y       z     vdW  Elec       q    Type
DOCKED: USER                           _______ _______ _______ _____ _____    ______ ____
DOCKED: ROOT
DOCKED: ATOM      1  N   UNL     1      36.122  18.227 124.164 -0.22 -0.00    +0.000 N 
DOCKED: ATOM      2  H   UNL     1      36.232  17.463 124.831 -0.01 -0.00    +0.000 HD
DOCKED: ENDROOT
DOCKED: BRANCH   1   3
DOCKED: ATOM      3  C   UNL     1      35.965  17.533 122.859 -0.27 -0.00    +0.000 C 
DOCKED: BRANCH   3   7
DOCKED: ATOM      4  C   UNL     1      36.566  13.237 123.069 -0.52 -0.00    +0.000 A 
DOCKED: ATOM      5  C   UNL     1      37.416  14.041 122.296 -0.41 -0.00    +0.000 A 
DOCKED: ATOM      6  C   UNL     1      37.225  15.424 122.230 -0.29 -0.00    +0.000 A 
DOCKED: ATOM      7  C   UNL     1      36.160  16.031 122.915 -0.32 -0.00    +0.000 A 
DOCKED: ATOM      8  C   UNL     1      35.315  15.230 123.700 -0.47 -0.00    +0.000 A 
DOCKED: ATOM      9  C   UNL     1      35.505  13.846 123.768 -0.42 -0.00    +0.000 A 
DOCKED: ATOM     10  CM  UNL     1      36.365  14.634 122.996 +0.00 -0.00    +0.000 AC
DOCKED: BRANCH   4  11
DOCKED: ATOM     11  C   UNL     1      36.674  10.975 122.026 -0.62 -0.00    +0.000 C 
DOCKED: ATOM     12  C   UNL     1      36.804  11.772 123.097 -0.68 -0.00    +0.000 C 
DOCKED: BRANCH  10  13
DOCKED: ATOM     13  O   UNL     1      37.066   8.841 121.045 -2.70 -0.00    +0.000 OA
DOCKED: ATOM     14  C   UNL     1      36.911   9.520 122.097 -0.65 -0.00    +0.000 C 
DOCKED: ATOM     15  N   UNL     1      36.962   8.871 123.370 -0.62 -0.00    +0.000 N 
DOCKED: ATOM     16  O   UNL     1      37.178   7.537 123.452 -2.54 -0.00    +0.000 OA
DOCKED: ATOM     17  H   UNL     1      36.841   9.398 124.193 -0.52 -0.00    +0.000 HD
DOCKED: ENDBRANCH  10  13
DOCKED: ENDBRANCH   4  11
DOCKED: ENDBRANCH   3   7
DOCKED: ENDBRANCH   1   3
DOCKED: BRANCH   1  17
DOCKED: ATOM     18  C   UNL     1      34.920  18.953 124.635 -0.26 -0.00    +0.000 C 
DOCKED: BRANCH  17  18
DOCKED: ATOM     19  C   UNL     1      34.113  18.119 125.635 -0.37 -0.00    +0.000 C 
DOCKED: BRANCH  18  19
DOCKED: ATOM     20  O   UNL     1      34.698  16.854 125.780 -0.39 -0.00    +0.000 OA
DOCKED: ATOM     21  H   UNL     1      34.018  16.171 125.675 -0.04 -0.00    +0.000 HD
DOCKED: ENDBRANCH  18  19
DOCKED: ENDBRANCH  17  18
DOCKED: ENDBRANCH   1  17
DOCKED: BRANCH   1  21
DOCKED: ATOM     22  C   UNL     1      37.359  19.037 124.258 -0.16 -0.00    +0.000 C 
DOCKED: BRANCH  21  22
DOCKED: ATOM     23  C   UNL     1      38.353  18.388 125.227 -0.15 -0.00    +0.000 C 
DOCKED: BRANCH  22  23
DOCKED: ATOM     24  C   UNL     1      39.760  18.517 124.718 -0.21 -0.00    +0.000 A 
DOCKED: ATOM     25  C   UNL     1      40.710  19.437 125.149 -0.17 -0.00    +0.000 A 
DOCKED: ATOM     26  N   UNL     1      41.908  19.184 124.576 -0.11 -0.00    +0.000 N 
DOCKED: ATOM     27  C   UNL     1      41.726  18.103 123.798 -0.24 -0.00    +0.000 A 
DOCKED: ATOM     28  C   UNL     1      40.429  17.663 123.861 -0.26 -0.00    +0.000 A 
DOCKED: ATOM     29  C   UNL     1      40.003  16.532 123.164 -0.21 -0.00    +0.000 A 
DOCKED: ATOM     30  C   UNL     1      40.951  15.846 122.384 -0.36 -0.00    +0.000 A 
DOCKED: ATOM     31  C   UNL     1      42.287  16.298 122.319 -0.37 -0.00    +0.000 A 
DOCKED: ATOM     32  C   UNL     1      42.688  17.440 123.035 -0.30 -0.00    +0.000 A 
DOCKED: ATOM     33  H   UNL     1      42.744  19.689 124.701 -0.56 -0.00    +0.000 HD
DOCKED: ATOM     34  CM  UNL     1      40.939  18.600 124.426 +0.00 -0.00    +0.000 AC
DOCKED: ATOM     35  CM  UNL     1      41.347  16.981 123.093 +0.00 -0.00    +0.000 AC
DOCKED: ENDBRANCH  22  23
DOCKED: ENDBRANCH  21  22
DOCKED: ENDBRANCH   1  21
DOCKED: TORSDOF 10DOCKED: TER
DOCKED: ENDMDL
________________________________________________________________________________


	BEGINNING GENETIC ALGORITHM DOCKING 50 of 100
Run: 50 Seed: 1167825375 194231114 [ Run 50 of 100 GA/GALS ]
Beginning LAMARCKIAN GENETIC ALGORITHM (LGA), with a maximum of 2500000 energy evaluations.

Final-Value: -16.451


	FINAL GENETIC ALGORITHM DOCKED STATE
	_______________________________________________


Detailed state:  trans 34.966 18.436 123.209 quatxyzw -0.133222 0.539260 0.819668 -0.139983 center 0.288 0.007 -0.056 ntor 10 -6.5225 -35.5407 26.8326 -80.1827 -98.3137 125.6144 159.9674 30.9663 -55.0652 147.0093
State:	 34.966  18.436 123.209  -0.135  0.545  0.828 -163.906     -6.52  -35.54   26.83  -80.18  -98.31  125.61  159.97   30.97  -55.07  147.01

DOCKED: MODEL       50
DOCKED: USER    Run = 50
DOCKED: USER    DPF = ligand_dock.biased.dpf
DOCKED: USER  
DOCKED: USER    Estimated Free Energy of Binding    =  -10.68 kcal/mol  [=(1)+(2)+(3)-(4)]
DOCKED: USER    Estimated Inhibition Constant, Ki   =   14.86 nM (nanomolar)  [Temperature = 298.15 K]
DOCKED: USER    
DOCKED: USER    (1) Final Intermolecular Energy     =  -13.66 kcal/mol
DOCKED: USER        vdW + Hbond + desolv Energy     =  -13.66 kcal/mol
DOCKED: USER        Electrostatic Energy            =   +0.00 kcal/mol
DOCKED: USER    (2) Final Total Internal Energy     =   -2.79 kcal/mol
DOCKED: USER    (3) Torsional Free Energy           =   +2.98 kcal/mol
DOCKED: USER    (4) Unbound System's Energy  [=(2)] =   -2.79 kcal/mol
DOCKED: USER    
DOCKED: USER    
DOCKED: USER    NEWDPF move ligand.dum.pdbqt
DOCKED: USER    NEWDPF about 0.288000 0.007000 -0.056000
DOCKED: USER    NEWDPF tran0 34.966416 18.436086 123.209367
DOCKED: USER    NEWDPF quaternion0 -0.133222 0.539260 0.819668 -0.139983
DOCKED: USER    NEWDPF axisangle0 -0.134547 0.544623 0.827818 -163.906282
DOCKED: USER    NEWDPF quat0 -0.134547 0.544623 0.827818 -163.906282
DOCKED: USER    NEWDPF dihe0 -6.52 -35.54 26.83 -80.18 -98.31 125.61 159.97 30.97 -55.07 147.01 
DOCKED: USER  keepresnum = 1 
DOCKED: USER  
DOCKED: REMARK  Name = 
DOCKED: REMARK  10 active torsions:
DOCKED: REMARK  status: ('A' for Active; 'I' for Inactive)
DOCKED: REMARK    1  A    between atoms: C_2  and  C_5
DOCKED: REMARK    2  A    between atoms: C_6  and  C_7
DOCKED: REMARK    3  A    between atoms: C_10  and  C_11
DOCKED: REMARK    4  A    between atoms: C_11  and  N_12
DOCKED: REMARK    5  A    between atoms: N_12  and  C_13
DOCKED: REMARK    6  A    between atoms: N_12  and  C_16
DOCKED: REMARK    7  A    between atoms: C_13  and  C_14
DOCKED: REMARK    8  A    between atoms: C_14  and  O_15
DOCKED: REMARK    9  A    between atoms: C_16  and  C_17
DOCKED: REMARK   10  A    between atoms: C_17  and  C_18
DOCKED: REMARK                            x       y       z     vdW  Elec       q    Type
DOCKED: REMARK                         _______ _______ _______ _____ _____    ______ ____
DOCKED: USER                              x       y       z     vdW  Elec       q    Type
DOCKED: USER                           _______ _______ _______ _____ _____    ______ ____
DOCKED: ROOT
DOCKED: ATOM      1  N   UNL     1      36.283  18.441 123.432 -0.18 -0.00    +0.000 N 
DOCKED: ATOM      2  H   UNL     1      37.022  17.979 123.961 -0.00 -0.00    +0.000 HD
DOCKED: ENDROOT
DOCKED: BRANCH   1   3
DOCKED: ATOM      3  C   UNL     1      35.210  17.415 123.358 -0.36 -0.00    +0.000 C 
DOCKED: BRANCH   3   7
DOCKED: ATOM      4  C   UNL     1      36.571  13.341 122.720 -0.47 -0.00    +0.000 A 
DOCKED: ATOM      5  C   UNL     1      35.778  13.664 123.831 -0.48 -0.00    +0.000 A 
DOCKED: ATOM      6  C   UNL     1      35.337  14.974 124.035 -0.49 -0.00    +0.000 A 
DOCKED: ATOM      7  C   UNL     1      35.705  15.998 123.147 -0.36 -0.00    +0.000 A 
DOCKED: ATOM      8  C   UNL     1      36.488  15.675 122.026 -0.21 -0.00    +0.000 A 
DOCKED: ATOM      9  C   UNL     1      36.929  14.364 121.820 -0.27 -0.00    +0.000 A 
DOCKED: ATOM     10  CM  UNL     1      36.134  14.668 122.930 +0.00 -0.00    +0.000 AC
DOCKED: BRANCH   4  11
DOCKED: ATOM     11  C   UNL     1      36.188  10.897 122.409 -0.67 -0.00    +0.000 C 
DOCKED: ATOM     12  C   UNL     1      37.022  11.936 122.554 -0.62 -0.00    +0.000 C 
DOCKED: BRANCH  10  13
DOCKED: ATOM     13  O   UNL     1      37.068   9.088 121.136 -2.72 -0.00    +0.000 OA
DOCKED: ATOM     14  C   UNL     1      36.676   9.512 122.257 -0.71 -0.00    +0.000 C 
DOCKED: ATOM     15  N   UNL     1      36.704   8.642 123.391 -0.64 -0.00    +0.000 N 
DOCKED: ATOM     16  O   UNL     1      37.149   7.369 123.268 -2.35 -0.00    +0.000 OA
DOCKED: ATOM     17  H   UNL     1      36.399   8.970 124.268 -0.33 -0.00    +0.000 HD
DOCKED: ENDBRANCH  10  13
DOCKED: ENDBRANCH   4  11
DOCKED: ENDBRANCH   3   7
DOCKED: ENDBRANCH   1   3
DOCKED: BRANCH   1  17
DOCKED: ATOM     18  C   UNL     1      35.950  19.638 124.238 -0.20 -0.00    +0.000 C 
DOCKED: BRANCH  17  18
DOCKED: ATOM     19  C   UNL     1      36.510  19.535 125.659 -0.16 -0.00    +0.000 C 
DOCKED: BRANCH  18  19
DOCKED: ATOM     20  O   UNL     1      37.533  18.579 125.700 -0.21 -0.00    +0.000 OA
DOCKED: ATOM     21  H   UNL     1      37.160  17.699 125.535 -0.01 -0.00    +0.000 HD
DOCKED: ENDBRANCH  18  19
DOCKED: ENDBRANCH  17  18
DOCKED: ENDBRANCH   1  17
DOCKED: BRANCH   1  21
DOCKED: ATOM     22  C   UNL     1      36.871  18.778 122.114 -0.15 -0.00    +0.000 C 
DOCKED: BRANCH  21  22
DOCKED: ATOM     23  C   UNL     1      38.378  19.021 122.245 -0.08 -0.00    +0.000 C 
DOCKED: BRANCH  22  23
DOCKED: ATOM     24  C   UNL     1      39.155  17.802 121.841 -0.09 -0.00    +0.000 A 
DOCKED: ATOM     25  C   UNL     1      38.915  17.005 120.726 -0.09 -0.00    +0.000 A 
DOCKED: ATOM     26  N   UNL     1      39.886  16.073 120.593 -0.17 -0.00    +0.000 N 
DOCKED: ATOM     27  C   UNL     1      40.745  16.285 121.605 -0.23 -0.00    +0.000 A 
DOCKED: ATOM     28  C   UNL     1      40.336  17.334 122.387 -0.17 -0.00    +0.000 A 
DOCKED: ATOM     29  C   UNL     1      41.083  17.768 123.483 -0.26 -0.00    +0.000 A 
DOCKED: ATOM     30  C   UNL     1      42.282  17.091 123.769 -0.21 -0.00    +0.000 A 
DOCKED: ATOM     31  C   UNL     1      42.704  16.010 122.964 -0.38 -0.00    +0.000 A 
DOCKED: ATOM     32  C   UNL     1      41.931  15.597 121.864 -0.37 -0.00    +0.000 A 
DOCKED: ATOM     33  H   UNL     1      39.951  15.380 119.897 -0.03 -0.00    +0.000 HD
DOCKED: ATOM     34  CM  UNL     1      39.810  16.874 121.403 +0.00 -0.00    +0.000 AC
DOCKED: ATOM     35  CM  UNL     1      41.513  16.681 122.679 +0.00 -0.00    +0.000 AC
DOCKED: ENDBRANCH  22  23
DOCKED: ENDBRANCH  21  22
DOCKED: ENDBRANCH   1  21
DOCKED: TORSDOF 10DOCKED: TER
DOCKED: ENDMDL
________________________________________________________________________________


	BEGINNING GENETIC ALGORITHM DOCKING 51 of 100
Run: 51 Seed: 432938695 270506980 [ Run 51 of 100 GA/GALS ]
Beginning LAMARCKIAN GENETIC ALGORITHM (LGA), with a maximum of 2500000 energy evaluations.

Final-Value: -15.939


	FINAL GENETIC ALGORITHM DOCKED STATE
	_______________________________________________


Detailed state:  trans 36.387 17.400 122.707 quatxyzw -0.152146 0.413895 0.524530 0.728293 center 0.288 0.007 -0.056 ntor 10 -64.6296 60.2737 -166.2276 138.7008 39.0713 -20.0280 -107.5294 180.0000 -32.6685 25.7956
State:	 36.387  17.400 122.707  -0.222  0.604  0.765 86.513    -64.63   60.27 -166.23  138.70   39.07  -20.03 -107.53  180.00  -32.67   25.80

DOCKED: MODEL       51
DOCKED: USER    Run = 51
DOCKED: USER    DPF = ligand_dock.biased.dpf
DOCKED: USER  
DOCKED: USER    Estimated Free Energy of Binding    =  -11.14 kcal/mol  [=(1)+(2)+(3)-(4)]
DOCKED: USER    Estimated Inhibition Constant, Ki   =    6.78 nM (nanomolar)  [Temperature = 298.15 K]
DOCKED: USER    
DOCKED: USER    (1) Final Intermolecular Energy     =  -14.13 kcal/mol
DOCKED: USER        vdW + Hbond + desolv Energy     =  -14.13 kcal/mol
DOCKED: USER        Electrostatic Energy            =   +0.00 kcal/mol
DOCKED: USER    (2) Final Total Internal Energy     =   -1.81 kcal/mol
DOCKED: USER    (3) Torsional Free Energy           =   +2.98 kcal/mol
DOCKED: USER    (4) Unbound System's Energy  [=(2)] =   -1.81 kcal/mol
DOCKED: USER    
DOCKED: USER    
DOCKED: USER    NEWDPF move ligand.dum.pdbqt
DOCKED: USER    NEWDPF about 0.288000 0.007000 -0.056000
DOCKED: USER    NEWDPF tran0 36.387292 17.400341 122.707300
DOCKED: USER    NEWDPF quaternion0 -0.152146 0.413895 0.524530 0.728293
DOCKED: USER    NEWDPF axisangle0 -0.222025 0.603992 0.765440 86.513063
DOCKED: USER    NEWDPF quat0 -0.222025 0.603992 0.765440 86.513063
DOCKED: USER    NEWDPF dihe0 -64.63 60.27 -166.23 138.70 39.07 -20.03 -107.53 180.00 -32.67 25.80 
DOCKED: USER  keepresnum = 1 
DOCKED: USER  
DOCKED: REMARK  Name = 
DOCKED: REMARK  10 active torsions:
DOCKED: REMARK  status: ('A' for Active; 'I' for Inactive)
DOCKED: REMARK    1  A    between atoms: C_2  and  C_5
DOCKED: REMARK    2  A    between atoms: C_6  and  C_7
DOCKED: REMARK    3  A    between atoms: C_10  and  C_11
DOCKED: REMARK    4  A    between atoms: C_11  and  N_12
DOCKED: REMARK    5  A    between atoms: N_12  and  C_13
DOCKED: REMARK    6  A    between atoms: N_12  and  C_16
DOCKED: REMARK    7  A    between atoms: C_13  and  C_14
DOCKED: REMARK    8  A    between atoms: C_14  and  O_15
DOCKED: REMARK    9  A    between atoms: C_16  and  C_17
DOCKED: REMARK   10  A    between atoms: C_17  and  C_18
DOCKED: REMARK                            x       y       z     vdW  Elec       q    Type
DOCKED: REMARK                         _______ _______ _______ _____ _____    ______ ____
DOCKED: USER                              x       y       z     vdW  Elec       q    Type
DOCKED: USER                           _______ _______ _______ _____ _____    ______ ____
DOCKED: ROOT
DOCKED: ATOM      1  N   UNL     1      36.053  18.434 121.932 -0.19 -0.00    +0.000 N 
DOCKED: ATOM      2  H   UNL     1      36.384  19.335 121.586 -0.00 -0.00    +0.000 HD
DOCKED: ENDROOT
DOCKED: BRANCH   1   3
DOCKED: ATOM      3  C   UNL     1      37.303  17.707 122.271 -0.16 -0.00    +0.000 C 
DOCKED: BRANCH   3   7
DOCKED: ATOM      4  C   UNL     1      36.809  13.399 122.523 -0.46 -0.00    +0.000 A 
DOCKED: ATOM      5  C   UNL     1      36.583  14.212 123.644 -0.43 -0.00    +0.000 A 
DOCKED: ATOM      6  C   UNL     1      36.739  15.598 123.562 -0.33 -0.00    +0.000 A 
DOCKED: ATOM      7  C   UNL     1      37.153  16.201 122.364 -0.23 -0.00    +0.000 A 
DOCKED: ATOM      8  C   UNL     1      37.367  15.391 121.236 -0.23 -0.00    +0.000 A 
DOCKED: ATOM      9  C   UNL     1      37.211  14.004 121.316 -0.32 -0.00    +0.000 A 
DOCKED: ATOM     10  CM  UNL     1      36.976  14.801 122.442 +0.00 -0.00    +0.000 AC
DOCKED: BRANCH   4  11
DOCKED: ATOM     11  C   UNL     1      37.152  11.036 121.808 -0.42 -0.00    +0.000 C 
DOCKED: ATOM     12  C   UNL     1      36.640  11.931 122.664 -0.65 -0.00    +0.000 C 
DOCKED: BRANCH  10  13
DOCKED: ATOM     13  O   UNL     1      36.683   8.851 120.987 -2.60 -0.00    +0.000 OA
DOCKED: ATOM     14  C   UNL     1      36.953   9.583 121.978 -0.63 -0.00    +0.000 C 
DOCKED: ATOM     15  N   UNL     1      37.065   9.000 123.278 -0.63 -0.00    +0.000 N 
DOCKED: ATOM     16  O   UNL     1      36.885   7.669 123.450 -2.56 -0.00    +0.000 OA
DOCKED: ATOM     17  H   UNL     1      37.275   9.569 124.054 -0.55 -0.00    +0.000 HD
DOCKED: ENDBRANCH  10  13
DOCKED: ENDBRANCH   4  11
DOCKED: ENDBRANCH   3   7
DOCKED: ENDBRANCH   1   3
DOCKED: BRANCH   1  17
DOCKED: ATOM     18  C   UNL     1      35.197  18.781 123.090 -0.18 -0.00    +0.000 C 
DOCKED: BRANCH  17  18
DOCKED: ATOM     19  C   UNL     1      34.095  17.741 123.309 -0.38 -0.00    +0.000 C 
DOCKED: BRANCH  18  19
DOCKED: ATOM     20  O   UNL     1      34.289  17.093 124.535 -0.47 -0.00    +0.000 OA
DOCKED: ATOM     21  H   UNL     1      34.330  16.135 124.392 -0.02 -0.00    +0.000 HD
DOCKED: ENDBRANCH  18  19
DOCKED: ENDBRANCH  17  18
DOCKED: ENDBRANCH   1  17
DOCKED: BRANCH   1  21
DOCKED: ATOM     22  C   UNL     1      35.295  17.819 120.817 -0.26 -0.00    +0.000 C 
DOCKED: BRANCH  21  22
DOCKED: ATOM     23  C   UNL     1      35.140  18.813 119.660 -0.21 -0.00    +0.000 C 
DOCKED: BRANCH  22  23
DOCKED: ATOM     24  C   UNL     1      34.151  18.310 118.650 -0.19 -0.00    +0.000 A 
DOCKED: ATOM     25  C   UNL     1      34.452  17.713 117.430 -0.12 -0.00    +0.000 A 
DOCKED: ATOM     26  N   UNL     1      33.325  17.260 116.834 -0.13 -0.00    +0.000 N 
DOCKED: ATOM     27  C   UNL     1      32.317  17.552 117.675 -0.17 -0.00    +0.000 A 
DOCKED: ATOM     28  C   UNL     1      32.781  18.190 118.796 -0.24 -0.00    +0.000 A 
DOCKED: ATOM     29  C   UNL     1      31.926  18.566 119.833 -0.44 -0.00    +0.000 A 
DOCKED: ATOM     30  C   UNL     1      30.558  18.271 119.695 -0.35 -0.00    +0.000 A 
DOCKED: ATOM     31  C   UNL     1      30.080  17.614 118.540 -0.35 -0.00    +0.000 A 
DOCKED: ATOM     32  C   UNL     1      30.967  17.244 117.513 -0.21 -0.00    +0.000 A 
DOCKED: ATOM     33  H   UNL     1      33.256  16.808 115.962 +0.00 -0.00    +0.000 HD
DOCKED: ATOM     34  CM  UNL     1      33.403  17.787 117.844 +0.00 -0.00    +0.000 AC
DOCKED: ATOM     35  CM  UNL     1      31.439  17.907 118.675 +0.00 -0.00    +0.000 AC
DOCKED: ENDBRANCH  22  23
DOCKED: ENDBRANCH  21  22
DOCKED: ENDBRANCH   1  21
DOCKED: TORSDOF 10DOCKED: TER
DOCKED: ENDMDL
________________________________________________________________________________


	BEGINNING GENETIC ALGORITHM DOCKING 52 of 100
Run: 52 Seed: 851612063 1304362097 [ Run 52 of 100 GA/GALS ]
Beginning LAMARCKIAN GENETIC ALGORITHM (LGA), with a maximum of 2500000 energy evaluations.

Final-Value: -16.379


	FINAL GENETIC ALGORITHM DOCKED STATE
	_______________________________________________


Detailed state:  trans 37.896 18.286 123.896 quatxyzw 0.474583 0.320486 0.816476 -0.073671 center 0.288 0.007 -0.056 ntor 10 -57.3071 179.5012 54.9203 -180.0000 142.8462 -170.6141 -29.9959 -81.5751 113.1114 -165.5917
State:	 37.896  18.286 123.896   0.476  0.321  0.819 -171.550    -57.31  179.50   54.92 -180.00  142.85 -170.61  -30.00  -81.58  113.11 -165.59

DOCKED: MODEL       52
DOCKED: USER    Run = 52
DOCKED: USER    DPF = ligand_dock.biased.dpf
DOCKED: USER  
DOCKED: USER    Estimated Free Energy of Binding    =  -11.79 kcal/mol  [=(1)+(2)+(3)-(4)]
DOCKED: USER    Estimated Inhibition Constant, Ki   =    2.30 nM (nanomolar)  [Temperature = 298.15 K]
DOCKED: USER    
DOCKED: USER    (1) Final Intermolecular Energy     =  -14.77 kcal/mol
DOCKED: USER        vdW + Hbond + desolv Energy     =  -14.77 kcal/mol
DOCKED: USER        Electrostatic Energy            =   +0.00 kcal/mol
DOCKED: USER    (2) Final Total Internal Energy     =   -1.61 kcal/mol
DOCKED: USER    (3) Torsional Free Energy           =   +2.98 kcal/mol
DOCKED: USER    (4) Unbound System's Energy  [=(2)] =   -1.61 kcal/mol
DOCKED: USER    
DOCKED: USER    
DOCKED: USER    NEWDPF move ligand.dum.pdbqt
DOCKED: USER    NEWDPF about 0.288000 0.007000 -0.056000
DOCKED: USER    NEWDPF tran0 37.896200 18.286458 123.896046
DOCKED: USER    NEWDPF quaternion0 0.474583 0.320486 0.816476 -0.073671
DOCKED: USER    NEWDPF axisangle0 0.475876 0.321359 0.818700 -171.550239
DOCKED: USER    NEWDPF quat0 0.475876 0.321359 0.818700 -171.550239
DOCKED: USER    NEWDPF dihe0 -57.31 179.50 54.92 -180.00 142.85 -170.61 -30.00 -81.58 113.11 -165.59 
DOCKED: USER  keepresnum = 1 
DOCKED: USER  
DOCKED: REMARK  Name = 
DOCKED: REMARK  10 active torsions:
DOCKED: REMARK  status: ('A' for Active; 'I' for Inactive)
DOCKED: REMARK    1  A    between atoms: C_2  and  C_5
DOCKED: REMARK    2  A    between atoms: C_6  and  C_7
DOCKED: REMARK    3  A    between atoms: C_10  and  C_11
DOCKED: REMARK    4  A    between atoms: C_11  and  N_12
DOCKED: REMARK    5  A    between atoms: N_12  and  C_13
DOCKED: REMARK    6  A    between atoms: N_12  and  C_16
DOCKED: REMARK    7  A    between atoms: C_13  and  C_14
DOCKED: REMARK    8  A    between atoms: C_14  and  O_15
DOCKED: REMARK    9  A    between atoms: C_16  and  C_17
DOCKED: REMARK   10  A    between atoms: C_17  and  C_18
DOCKED: REMARK                            x       y       z     vdW  Elec       q    Type
DOCKED: REMARK                         _______ _______ _______ _____ _____    ______ ____
DOCKED: USER                              x       y       z     vdW  Elec       q    Type
DOCKED: USER                           _______ _______ _______ _____ _____    ______ ____
DOCKED: ROOT
DOCKED: ATOM      1  N   UNL     1      38.541  17.974 122.769 -0.12 -0.00    +0.000 N 
DOCKED: ATOM      2  H   UNL     1      38.876  17.187 122.213 +0.00 -0.00    +0.000 HD
DOCKED: ENDROOT
DOCKED: BRANCH   1   3
DOCKED: ATOM      3  C   UNL     1      37.432  17.391 123.569 -0.24 -0.00    +0.000 C 
DOCKED: BRANCH   3   7
DOCKED: ATOM      4  C   UNL     1      37.096  13.068 123.333 -0.53 -0.00    +0.000 A 
DOCKED: ATOM      5  C   UNL     1      38.217  13.728 122.808 -0.41 -0.00    +0.000 A 
DOCKED: ATOM      6  C   UNL     1      38.327  15.119 122.886 -0.32 -0.00    +0.000 A 
DOCKED: ATOM      7  C   UNL     1      37.303  15.884 123.467 -0.29 -0.00    +0.000 A 
DOCKED: ATOM      8  C   UNL     1      36.186  15.225 124.005 -0.36 -0.00    +0.000 A 
DOCKED: ATOM      9  C   UNL     1      36.074  13.834 123.928 -0.45 -0.00    +0.000 A 
DOCKED: ATOM     10  CM  UNL     1      37.201  14.476 123.404 +0.00 -0.00    +0.000 AC
DOCKED: BRANCH   4  11
DOCKED: ATOM     11  C   UNL     1      37.068  10.932 122.047 -0.54 -0.00    +0.000 C 
DOCKED: ATOM     12  C   UNL     1      37.022  11.590 123.215 -0.66 -0.00    +0.000 C 
DOCKED: BRANCH  10  13
DOCKED: ATOM     13  O   UNL     1      37.002   8.872 120.855 -2.70 -0.00    +0.000 OA
DOCKED: ATOM     14  C   UNL     1      36.981   9.461 121.971 -0.64 -0.00    +0.000 C 
DOCKED: ATOM     15  N   UNL     1      36.868   8.694 123.172 -0.69 -0.00    +0.000 N 
DOCKED: ATOM     16  O   UNL     1      36.787   7.343 123.118 -2.21 -0.00    +0.000 OA
DOCKED: ATOM     17  H   UNL     1      36.851   9.150 124.044 -0.49 -0.00    +0.000 HD
DOCKED: ENDBRANCH  10  13
DOCKED: ENDBRANCH   4  11
DOCKED: ENDBRANCH   3   7
DOCKED: ENDBRANCH   1   3
DOCKED: BRANCH   1  17
DOCKED: ATOM     18  C   UNL     1      39.724  18.396 123.554 -0.18 -0.00    +0.000 C 
DOCKED: BRANCH  17  18
DOCKED: ATOM     19  C   UNL     1      41.009  17.747 123.031 -0.25 -0.00    +0.000 C 
DOCKED: BRANCH  18  19
DOCKED: ATOM     20  O   UNL     1      41.666  17.083 124.075 -0.83 -0.00    +0.000 OA
DOCKED: ATOM     21  H   UNL     1      42.535  17.489 124.220 -0.52 -0.00    +0.000 HD
DOCKED: ENDBRANCH  18  19
DOCKED: ENDBRANCH  17  18
DOCKED: ENDBRANCH   1  17
DOCKED: BRANCH   1  21
DOCKED: ATOM     22  C   UNL     1      38.095  19.003 121.801 -0.08 -0.00    +0.000 C 
DOCKED: BRANCH  21  22
DOCKED: ATOM     23  C   UNL     1      36.786  19.648 122.268 -0.15 -0.00    +0.000 C 
DOCKED: BRANCH  22  23
DOCKED: ATOM     24  C   UNL     1      35.599  18.916 121.713 -0.20 -0.00    +0.000 A 
DOCKED: ATOM     25  C   UNL     1      34.729  18.099 122.426 -0.28 -0.00    +0.000 A 
DOCKED: ATOM     26  N   UNL     1      33.696  17.711 121.644 -0.40 -0.00    +0.000 N 
DOCKED: ATOM     27  C   UNL     1      33.898  18.290 120.448 -0.30 -0.00    +0.000 A 
DOCKED: ATOM     28  C   UNL     1      35.048  19.037 120.451 -0.18 -0.00    +0.000 A 
DOCKED: ATOM     29  C   UNL     1      35.454  19.763 119.330 -0.13 -0.00    +0.000 A 
DOCKED: ATOM     30  C   UNL     1      34.643  19.705 118.182 -0.13 -0.00    +0.000 A 
DOCKED: ATOM     31  C   UNL     1      33.460  18.935 118.179 -0.18 -0.00    +0.000 A 
DOCKED: ATOM     32  C   UNL     1      33.074  18.217 119.325 -0.27 -0.00    +0.000 A 
DOCKED: ATOM     33  H   UNL     1      32.948  17.124 121.899 -0.04 -0.00    +0.000 HD
DOCKED: ATOM     34  CM  UNL     1      34.565  18.389 121.346 +0.00 -0.00    +0.000 AC
DOCKED: ATOM     35  CM  UNL     1      34.263  18.991 119.319 +0.00 -0.00    +0.000 AC
DOCKED: ENDBRANCH  22  23
DOCKED: ENDBRANCH  21  22
DOCKED: ENDBRANCH   1  21
DOCKED: TORSDOF 10DOCKED: TER
DOCKED: ENDMDL
________________________________________________________________________________


	BEGINNING GENETIC ALGORITHM DOCKING 53 of 100
Run: 53 Seed: 539893022 149337454 [ Run 53 of 100 GA/GALS ]
Beginning LAMARCKIAN GENETIC ALGORITHM (LGA), with a maximum of 2500000 energy evaluations.

Final-Value: -15.979


	FINAL GENETIC ALGORITHM DOCKED STATE
	_______________________________________________


Detailed state:  trans 38.721 16.454 120.585 quatxyzw -0.157807 -0.462637 -0.801213 0.345140 center 0.288 0.007 -0.056 ntor 10 -129.1474 -17.1208 17.3906 -97.5971 -166.1381 -150.3150 -21.4608 179.8157 121.8370 -158.2015
State:	 38.721  16.454 120.585  -0.168 -0.493 -0.854 139.619   -129.15  -17.12   17.39  -97.60 -166.14 -150.31  -21.46  179.82  121.84 -158.20

DOCKED: MODEL       53
DOCKED: USER    Run = 53
DOCKED: USER    DPF = ligand_dock.biased.dpf
DOCKED: USER  
DOCKED: USER    Estimated Free Energy of Binding    =  -10.63 kcal/mol  [=(1)+(2)+(3)-(4)]
DOCKED: USER    Estimated Inhibition Constant, Ki   =   16.25 nM (nanomolar)  [Temperature = 298.15 K]
DOCKED: USER    
DOCKED: USER    (1) Final Intermolecular Energy     =  -13.61 kcal/mol
DOCKED: USER        vdW + Hbond + desolv Energy     =  -13.61 kcal/mol
DOCKED: USER        Electrostatic Energy            =   +0.00 kcal/mol
DOCKED: USER    (2) Final Total Internal Energy     =   -2.37 kcal/mol
DOCKED: USER    (3) Torsional Free Energy           =   +2.98 kcal/mol
DOCKED: USER    (4) Unbound System's Energy  [=(2)] =   -2.37 kcal/mol
DOCKED: USER    
DOCKED: USER    
DOCKED: USER    NEWDPF move ligand.dum.pdbqt
DOCKED: USER    NEWDPF about 0.288000 0.007000 -0.056000
DOCKED: USER    NEWDPF tran0 38.721428 16.454289 120.584760
DOCKED: USER    NEWDPF quaternion0 -0.157807 -0.462637 -0.801213 0.345140
DOCKED: USER    NEWDPF axisangle0 -0.168139 -0.492927 -0.853670 139.619297
DOCKED: USER    NEWDPF quat0 -0.168139 -0.492927 -0.853670 139.619297
DOCKED: USER    NEWDPF dihe0 -129.15 -17.12 17.39 -97.60 -166.14 -150.31 -21.46 179.82 121.84 -158.20 
DOCKED: USER  keepresnum = 1 
DOCKED: USER  
DOCKED: REMARK  Name = 
DOCKED: REMARK  10 active torsions:
DOCKED: REMARK  status: ('A' for Active; 'I' for Inactive)
DOCKED: REMARK    1  A    between atoms: C_2  and  C_5
DOCKED: REMARK    2  A    between atoms: C_6  and  C_7
DOCKED: REMARK    3  A    between atoms: C_10  and  C_11
DOCKED: REMARK    4  A    between atoms: C_11  and  N_12
DOCKED: REMARK    5  A    between atoms: N_12  and  C_13
DOCKED: REMARK    6  A    between atoms: N_12  and  C_16
DOCKED: REMARK    7  A    between atoms: C_13  and  C_14
DOCKED: REMARK    8  A    between atoms: C_14  and  O_15
DOCKED: REMARK    9  A    between atoms: C_16  and  C_17
DOCKED: REMARK   10  A    between atoms: C_17  and  C_18
DOCKED: REMARK                            x       y       z     vdW  Elec       q    Type
DOCKED: REMARK                         _______ _______ _______ _____ _____    ______ ____
DOCKED: USER                              x       y       z     vdW  Elec       q    Type
DOCKED: USER                           _______ _______ _______ _____ _____    ______ ____
DOCKED: ROOT
DOCKED: ATOM      1  N   UNL     1      39.772  15.648 120.412 -0.19 -0.00    +0.000 N 
DOCKED: ATOM      2  H   UNL     1      40.128  14.717 120.627 -0.03 -0.00    +0.000 HD
DOCKED: ENDROOT
DOCKED: BRANCH   1   3
DOCKED: ATOM      3  C   UNL     1      38.297  15.487 120.498 -0.23 -0.00    +0.000 C 
DOCKED: BRANCH   3   7
DOCKED: ATOM      4  C   UNL     1      37.047  11.856 122.528 -0.54 -0.00    +0.000 A 
DOCKED: ATOM      5  C   UNL     1      37.298  11.854 121.147 -0.45 -0.00    +0.000 A 
DOCKED: ATOM      6  C   UNL     1      37.703  13.021 120.495 -0.43 -0.00    +0.000 A 
DOCKED: ATOM      7  C   UNL     1      37.838  14.225 121.204 -0.34 -0.00    +0.000 A 
DOCKED: ATOM      8  C   UNL     1      37.600  14.228 122.588 -0.42 -0.00    +0.000 A 
DOCKED: ATOM      9  C   UNL     1      37.196  13.061 123.243 -0.52 -0.00    +0.000 A 
DOCKED: ATOM     10  CM  UNL     1      37.447  13.040 121.867 +0.00 -0.00    +0.000 AC
DOCKED: BRANCH   4  11
DOCKED: ATOM     11  C   UNL     1      36.309   9.476 122.495 -0.71 -0.00    +0.000 C 
DOCKED: ATOM     12  C   UNL     1      36.609  10.593 123.172 -0.67 -0.00    +0.000 C 
DOCKED: BRANCH  10  13
DOCKED: ATOM     13  O   UNL     1      36.680   7.304 123.399 -2.17 -0.00    +0.000 OA
DOCKED: ATOM     14  C   UNL     1      35.866   8.241 123.172 -0.70 -0.00    +0.000 C 
DOCKED: ATOM     15  N   UNL     1      34.502   8.103 123.574 -0.62 -0.00    +0.000 N 
DOCKED: ATOM     16  O   UNL     1      34.079   6.977 124.196 -0.80 -0.00    +0.000 OA
DOCKED: ATOM     17  H   UNL     1      33.863   8.833 123.398 -0.45 -0.00    +0.000 HD
DOCKED: ENDBRANCH  10  13
DOCKED: ENDBRANCH   4  11
DOCKED: ENDBRANCH   3   7
DOCKED: ENDBRANCH   1   3
DOCKED: BRANCH   1  17
DOCKED: ATOM     18  C   UNL     1      40.368  16.516 121.454 -0.21 -0.00    +0.000 C 
DOCKED: BRANCH  17  18
DOCKED: ATOM     19  C   UNL     1      40.720  15.723 122.716 -0.42 -0.00    +0.000 C 
DOCKED: BRANCH  18  19
DOCKED: ATOM     20  O   UNL     1      41.208  14.458 122.363 -1.09 -0.00    +0.000 OA
DOCKED: ATOM     21  H   UNL     1      41.566  14.019 123.150 -0.09 -0.00    +0.000 HD
DOCKED: ENDBRANCH  18  19
DOCKED: ENDBRANCH  17  18
DOCKED: ENDBRANCH   1  17
DOCKED: BRANCH   1  21
DOCKED: ATOM     22  C   UNL     1      40.253  15.969 119.048 -0.15 -0.00    +0.000 C 
DOCKED: BRANCH  21  22
DOCKED: ATOM     23  C   UNL     1      39.233  16.842 118.310 -0.10 -0.00    +0.000 C 
DOCKED: BRANCH  22  23
DOCKED: ATOM     24  C   UNL     1      38.143  16.001 117.709 -0.12 -0.00    +0.000 A 
DOCKED: ATOM     25  C   UNL     1      36.775  16.190 117.870 -0.13 -0.00    +0.000 A 
DOCKED: ATOM     26  N   UNL     1      36.083  15.336 117.082 -0.19 -0.00    +0.000 N 
DOCKED: ATOM     27  C   UNL     1      37.004  14.620 116.413 -0.25 -0.00    +0.000 A 
DOCKED: ATOM     28  C   UNL     1      38.274  14.999 116.766 -0.20 -0.00    +0.000 A 
DOCKED: ATOM     29  C   UNL     1      39.401  14.422 116.180 -0.25 -0.00    +0.000 A 
DOCKED: ATOM     30  C   UNL     1      39.198  13.426 115.207 -0.41 -0.00    +0.000 A 
DOCKED: ATOM     31  C   UNL     1      37.891  13.036 114.844 -0.41 -0.00    +0.000 A 
DOCKED: ATOM     32  C   UNL     1      36.773  13.638 115.450 -0.31 -0.00    +0.000 A 
DOCKED: ATOM     33  H   UNL     1      35.105  15.254 117.011 -0.01 -0.00    +0.000 HD
DOCKED: ATOM     34  CM  UNL     1      37.218  15.427 117.165 +0.00 -0.00    +0.000 AC
DOCKED: ATOM     35  CM  UNL     1      38.090  14.024 115.811 +0.00 -0.00    +0.000 AC
DOCKED: ENDBRANCH  22  23
DOCKED: ENDBRANCH  21  22
DOCKED: ENDBRANCH   1  21
DOCKED: TORSDOF 10DOCKED: TER
DOCKED: ENDMDL
________________________________________________________________________________


	BEGINNING GENETIC ALGORITHM DOCKING 54 of 100
Run: 54 Seed: 850987160 756996652 [ Run 54 of 100 GA/GALS ]
Beginning LAMARCKIAN GENETIC ALGORITHM (LGA), with a maximum of 2500000 energy evaluations.

Final-Value: -15.261


	FINAL GENETIC ALGORITHM DOCKED STATE
	_______________________________________________


Detailed state:  trans 38.394 17.966 123.923 quatxyzw 0.590505 0.290671 0.748773 0.078440 center 0.288 0.007 -0.056 ntor 10 -34.0419 146.7721 -58.5895 -6.7750 152.7342 -128.0460 -5.4478 109.7322 169.5281 -173.8187
State:	 38.394  17.966 123.923   0.592  0.292  0.751 171.002    -34.04  146.77  -58.59   -6.77  152.73 -128.05   -5.45  109.73  169.53 -173.82

DOCKED: MODEL       54
DOCKED: USER    Run = 54
DOCKED: USER    DPF = ligand_dock.biased.dpf
DOCKED: USER  
DOCKED: USER    Estimated Free Energy of Binding    =  -10.62 kcal/mol  [=(1)+(2)+(3)-(4)]
DOCKED: USER    Estimated Inhibition Constant, Ki   =   16.56 nM (nanomolar)  [Temperature = 298.15 K]
DOCKED: USER    
DOCKED: USER    (1) Final Intermolecular Energy     =  -13.60 kcal/mol
DOCKED: USER        vdW + Hbond + desolv Energy     =  -13.60 kcal/mol
DOCKED: USER        Electrostatic Energy            =   +0.00 kcal/mol
DOCKED: USER    (2) Final Total Internal Energy     =   -1.66 kcal/mol
DOCKED: USER    (3) Torsional Free Energy           =   +2.98 kcal/mol
DOCKED: USER    (4) Unbound System's Energy  [=(2)] =   -1.66 kcal/mol
DOCKED: USER    
DOCKED: USER    
DOCKED: USER    NEWDPF move ligand.dum.pdbqt
DOCKED: USER    NEWDPF about 0.288000 0.007000 -0.056000
DOCKED: USER    NEWDPF tran0 38.393577 17.966101 123.922583
DOCKED: USER    NEWDPF quaternion0 0.590505 0.290671 0.748773 0.078440
DOCKED: USER    NEWDPF axisangle0 0.592330 0.291570 0.751088 171.002168
DOCKED: USER    NEWDPF quat0 0.592330 0.291570 0.751088 171.002168
DOCKED: USER    NEWDPF dihe0 -34.04 146.77 -58.59 -6.77 152.73 -128.05 -5.45 109.73 169.53 -173.82 
DOCKED: USER  keepresnum = 1 
DOCKED: USER  
DOCKED: REMARK  Name = 
DOCKED: REMARK  10 active torsions:
DOCKED: REMARK  status: ('A' for Active; 'I' for Inactive)
DOCKED: REMARK    1  A    between atoms: C_2  and  C_5
DOCKED: REMARK    2  A    between atoms: C_6  and  C_7
DOCKED: REMARK    3  A    between atoms: C_10  and  C_11
DOCKED: REMARK    4  A    between atoms: C_11  and  N_12
DOCKED: REMARK    5  A    between atoms: N_12  and  C_13
DOCKED: REMARK    6  A    between atoms: N_12  and  C_16
DOCKED: REMARK    7  A    between atoms: C_13  and  C_14
DOCKED: REMARK    8  A    between atoms: C_14  and  O_15
DOCKED: REMARK    9  A    between atoms: C_16  and  C_17
DOCKED: REMARK   10  A    between atoms: C_17  and  C_18
DOCKED: REMARK                            x       y       z     vdW  Elec       q    Type
DOCKED: REMARK                         _______ _______ _______ _____ _____    ______ ____
DOCKED: USER                              x       y       z     vdW  Elec       q    Type
DOCKED: USER                           _______ _______ _______ _____ _____    ______ ____
DOCKED: ROOT
DOCKED: ATOM      1  N   UNL     1      38.631  17.923 122.609 -0.12 -0.00    +0.000 N 
DOCKED: ATOM      2  H   UNL     1      38.829  17.286 121.838 +0.01 -0.00    +0.000 HD
DOCKED: ENDROOT
DOCKED: BRANCH   1   3
DOCKED: ATOM      3  C   UNL     1      37.940  17.062 123.605 -0.24 -0.00    +0.000 C 
DOCKED: BRANCH   3   7
DOCKED: ATOM      4  C   UNL     1      37.405  12.941 122.343 -0.48 -0.00    +0.000 A 
DOCKED: ATOM      5  C   UNL     1      36.580  13.499 123.331 -0.52 -0.00    +0.000 A 
DOCKED: ATOM      6  C   UNL     1      36.750  14.826 123.735 -0.35 -0.00    +0.000 A 
DOCKED: ATOM      7  C   UNL     1      37.769  15.617 123.180 -0.30 -0.00    +0.000 A 
DOCKED: ATOM      8  C   UNL     1      38.588  15.065 122.181 -0.33 -0.00    +0.000 A 
DOCKED: ATOM      9  C   UNL     1      38.418  13.738 121.775 -0.35 -0.00    +0.000 A 
DOCKED: ATOM     10  CM  UNL     1      37.584  14.281 122.758 +0.00 -0.00    +0.000 AC
DOCKED: BRANCH   4  11
DOCKED: ATOM     11  C   UNL     1      37.062  10.522 122.839 -0.59 -0.00    +0.000 C 
DOCKED: ATOM     12  C   UNL     1      37.191  11.524 121.957 -0.47 -0.00    +0.000 C 
DOCKED: BRANCH  10  13
DOCKED: ATOM     13  O   UNL     1      36.651   8.842 121.203 -2.57 -0.00    +0.000 OA
DOCKED: ATOM     14  C   UNL     1      36.860   9.123 122.415 -0.70 -0.00    +0.000 C 
DOCKED: ATOM     15  N   UNL     1      36.899   8.075 123.386 -0.73 -0.00    +0.000 N 
DOCKED: ATOM     16  O   UNL     1      36.716   6.786 123.012 -1.60 -0.00    +0.000 OA
DOCKED: ATOM     17  H   UNL     1      37.061   8.291 124.333 -0.42 -0.00    +0.000 HD
DOCKED: ENDBRANCH  10  13
DOCKED: ENDBRANCH   4  11
DOCKED: ENDBRANCH   3   7
DOCKED: ENDBRANCH   1   3
DOCKED: BRANCH   1  17
DOCKED: ATOM     18  C   UNL     1      39.964  18.416 123.027 -0.15 -0.00    +0.000 C 
DOCKED: BRANCH  17  18
DOCKED: ATOM     19  C   UNL     1      40.466  17.694 124.280 -0.29 -0.00    +0.000 C 
DOCKED: BRANCH  18  19
DOCKED: ATOM     20  O   UNL     1      41.436  18.473 124.922 -0.33 -0.00    +0.000 OA
DOCKED: ATOM     21  H   UNL     1      42.318  18.201 124.625 -0.59 -0.00    +0.000 HD
DOCKED: ENDBRANCH  18  19
DOCKED: ENDBRANCH  17  18
DOCKED: ENDBRANCH   1  17
DOCKED: BRANCH   1  21
DOCKED: ATOM     22  C   UNL     1      37.769  18.991 122.051 -0.10 -0.00    +0.000 C 
DOCKED: BRANCH  21  22
DOCKED: ATOM     23  C   UNL     1      37.711  20.188 123.006 -0.10 -0.00    +0.000 C 
DOCKED: BRANCH  22  23
DOCKED: ATOM     24  C   UNL     1      37.008  19.822 124.281 -0.12 -0.00    +0.000 A 
DOCKED: ATOM     25  C   UNL     1      37.239  20.375 125.536 -0.08 -0.00    +0.000 A 
DOCKED: ATOM     26  N   UNL     1      36.338  19.912 126.431 -0.11 -0.00    +0.000 N 
DOCKED: ATOM     27  C   UNL     1      35.529  19.082 125.749 -0.18 -0.00    +0.000 A 
DOCKED: ATOM     28  C   UNL     1      35.903  19.004 124.431 -0.19 -0.00    +0.000 A 
DOCKED: ATOM     29  C   UNL     1      35.194  18.230 123.512 -0.27 -0.00    +0.000 A 
DOCKED: ATOM     30  C   UNL     1      34.071  17.522 123.978 -0.37 -0.00    +0.000 A 
DOCKED: ATOM     31  C   UNL     1      33.687  17.602 125.334 -0.32 -0.00    +0.000 A 
DOCKED: ATOM     32  C   UNL     1      34.420  18.394 126.237 -0.26 -0.00    +0.000 A 
DOCKED: ATOM     33  H   UNL     1      36.284  20.135 127.388 +0.00 -0.00    +0.000 HD
DOCKED: ATOM     34  CM  UNL     1      36.401  19.648 125.322 -0.00 -0.00    +0.000 AC
DOCKED: ATOM     35  CM  UNL     1      34.801  18.306 124.874 -0.39 -0.00    +0.000 AC
DOCKED: ENDBRANCH  22  23
DOCKED: ENDBRANCH  21  22
DOCKED: ENDBRANCH   1  21
DOCKED: TORSDOF 10DOCKED: TER
DOCKED: ENDMDL
________________________________________________________________________________


	BEGINNING GENETIC ALGORITHM DOCKING 55 of 100
Run: 55 Seed: 1374416195 1258512513 [ Run 55 of 100 GA/GALS ]
Beginning LAMARCKIAN GENETIC ALGORITHM (LGA), with a maximum of 2500000 energy evaluations.

Final-Value: -16.875


	FINAL GENETIC ALGORITHM DOCKED STATE
	_______________________________________________


Detailed state:  trans 36.984 16.931 122.753 quatxyzw -0.618217 0.785384 -0.031280 0.001258 center 0.288 0.007 -0.056 ntor 10 -34.0355 -15.8504 -7.4125 -180.0000 125.1988 176.2615 177.1104 -67.2570 -12.9904 8.2839
State:	 36.984  16.931 122.753  -0.618  0.785 -0.031 179.856    -34.04  -15.85   -7.41 -180.00  125.20  176.26  177.11  -67.26  -12.99    8.28

DOCKED: MODEL       55
DOCKED: USER    Run = 55
DOCKED: USER    DPF = ligand_dock.biased.dpf
DOCKED: USER  
DOCKED: USER    Estimated Free Energy of Binding    =  -11.75 kcal/mol  [=(1)+(2)+(3)-(4)]
DOCKED: USER    Estimated Inhibition Constant, Ki   =    2.43 nM (nanomolar)  [Temperature = 298.15 K]
DOCKED: USER    
DOCKED: USER    (1) Final Intermolecular Energy     =  -14.74 kcal/mol
DOCKED: USER        vdW + Hbond + desolv Energy     =  -14.74 kcal/mol
DOCKED: USER        Electrostatic Energy            =   +0.00 kcal/mol
DOCKED: USER    (2) Final Total Internal Energy     =   -2.14 kcal/mol
DOCKED: USER    (3) Torsional Free Energy           =   +2.98 kcal/mol
DOCKED: USER    (4) Unbound System's Energy  [=(2)] =   -2.14 kcal/mol
DOCKED: USER    
DOCKED: USER    
DOCKED: USER    NEWDPF move ligand.dum.pdbqt
DOCKED: USER    NEWDPF about 0.288000 0.007000 -0.056000
DOCKED: USER    NEWDPF tran0 36.984410 16.930506 122.752630
DOCKED: USER    NEWDPF quaternion0 -0.618217 0.785384 -0.031280 0.001258
DOCKED: USER    NEWDPF axisangle0 -0.618218 0.785384 -0.031280 179.855876
DOCKED: USER    NEWDPF quat0 -0.618218 0.785384 -0.031280 179.855876
DOCKED: USER    NEWDPF dihe0 -34.04 -15.85 -7.41 -180.00 125.20 176.26 177.11 -67.26 -12.99 8.28 
DOCKED: USER  keepresnum = 1 
DOCKED: USER  
DOCKED: REMARK  Name = 
DOCKED: REMARK  10 active torsions:
DOCKED: REMARK  status: ('A' for Active; 'I' for Inactive)
DOCKED: REMARK    1  A    between atoms: C_2  and  C_5
DOCKED: REMARK    2  A    between atoms: C_6  and  C_7
DOCKED: REMARK    3  A    between atoms: C_10  and  C_11
DOCKED: REMARK    4  A    between atoms: C_11  and  N_12
DOCKED: REMARK    5  A    between atoms: N_12  and  C_13
DOCKED: REMARK    6  A    between atoms: N_12  and  C_16
DOCKED: REMARK    7  A    between atoms: C_13  and  C_14
DOCKED: REMARK    8  A    between atoms: C_14  and  O_15
DOCKED: REMARK    9  A    between atoms: C_16  and  C_17
DOCKED: REMARK   10  A    between atoms: C_17  and  C_18
DOCKED: REMARK                            x       y       z     vdW  Elec       q    Type
DOCKED: REMARK                         _______ _______ _______ _____ _____    ______ ____
DOCKED: USER                              x       y       z     vdW  Elec       q    Type
DOCKED: USER                           _______ _______ _______ _____ _____    ______ ____
DOCKED: ROOT
DOCKED: ATOM      1  N   UNL     1      37.587  18.121 122.713 -0.12 -0.00    +0.000 N 
DOCKED: ATOM      2  H   UNL     1      37.455  19.109 122.932 +0.00 -0.00    +0.000 HD
DOCKED: ENDROOT
DOCKED: BRANCH   1   3
DOCKED: ATOM      3  C   UNL     1      36.628  17.432 123.616 -0.26 -0.00    +0.000 C 
DOCKED: BRANCH   3   7
DOCKED: ATOM      4  C   UNL     1      36.734  13.094 123.433 -0.55 -0.00    +0.000 A 
DOCKED: ATOM      5  C   UNL     1      37.857  13.853 123.071 -0.46 -0.00    +0.000 A 
DOCKED: ATOM      6  C   UNL     1      37.824  15.248 123.132 -0.33 -0.00    +0.000 A 
DOCKED: ATOM      7  C   UNL     1      36.657  15.918 123.531 -0.32 -0.00    +0.000 A 
DOCKED: ATOM      8  C   UNL     1      35.535  15.161 123.907 -0.47 -0.00    +0.000 A 
DOCKED: ATOM      9  C   UNL     1      35.566  13.765 123.847 -0.45 -0.00    +0.000 A 
DOCKED: ATOM     10  CM  UNL     1      36.696  14.506 123.487 +0.00 -0.00    +0.000 AC
DOCKED: BRANCH   4  11
DOCKED: ATOM     11  C   UNL     1      36.762  10.937 122.185 -0.62 -0.00    +0.000 C 
DOCKED: ATOM     12  C   UNL     1      36.816  11.615 123.340 -0.69 -0.00    +0.000 C 
DOCKED: BRANCH  10  13
DOCKED: ATOM     13  O   UNL     1      36.759   8.852 121.034 -2.63 -0.00    +0.000 OA
DOCKED: ATOM     14  C   UNL     1      36.837   9.463 122.135 -0.67 -0.00    +0.000 C 
DOCKED: ATOM     15  N   UNL     1      36.997   8.720 123.345 -0.65 -0.00    +0.000 N 
DOCKED: ATOM     16  O   UNL     1      37.067   7.368 123.316 -2.40 -0.00    +0.000 OA
DOCKED: ATOM     17  H   UNL     1      37.058   9.194 124.206 -0.58 -0.00    +0.000 HD
DOCKED: ENDBRANCH  10  13
DOCKED: ENDBRANCH   4  11
DOCKED: ENDBRANCH   3   7
DOCKED: ENDBRANCH   1   3
DOCKED: BRANCH   1  17
DOCKED: ATOM     18  C   UNL     1      37.270  18.022 121.270 -0.12 -0.00    +0.000 C 
DOCKED: BRANCH  17  18
DOCKED: ATOM     19  C   UNL     1      35.936  18.695 120.937 -0.20 -0.00    +0.000 C 
DOCKED: BRANCH  18  19
DOCKED: ATOM     20  O   UNL     1      35.799  19.874 121.682 -0.69 -0.00    +0.000 OA
DOCKED: ATOM     21  H   UNL     1      35.302  19.686 122.494 -0.02 -0.00    +0.000 HD
DOCKED: ENDBRANCH  18  19
DOCKED: ENDBRANCH  17  18
DOCKED: ENDBRANCH   1  17
DOCKED: BRANCH   1  21
DOCKED: ATOM     22  C   UNL     1      39.006  17.819 123.015 -0.18 -0.00    +0.000 C 
DOCKED: BRANCH  21  22
DOCKED: ATOM     23  C   UNL     1      39.642  18.965 123.810 -0.14 -0.00    +0.000 C 
DOCKED: BRANCH  22  23
DOCKED: ATOM     24  C   UNL     1      40.050  18.505 125.180 -0.24 -0.00    +0.000 A 
DOCKED: ATOM     25  C   UNL     1      41.311  18.056 125.555 -0.18 -0.00    +0.000 A 
DOCKED: ATOM     26  N   UNL     1      41.363  17.852 126.891 -0.44 -0.00    +0.000 N 
DOCKED: ATOM     27  C   UNL     1      40.150  18.185 127.364 -0.31 -0.00    +0.000 A 
DOCKED: ATOM     28  C   UNL     1      39.320  18.592 126.351 -0.20 -0.00    +0.000 A 
DOCKED: ATOM     29  C   UNL     1      38.015  19.022 126.598 -0.14 -0.00    +0.000 A 
DOCKED: ATOM     30  C   UNL     1      37.567  19.023 127.931 -0.13 -0.00    +0.000 A 
DOCKED: ATOM     31  C   UNL     1      38.420  18.603 128.975 -0.18 -0.00    +0.000 A 
DOCKED: ATOM     32  C   UNL     1      39.732  18.179 128.695 -0.29 -0.00    +0.000 A 
DOCKED: ATOM     33  H   UNL     1      42.132  17.526 127.411 -0.08 -0.00    +0.000 HD
DOCKED: ATOM     34  CM  UNL     1      40.469  18.226 126.288 +0.00 -0.00    +0.000 AC
DOCKED: ATOM     35  CM  UNL     1      38.868  18.600 127.652 +0.00 -0.00    +0.000 AC
DOCKED: ENDBRANCH  22  23
DOCKED: ENDBRANCH  21  22
DOCKED: ENDBRANCH   1  21
DOCKED: TORSDOF 10DOCKED: TER
DOCKED: ENDMDL
________________________________________________________________________________


	BEGINNING GENETIC ALGORITHM DOCKING 56 of 100
Run: 56 Seed: 1181001204 289325261 [ Run 56 of 100 GA/GALS ]
Beginning LAMARCKIAN GENETIC ALGORITHM (LGA), with a maximum of 2500000 energy evaluations.

Final-Value: -17.427


	FINAL GENETIC ALGORITHM DOCKED STATE
	_______________________________________________


Detailed state:  trans 37.023 18.388 121.338 quatxyzw 0.783199 -0.057685 -0.457933 0.416616 center 0.288 0.007 -0.056 ntor 10 154.2561 -15.7948 4.9370 173.7053 179.5155 167.8070 -179.9840 73.8546 20.6277 179.5526
State:	 37.023  18.388 121.338   0.862 -0.063 -0.504 130.758    154.26  -15.79    4.94  173.71  179.52  167.81 -179.98   73.85   20.63  179.55

DOCKED: MODEL       56
DOCKED: USER    Run = 56
DOCKED: USER    DPF = ligand_dock.biased.dpf
DOCKED: USER  
DOCKED: USER    Estimated Free Energy of Binding    =  -11.63 kcal/mol  [=(1)+(2)+(3)-(4)]
DOCKED: USER    Estimated Inhibition Constant, Ki   =    3.00 nM (nanomolar)  [Temperature = 298.15 K]
DOCKED: USER    
DOCKED: USER    (1) Final Intermolecular Energy     =  -14.61 kcal/mol
DOCKED: USER        vdW + Hbond + desolv Energy     =  -14.61 kcal/mol
DOCKED: USER        Electrostatic Energy            =   +0.00 kcal/mol
DOCKED: USER    (2) Final Total Internal Energy     =   -2.82 kcal/mol
DOCKED: USER    (3) Torsional Free Energy           =   +2.98 kcal/mol
DOCKED: USER    (4) Unbound System's Energy  [=(2)] =   -2.82 kcal/mol
DOCKED: USER    
DOCKED: USER    
DOCKED: USER    NEWDPF move ligand.dum.pdbqt
DOCKED: USER    NEWDPF about 0.288000 0.007000 -0.056000
DOCKED: USER    NEWDPF tran0 37.022819 18.387933 121.337926
DOCKED: USER    NEWDPF quaternion0 0.783199 -0.057685 -0.457933 0.416616
DOCKED: USER    NEWDPF axisangle0 0.861527 -0.063454 -0.503731 130.757797
DOCKED: USER    NEWDPF quat0 0.861527 -0.063454 -0.503731 130.757797
DOCKED: USER    NEWDPF dihe0 154.26 -15.79 4.94 173.71 179.52 167.81 -179.98 73.85 20.63 179.55 
DOCKED: USER  keepresnum = 1 
DOCKED: USER  
DOCKED: REMARK  Name = 
DOCKED: REMARK  10 active torsions:
DOCKED: REMARK  status: ('A' for Active; 'I' for Inactive)
DOCKED: REMARK    1  A    between atoms: C_2  and  C_5
DOCKED: REMARK    2  A    between atoms: C_6  and  C_7
DOCKED: REMARK    3  A    between atoms: C_10  and  C_11
DOCKED: REMARK    4  A    between atoms: C_11  and  N_12
DOCKED: REMARK    5  A    between atoms: N_12  and  C_13
DOCKED: REMARK    6  A    between atoms: N_12  and  C_16
DOCKED: REMARK    7  A    between atoms: C_13  and  C_14
DOCKED: REMARK    8  A    between atoms: C_14  and  O_15
DOCKED: REMARK    9  A    between atoms: C_16  and  C_17
DOCKED: REMARK   10  A    between atoms: C_17  and  C_18
DOCKED: REMARK                            x       y       z     vdW  Elec       q    Type
DOCKED: REMARK                         _______ _______ _______ _____ _____    ______ ____
DOCKED: USER                              x       y       z     vdW  Elec       q    Type
DOCKED: USER                           _______ _______ _______ _____ _____    ______ ____
DOCKED: ROOT
DOCKED: ATOM      1  N   UNL     1      36.420  18.207 122.516 -0.17 -0.00    +0.000 N 
DOCKED: ATOM      2  H   UNL     1      35.911  17.522 123.074 +0.00 -0.00    +0.000 HD
DOCKED: ENDROOT
DOCKED: BRANCH   1   3
DOCKED: ATOM      3  C   UNL     1      37.215  17.373 121.577 -0.15 -0.00    +0.000 C 
DOCKED: BRANCH   3   7
DOCKED: ATOM      4  C   UNL     1      37.076  13.104 122.359 -0.48 -0.00    +0.000 A 
DOCKED: ATOM      5  C   UNL     1      37.584  13.592 121.146 -0.39 -0.00    +0.000 A 
DOCKED: ATOM      6  C   UNL     1      37.631  14.966 120.895 -0.25 -0.00    +0.000 A 
DOCKED: ATOM      7  C   UNL     1      37.145  15.882 121.841 -0.22 -0.00    +0.000 A 
DOCKED: ATOM      8  C   UNL     1      36.648  15.396 123.062 -0.35 -0.00    +0.000 A 
DOCKED: ATOM      9  C   UNL     1      36.600  14.022 123.315 -0.47 -0.00    +0.000 A 
DOCKED: ATOM     10  CM  UNL     1      37.114  14.493 122.103 +0.00 -0.00    +0.000 AC
DOCKED: BRANCH   4  11
DOCKED: ATOM     11  C   UNL     1      37.061  10.736 121.578 -0.49 -0.00    +0.000 C 
DOCKED: ATOM     12  C   UNL     1      37.037  11.635 122.573 -0.61 -0.00    +0.000 C 
DOCKED: BRANCH  10  13
DOCKED: ATOM     13  O   UNL     1      36.892   8.467 120.877 -2.30 -0.00    +0.000 OA
DOCKED: ATOM     14  C   UNL     1      37.010   9.283 121.832 -0.65 -0.00    +0.000 C 
DOCKED: ATOM     15  N   UNL     1      37.094   8.794 123.172 -0.67 -0.00    +0.000 N 
DOCKED: ATOM     16  O   UNL     1      37.048   7.463 123.421 -2.49 -0.00    +0.000 OA
DOCKED: ATOM     17  H   UNL     1      37.186   9.428 123.920 -0.50 -0.00    +0.000 HD
DOCKED: ENDBRANCH  10  13
DOCKED: ENDBRANCH   4  11
DOCKED: ENDBRANCH   3   7
DOCKED: ENDBRANCH   1   3
DOCKED: BRANCH   1  17
DOCKED: ATOM     18  C   UNL     1      35.359  19.024 121.883 -0.16 -0.00    +0.000 C 
DOCKED: BRANCH  17  18
DOCKED: ATOM     19  C   UNL     1      34.152  18.169 121.484 -0.32 -0.00    +0.000 C 
DOCKED: BRANCH  18  19
DOCKED: ATOM     20  O   UNL     1      33.905  17.205 122.469 -0.47 -0.00    +0.000 OA
DOCKED: ATOM     21  H   UNL     1      33.244  17.543 123.093 -0.02 -0.00    +0.000 HD
DOCKED: ENDBRANCH  18  19
DOCKED: ENDBRANCH  17  18
DOCKED: ENDBRANCH   1  17
DOCKED: BRANCH   1  21
DOCKED: ATOM     22  C   UNL     1      37.251  18.979 123.469 -0.15 -0.00    +0.000 C 
DOCKED: BRANCH  21  22
DOCKED: ATOM     23  C   UNL     1      37.968  18.037 124.442 -0.19 -0.00    +0.000 C 
DOCKED: BRANCH  22  23
DOCKED: ATOM     24  C   UNL     1      39.458  18.168 124.316 -0.20 -0.00    +0.000 A 
DOCKED: ATOM     25  C   UNL     1      40.261  19.091 124.976 -0.18 -0.00    +0.000 A 
DOCKED: ATOM     26  N   UNL     1      41.568  18.840 124.734 -0.22 -0.00    +0.000 N 
DOCKED: ATOM     27  C   UNL     1      41.597  17.756 123.939 -0.29 -0.00    +0.000 A 
DOCKED: ATOM     28  C   UNL     1      40.328  17.314 123.664 -0.24 -0.00    +0.000 A 
DOCKED: ATOM     29  C   UNL     1      40.100  16.179 122.884 -0.25 -0.00    +0.000 A 
DOCKED: ATOM     30  C   UNL     1      41.220  15.494 122.379 -0.43 -0.00    +0.000 A 
DOCKED: ATOM     31  C   UNL     1      42.526  15.949 122.662 -0.42 -0.00    +0.000 A 
DOCKED: ATOM     32  C   UNL     1      42.725  17.094 123.455 -0.30 -0.00    +0.000 A 
DOCKED: ATOM     33  H   UNL     1      42.342  19.347 125.071 -0.56 -0.00    +0.000 HD
DOCKED: ATOM     34  CM  UNL     1      40.672  18.253 124.339 +0.00 -0.00    +0.000 AC
DOCKED: ATOM     35  CM  UNL     1      41.416  16.632 123.164 +0.00 -0.00    +0.000 AC
DOCKED: ENDBRANCH  22  23
DOCKED: ENDBRANCH  21  22
DOCKED: ENDBRANCH   1  21
DOCKED: TORSDOF 10DOCKED: TER
DOCKED: ENDMDL
________________________________________________________________________________


	BEGINNING GENETIC ALGORITHM DOCKING 57 of 100
Run: 57 Seed: 1091334570 868302704 [ Run 57 of 100 GA/GALS ]
Beginning LAMARCKIAN GENETIC ALGORITHM (LGA), with a maximum of 2500000 energy evaluations.

Final-Value: -16.074


	FINAL GENETIC ALGORITHM DOCKED STATE
	_______________________________________________


Detailed state:  trans 37.384 16.022 122.332 quatxyzw 0.348301 -0.168292 0.919875 0.064758 center 0.288 0.007 -0.056 ntor 10 112.6513 111.7839 15.3631 -52.4971 148.4638 155.9888 166.0875 -180.0000 96.8324 -70.6617
State:	 37.384  16.022 122.332   0.349 -0.169  0.922 172.574    112.65  111.78   15.36  -52.50  148.46  155.99  166.09 -180.00   96.83  -70.66

DOCKED: MODEL       57
DOCKED: USER    Run = 57
DOCKED: USER    DPF = ligand_dock.biased.dpf
DOCKED: USER  
DOCKED: USER    Estimated Free Energy of Binding    =  -11.19 kcal/mol  [=(1)+(2)+(3)-(4)]
DOCKED: USER    Estimated Inhibition Constant, Ki   =    6.31 nM (nanomolar)  [Temperature = 298.15 K]
DOCKED: USER    
DOCKED: USER    (1) Final Intermolecular Energy     =  -14.17 kcal/mol
DOCKED: USER        vdW + Hbond + desolv Energy     =  -14.17 kcal/mol
DOCKED: USER        Electrostatic Energy            =   +0.00 kcal/mol
DOCKED: USER    (2) Final Total Internal Energy     =   -1.90 kcal/mol
DOCKED: USER    (3) Torsional Free Energy           =   +2.98 kcal/mol
DOCKED: USER    (4) Unbound System's Energy  [=(2)] =   -1.90 kcal/mol
DOCKED: USER    
DOCKED: USER    
DOCKED: USER    NEWDPF move ligand.dum.pdbqt
DOCKED: USER    NEWDPF about 0.288000 0.007000 -0.056000
DOCKED: USER    NEWDPF tran0 37.384126 16.021994 122.331759
DOCKED: USER    NEWDPF quaternion0 0.348301 -0.168292 0.919875 0.064758
DOCKED: USER    NEWDPF axisangle0 0.349033 -0.168646 0.921810 172.574037
DOCKED: USER    NEWDPF quat0 0.349033 -0.168646 0.921810 172.574037
DOCKED: USER    NEWDPF dihe0 112.65 111.78 15.36 -52.50 148.46 155.99 166.09 -180.00 96.83 -70.66 
DOCKED: USER  keepresnum = 1 
DOCKED: USER  
DOCKED: REMARK  Name = 
DOCKED: REMARK  10 active torsions:
DOCKED: REMARK  status: ('A' for Active; 'I' for Inactive)
DOCKED: REMARK    1  A    between atoms: C_2  and  C_5
DOCKED: REMARK    2  A    between atoms: C_6  and  C_7
DOCKED: REMARK    3  A    between atoms: C_10  and  C_11
DOCKED: REMARK    4  A    between atoms: C_11  and  N_12
DOCKED: REMARK    5  A    between atoms: N_12  and  C_13
DOCKED: REMARK    6  A    between atoms: N_12  and  C_16
DOCKED: REMARK    7  A    between atoms: C_13  and  C_14
DOCKED: REMARK    8  A    between atoms: C_14  and  O_15
DOCKED: REMARK    9  A    between atoms: C_16  and  C_17
DOCKED: REMARK   10  A    between atoms: C_17  and  C_18
DOCKED: REMARK                            x       y       z     vdW  Elec       q    Type
DOCKED: REMARK                         _______ _______ _______ _____ _____    ______ ____
DOCKED: USER                              x       y       z     vdW  Elec       q    Type
DOCKED: USER                           _______ _______ _______ _____ _____    ______ ____
DOCKED: ROOT
DOCKED: ATOM      1  N   UNL     1      38.358  16.614 121.636 -0.15 -0.00    +0.000 N 
DOCKED: ATOM      2  H   UNL     1      38.866  16.578 120.752 +0.01 -0.00    +0.000 HD
DOCKED: ENDROOT
DOCKED: BRANCH   1   3
DOCKED: ATOM      3  C   UNL     1      37.064  15.952 121.324 -0.23 -0.00    +0.000 C 
DOCKED: BRANCH   3   7
DOCKED: ATOM      4  C   UNL     1      36.772  11.886 122.822 -0.58 -0.00    +0.000 A 
DOCKED: ATOM      5  C   UNL     1      37.326  12.145 121.559 -0.45 -0.00    +0.000 A 
DOCKED: ATOM      6  C   UNL     1      37.422  13.454 121.078 -0.40 -0.00    +0.000 A 
DOCKED: ATOM      7  C   UNL     1      36.941  14.531 121.838 -0.27 -0.00    +0.000 A 
DOCKED: ATOM      8  C   UNL     1      36.398  14.277 123.108 -0.44 -0.00    +0.000 A 
DOCKED: ATOM      9  C   UNL     1      36.301  12.968 123.591 -0.56 -0.00    +0.000 A 
DOCKED: ATOM     10  CM  UNL     1      36.860  13.210 122.332 +0.00 -0.00    +0.000 AC
DOCKED: BRANCH   4  11
DOCKED: ATOM     11  C   UNL     1      36.121   9.494 122.565 -0.70 -0.00    +0.000 C 
DOCKED: ATOM     12  C   UNL     1      36.681  10.478 123.282 -0.62 -0.00    +0.000 C 
DOCKED: BRANCH  10  13
DOCKED: ATOM     13  O   UNL     1      37.077   7.503 123.456 -2.54 -0.00    +0.000 OA
DOCKED: ATOM     14  C   UNL     1      36.041   8.106 123.063 -0.76 -0.00    +0.000 C 
DOCKED: ATOM     15  N   UNL     1      34.778   7.438 123.099 -0.65 -0.00    +0.000 N 
DOCKED: ATOM     16  O   UNL     1      34.688   6.165 123.553 -0.85 -0.00    +0.000 OA
DOCKED: ATOM     17  H   UNL     1      33.967   7.906 122.793 -0.02 -0.00    +0.000 HD
DOCKED: ENDBRANCH  10  13
DOCKED: ENDBRANCH   4  11
DOCKED: ENDBRANCH   3   7
DOCKED: ENDBRANCH   1   3
DOCKED: BRANCH   1  17
DOCKED: ATOM     18  C   UNL     1      39.224  15.878 122.586 -0.31 -0.00    +0.000 C 
DOCKED: BRANCH  17  18
DOCKED: ATOM     19  C   UNL     1      40.094  14.842 121.869 -0.40 -0.00    +0.000 C 
DOCKED: BRANCH  18  19
DOCKED: ATOM     20  O   UNL     1      41.100  14.387 122.731 -1.09 +0.00    +0.000 OA
DOCKED: ATOM     21  H   UNL     1      40.702  14.090 123.564 -0.06 -0.00    +0.000 HD
DOCKED: ENDBRANCH  18  19
DOCKED: ENDBRANCH  17  18
DOCKED: ENDBRANCH   1  17
DOCKED: BRANCH   1  21
DOCKED: ATOM     22  C   UNL     1      38.221  18.051 121.974 -0.10 -0.00    +0.000 C 
DOCKED: BRANCH  21  22
DOCKED: ATOM     23  C   UNL     1      36.744  18.426 122.130 -0.16 -0.00    +0.000 C 
DOCKED: BRANCH  22  23
DOCKED: ATOM     24  C   UNL     1      36.384  18.596 123.578 -0.18 -0.00    +0.000 A 
DOCKED: ATOM     25  C   UNL     1      36.729  19.671 124.391 -0.14 -0.00    +0.000 A 
DOCKED: ATOM     26  N   UNL     1      36.128  19.563 125.598 -0.15 -0.00    +0.000 N 
DOCKED: ATOM     27  C   UNL     1      35.394  18.438 125.548 -0.23 -0.00    +0.000 A 
DOCKED: ATOM     28  C   UNL     1      35.521  17.821 124.330 -0.27 -0.00    +0.000 A 
DOCKED: ATOM     29  C   UNL     1      34.826  16.649 124.024 -0.42 -0.00    +0.000 A 
DOCKED: ATOM     30  C   UNL     1      33.982  16.111 125.013 -0.38 -0.00    +0.000 A 
DOCKED: ATOM     31  C   UNL     1      33.852  16.746 126.267 -0.35 -0.00    +0.000 A 
DOCKED: ATOM     32  C   UNL     1      34.562  17.927 126.545 -0.24 -0.00    +0.000 A 
DOCKED: ATOM     33  H   UNL     1      36.210  20.182 126.358 +0.00 -0.00    +0.000 HD
DOCKED: ATOM     34  CM  UNL     1      36.034  18.842 124.718 -0.09 -0.00    +0.000 AC
DOCKED: ATOM     35  CM  UNL     1      34.690  17.282 125.288 -0.38 -0.00    +0.000 AC
DOCKED: ENDBRANCH  22  23
DOCKED: ENDBRANCH  21  22
DOCKED: ENDBRANCH   1  21
DOCKED: TORSDOF 10DOCKED: TER
DOCKED: ENDMDL
________________________________________________________________________________


	BEGINNING GENETIC ALGORITHM DOCKING 58 of 100
Run: 58 Seed: 2073553142 284030057 [ Run 58 of 100 GA/GALS ]
Beginning LAMARCKIAN GENETIC ALGORITHM (LGA), with a maximum of 2500000 energy evaluations.

Final-Value: -16.364


	FINAL GENETIC ALGORITHM DOCKED STATE
	_______________________________________________


Detailed state:  trans 38.208 17.005 120.607 quatxyzw -0.954772 -0.141034 0.036518 -0.259203 center 0.288 0.007 -0.056 ntor 10 -96.4164 -8.4136 -7.9536 -56.5720 -22.8547 0.6962 157.7599 173.5388 -52.2927 -180.0000
State:	 38.208  17.005 120.607  -0.989 -0.146  0.038 -149.954    -96.42   -8.41   -7.95  -56.57  -22.85    0.70  157.76  173.54  -52.29 -180.00

DOCKED: MODEL       58
DOCKED: USER    Run = 58
DOCKED: USER    DPF = ligand_dock.biased.dpf
DOCKED: USER  
DOCKED: USER    Estimated Free Energy of Binding    =  -10.69 kcal/mol  [=(1)+(2)+(3)-(4)]
DOCKED: USER    Estimated Inhibition Constant, Ki   =   14.63 nM (nanomolar)  [Temperature = 298.15 K]
DOCKED: USER    
DOCKED: USER    (1) Final Intermolecular Energy     =  -13.67 kcal/mol
DOCKED: USER        vdW + Hbond + desolv Energy     =  -13.67 kcal/mol
DOCKED: USER        Electrostatic Energy            =   +0.00 kcal/mol
DOCKED: USER    (2) Final Total Internal Energy     =   -2.69 kcal/mol
DOCKED: USER    (3) Torsional Free Energy           =   +2.98 kcal/mol
DOCKED: USER    (4) Unbound System's Energy  [=(2)] =   -2.69 kcal/mol
DOCKED: USER    
DOCKED: USER    
DOCKED: USER    NEWDPF move ligand.dum.pdbqt
DOCKED: USER    NEWDPF about 0.288000 0.007000 -0.056000
DOCKED: USER    NEWDPF tran0 38.207508 17.004768 120.606773
DOCKED: USER    NEWDPF quaternion0 -0.954772 -0.141034 0.036518 -0.259203
DOCKED: USER    NEWDPF axisangle0 -0.988558 -0.146025 0.037810 -149.954398
DOCKED: USER    NEWDPF quat0 -0.988558 -0.146025 0.037810 -149.954398
DOCKED: USER    NEWDPF dihe0 -96.42 -8.41 -7.95 -56.57 -22.85 0.70 157.76 173.54 -52.29 -180.00 
DOCKED: USER  keepresnum = 1 
DOCKED: USER  
DOCKED: REMARK  Name = 
DOCKED: REMARK  10 active torsions:
DOCKED: REMARK  status: ('A' for Active; 'I' for Inactive)
DOCKED: REMARK    1  A    between atoms: C_2  and  C_5
DOCKED: REMARK    2  A    between atoms: C_6  and  C_7
DOCKED: REMARK    3  A    between atoms: C_10  and  C_11
DOCKED: REMARK    4  A    between atoms: C_11  and  N_12
DOCKED: REMARK    5  A    between atoms: N_12  and  C_13
DOCKED: REMARK    6  A    between atoms: N_12  and  C_16
DOCKED: REMARK    7  A    between atoms: C_13  and  C_14
DOCKED: REMARK    8  A    between atoms: C_14  and  O_15
DOCKED: REMARK    9  A    between atoms: C_16  and  C_17
DOCKED: REMARK   10  A    between atoms: C_17  and  C_18
DOCKED: REMARK                            x       y       z     vdW  Elec       q    Type
DOCKED: REMARK                         _______ _______ _______ _____ _____    ______ ____
DOCKED: USER                              x       y       z     vdW  Elec       q    Type
DOCKED: USER                           _______ _______ _______ _____ _____    ______ ____
DOCKED: ROOT
DOCKED: ATOM      1  N   UNL     1      36.886  16.882 120.756 -0.15 -0.00    +0.000 N 
DOCKED: ATOM      2  H   UNL     1      36.132  16.198 120.812 -0.01 -0.00    +0.000 HD
DOCKED: ENDROOT
DOCKED: BRANCH   1   3
DOCKED: ATOM      3  C   UNL     1      38.089  16.114 121.169 -0.20 -0.00    +0.000 C 
DOCKED: BRANCH   3   7
DOCKED: ATOM      4  C   UNL     1      37.208  12.094 122.555 -0.49 -0.00    +0.000 A 
DOCKED: ATOM      5  C   UNL     1      37.316  13.156 123.465 -0.49 -0.00    +0.000 A 
DOCKED: ATOM      6  C   UNL     1      37.597  14.450 123.019 -0.42 -0.00    +0.000 A 
DOCKED: ATOM      7  C   UNL     1      37.804  14.706 121.654 -0.32 -0.00    +0.000 A 
DOCKED: ATOM      8  C   UNL     1      37.683  13.647 120.739 -0.38 -0.00    +0.000 A 
DOCKED: ATOM      9  C   UNL     1      37.402  12.351 121.184 -0.47 -0.00    +0.000 A 
DOCKED: ATOM     10  CM  UNL     1      37.501  13.400 122.103 +0.00 -0.00    +0.000 AC
DOCKED: BRANCH   4  11
DOCKED: ATOM     11  C   UNL     1      36.035   9.894 122.525 -0.68 -0.00    +0.000 C 
DOCKED: ATOM     12  C   UNL     1      36.919  10.735 123.080 -0.64 -0.00    +0.000 C 
DOCKED: BRANCH  10  13
DOCKED: ATOM     13  O   UNL     1      36.702   7.716 123.221 -2.38 -0.00    +0.000 OA
DOCKED: ATOM     14  C   UNL     1      35.769   8.554 123.084 -0.71 -0.00    +0.000 C 
DOCKED: ATOM     15  N   UNL     1      34.440   8.199 123.472 -0.63 -0.00    +0.000 N 
DOCKED: ATOM     16  O   UNL     1      34.178   6.974 123.986 -0.80 -0.00    +0.000 OA
DOCKED: ATOM     17  H   UNL     1      33.708   8.851 123.366 -0.50 -0.00    +0.000 HD
DOCKED: ENDBRANCH  10  13
DOCKED: ENDBRANCH   4  11
DOCKED: ENDBRANCH   3   7
DOCKED: ENDBRANCH   1   3
DOCKED: BRANCH   1  17
DOCKED: ATOM     18  C   UNL     1      36.878  17.318 119.340 -0.12 -0.00    +0.000 C 
DOCKED: BRANCH  17  18
DOCKED: ATOM     19  C   UNL     1      36.885  16.124 118.382 -0.16 -0.00    +0.000 C 
DOCKED: BRANCH  18  19
DOCKED: ATOM     20  O   UNL     1      35.940  15.177 118.795 -0.22 -0.00    +0.000 OA
DOCKED: ATOM     21  H   UNL     1      36.182  14.305 118.446 -0.02 -0.00    +0.000 HD
DOCKED: ENDBRANCH  18  19
DOCKED: ENDBRANCH  17  18
DOCKED: ENDBRANCH   1  17
DOCKED: BRANCH   1  21
DOCKED: ATOM     22  C   UNL     1      36.526  17.969 121.697 -0.18 -0.00    +0.000 C 
DOCKED: BRANCH  21  22
DOCKED: ATOM     23  C   UNL     1      35.006  18.047 121.870 -0.33 -0.00    +0.000 C 
DOCKED: BRANCH  22  23
DOCKED: ATOM     24  C   UNL     1      34.568  17.302 123.098 -0.37 -0.00    +0.000 A 
DOCKED: ATOM     25  C   UNL     1      34.383  15.928 123.205 -0.32 -0.00    +0.000 A 
DOCKED: ATOM     26  N   UNL     1      34.118  15.584 124.486 -0.59 -0.00    +0.000 N 
DOCKED: ATOM     27  C   UNL     1      34.149  16.728 125.191 -0.42 -0.00    +0.000 A 
DOCKED: ATOM     28  C   UNL     1      34.425  17.800 124.380 -0.35 -0.00    +0.000 A 
DOCKED: ATOM     29  C   UNL     1      34.544  19.094 124.889 -0.18 -0.00    +0.000 A 
DOCKED: ATOM     30  C   UNL     1      34.370  19.273 126.274 -0.20 -0.00    +0.000 A 
DOCKED: ATOM     31  C   UNL     1      34.086  18.170 127.108 -0.24 -0.00    +0.000 A 
DOCKED: ATOM     32  C   UNL     1      33.975  16.877 126.567 -0.30 -0.00    +0.000 A 
DOCKED: ATOM     33  H   UNL     1      33.938  14.681 124.832 -0.06 -0.00    +0.000 HD
DOCKED: ATOM     34  CM  UNL     1      34.322  16.634 124.086 -0.09 -0.00    +0.000 AC
DOCKED: ATOM     35  CM  UNL     1      34.258  17.990 125.735 -0.25 -0.00    +0.000 AC
DOCKED: ENDBRANCH  22  23
DOCKED: ENDBRANCH  21  22
DOCKED: ENDBRANCH   1  21
DOCKED: TORSDOF 10DOCKED: TER
DOCKED: ENDMDL
________________________________________________________________________________


	BEGINNING GENETIC ALGORITHM DOCKING 59 of 100
Run: 59 Seed: 1974200674 2026196503 [ Run 59 of 100 GA/GALS ]
Beginning LAMARCKIAN GENETIC ALGORITHM (LGA), with a maximum of 2500000 energy evaluations.

Final-Value: -16.132


	FINAL GENETIC ALGORITHM DOCKED STATE
	_______________________________________________


Detailed state:  trans 38.120 15.422 122.365 quatxyzw -0.304024 0.396568 -0.843148 -0.198504 center 0.288 0.007 -0.056 ntor 10 -166.2201 34.8169 67.9493 -140.4521 -144.9417 -152.4032 -154.7499 163.9613 36.9849 -30.8838
State:	 38.120  15.422 122.365  -0.310  0.405 -0.860 -157.101   -166.22   34.82   67.95 -140.45 -144.94 -152.40 -154.75  163.96   36.98  -30.88

DOCKED: MODEL       59
DOCKED: USER    Run = 59
DOCKED: USER    DPF = ligand_dock.biased.dpf
DOCKED: USER  
DOCKED: USER    Estimated Free Energy of Binding    =  -11.34 kcal/mol  [=(1)+(2)+(3)-(4)]
DOCKED: USER    Estimated Inhibition Constant, Ki   =    4.87 nM (nanomolar)  [Temperature = 298.15 K]
DOCKED: USER    
DOCKED: USER    (1) Final Intermolecular Energy     =  -14.32 kcal/mol
DOCKED: USER        vdW + Hbond + desolv Energy     =  -14.32 kcal/mol
DOCKED: USER        Electrostatic Energy            =   +0.00 kcal/mol
DOCKED: USER    (2) Final Total Internal Energy     =   -1.81 kcal/mol
DOCKED: USER    (3) Torsional Free Energy           =   +2.98 kcal/mol
DOCKED: USER    (4) Unbound System's Energy  [=(2)] =   -1.81 kcal/mol
DOCKED: USER    
DOCKED: USER    
DOCKED: USER    NEWDPF move ligand.dum.pdbqt
DOCKED: USER    NEWDPF about 0.288000 0.007000 -0.056000
DOCKED: USER    NEWDPF tran0 38.120347 15.421708 122.364589
DOCKED: USER    NEWDPF quaternion0 -0.304024 0.396568 -0.843148 -0.198504
DOCKED: USER    NEWDPF axisangle0 -0.310197 0.404620 -0.860268 -157.101017
DOCKED: USER    NEWDPF quat0 -0.310197 0.404620 -0.860268 -157.101017
DOCKED: USER    NEWDPF dihe0 -166.22 34.82 67.95 -140.45 -144.94 -152.40 -154.75 163.96 36.98 -30.88 
DOCKED: USER  keepresnum = 1 
DOCKED: USER  
DOCKED: REMARK  Name = 
DOCKED: REMARK  10 active torsions:
DOCKED: REMARK  status: ('A' for Active; 'I' for Inactive)
DOCKED: REMARK    1  A    between atoms: C_2  and  C_5
DOCKED: REMARK    2  A    between atoms: C_6  and  C_7
DOCKED: REMARK    3  A    between atoms: C_10  and  C_11
DOCKED: REMARK    4  A    between atoms: C_11  and  N_12
DOCKED: REMARK    5  A    between atoms: N_12  and  C_13
DOCKED: REMARK    6  A    between atoms: N_12  and  C_16
DOCKED: REMARK    7  A    between atoms: C_13  and  C_14
DOCKED: REMARK    8  A    between atoms: C_14  and  O_15
DOCKED: REMARK    9  A    between atoms: C_16  and  C_17
DOCKED: REMARK   10  A    between atoms: C_17  and  C_18
DOCKED: REMARK                            x       y       z     vdW  Elec       q    Type
DOCKED: REMARK                         _______ _______ _______ _____ _____    ______ ____
DOCKED: USER                              x       y       z     vdW  Elec       q    Type
DOCKED: USER                           _______ _______ _______ _____ _____    ______ ____
DOCKED: ROOT
DOCKED: ATOM      1  N   UNL     1      39.050  16.355 122.144 -0.20 -0.00    +0.000 N 
DOCKED: ATOM      2  H   UNL     1      39.576  16.823 121.406 +0.01 -0.00    +0.000 HD
DOCKED: ENDROOT
DOCKED: BRANCH   1   3
DOCKED: ATOM      3  C   UNL     1      37.828  15.871 121.450 -0.23 -0.00    +0.000 C 
DOCKED: BRANCH   3   7
DOCKED: ATOM      4  C   UNL     1      36.450  11.990 122.830 -0.59 -0.00    +0.000 A 
DOCKED: ATOM      5  C   UNL     1      37.128  12.115 121.608 -0.48 -0.00    +0.000 A 
DOCKED: ATOM      6  C   UNL     1      37.574  13.363 121.166 -0.41 -0.00    +0.000 A 
DOCKED: ATOM      7  C   UNL     1      37.326  14.520 121.922 -0.34 -0.00    +0.000 A 
DOCKED: ATOM      8  C   UNL     1      36.659  14.396 123.152 -0.44 -0.00    +0.000 A 
DOCKED: ATOM      9  C   UNL     1      36.213  13.148 123.597 -0.54 -0.00    +0.000 A 
DOCKED: ATOM     10  CM  UNL     1      36.892  13.255 122.379 +0.00 -0.00    +0.000 AC
DOCKED: BRANCH   4  11
DOCKED: ATOM     11  C   UNL     1      36.405   9.502 122.687 -0.72 -0.00    +0.000 C 
DOCKED: ATOM     12  C   UNL     1      35.986  10.644 123.251 -0.65 -0.00    +0.000 C 
DOCKED: BRANCH  10  13
DOCKED: ATOM     13  O   UNL     1      36.690   7.191 123.184 -2.02 -0.00    +0.000 OA
DOCKED: ATOM     14  C   UNL     1      35.912   8.182 123.127 -0.73 -0.00    +0.000 C 
DOCKED: ATOM     15  N   UNL     1      34.539   8.023 123.492 -0.64 -0.00    +0.000 N 
DOCKED: ATOM     16  O   UNL     1      34.071   6.819 123.898 -0.83 -0.00    +0.000 OA
DOCKED: ATOM     17  H   UNL     1      33.929   8.795 123.449 -0.42 -0.00    +0.000 HD
DOCKED: ENDBRANCH  10  13
DOCKED: ENDBRANCH   4  11
DOCKED: ENDBRANCH   3   7
DOCKED: ENDBRANCH   1   3
DOCKED: BRANCH   1  17
DOCKED: ATOM     18  C   UNL     1      39.960  15.290 122.623 -0.39 -0.00    +0.000 C 
DOCKED: BRANCH  17  18
DOCKED: ATOM     19  C   UNL     1      41.428  15.645 122.369 -0.46 -0.00    +0.000 C 
DOCKED: BRANCH  18  19
DOCKED: ATOM     20  O   UNL     1      41.945  16.347 123.466 -1.10 +0.00    +0.000 OA
DOCKED: ATOM     21  H   UNL     1      42.808  15.978 123.708 -0.08 +0.00    +0.000 HD
DOCKED: ENDBRANCH  18  19
DOCKED: ENDBRANCH  17  18
DOCKED: ENDBRANCH   1  17
DOCKED: BRANCH   1  21
DOCKED: ATOM     22  C   UNL     1      38.777  17.387 123.172 -0.22 -0.00    +0.000 C 
DOCKED: BRANCH  21  22
DOCKED: ATOM     23  C   UNL     1      37.911  18.509 122.589 -0.12 -0.00    +0.000 C 
DOCKED: BRANCH  22  23
DOCKED: ATOM     24  C   UNL     1      36.947  19.030 123.615 -0.14 -0.00    +0.000 A 
DOCKED: ATOM     25  C   UNL     1      36.794  20.358 124.000 -0.12 -0.00    +0.000 A 
DOCKED: ATOM     26  N   UNL     1      35.746  20.488 124.845 -0.16 -0.00    +0.000 N 
DOCKED: ATOM     27  C   UNL     1      35.226  19.256 124.983 -0.21 -0.00    +0.000 A 
DOCKED: ATOM     28  C   UNL     1      35.929  18.339 124.245 -0.22 -0.00    +0.000 A 
DOCKED: ATOM     29  C   UNL     1      35.558  16.994 124.199 -0.33 -0.00    +0.000 A 
DOCKED: ATOM     30  C   UNL     1      34.432  16.598 124.943 -0.44 -0.00    +0.000 A 
DOCKED: ATOM     31  C   UNL     1      33.708  17.542 125.704 -0.34 -0.00    +0.000 A 
DOCKED: ATOM     32  C   UNL     1      34.103  18.892 125.727 -0.27 -0.00    +0.000 A 
DOCKED: ATOM     33  H   UNL     1      35.428  21.315 125.272 -0.01 -0.00    +0.000 HD
DOCKED: ATOM     34  CM  UNL     1      36.116  19.526 124.354 -0.01 -0.00    +0.000 AC
DOCKED: ATOM     35  CM  UNL     1      34.827  17.937 124.967 -0.48 -0.00    +0.000 AC
DOCKED: ENDBRANCH  22  23
DOCKED: ENDBRANCH  21  22
DOCKED: ENDBRANCH   1  21
DOCKED: TORSDOF 10DOCKED: TER
DOCKED: ENDMDL
________________________________________________________________________________


	BEGINNING GENETIC ALGORITHM DOCKING 60 of 100
Run: 60 Seed: 2064026886 80651862 [ Run 60 of 100 GA/GALS ]
Beginning LAMARCKIAN GENETIC ALGORITHM (LGA), with a maximum of 2500000 energy evaluations.

Final-Value: -16.213


	FINAL GENETIC ALGORITHM DOCKED STATE
	_______________________________________________


Detailed state:  trans 37.593 18.519 122.150 quatxyzw 0.897961 0.078428 -0.237215 0.362275 center 0.288 0.007 -0.056 ntor 10 143.2397 -36.1003 37.9424 178.2174 -180.0000 -147.1533 -29.3868 39.6586 141.0030 -169.2699
State:	 37.593  18.519 122.150   0.963  0.084 -0.255 137.520    143.24  -36.10   37.94  178.22 -180.00 -147.15  -29.39   39.66  141.00 -169.27

DOCKED: MODEL       60
DOCKED: USER    Run = 60
DOCKED: USER    DPF = ligand_dock.biased.dpf
DOCKED: USER  
DOCKED: USER    Estimated Free Energy of Binding    =  -10.76 kcal/mol  [=(1)+(2)+(3)-(4)]
DOCKED: USER    Estimated Inhibition Constant, Ki   =   13.06 nM (nanomolar)  [Temperature = 298.15 K]
DOCKED: USER    
DOCKED: USER    (1) Final Intermolecular Energy     =  -13.74 kcal/mol
DOCKED: USER        vdW + Hbond + desolv Energy     =  -13.74 kcal/mol
DOCKED: USER        Electrostatic Energy            =   +0.00 kcal/mol
DOCKED: USER    (2) Final Total Internal Energy     =   -2.47 kcal/mol
DOCKED: USER    (3) Torsional Free Energy           =   +2.98 kcal/mol
DOCKED: USER    (4) Unbound System's Energy  [=(2)] =   -2.47 kcal/mol
DOCKED: USER    
DOCKED: USER    
DOCKED: USER    NEWDPF move ligand.dum.pdbqt
DOCKED: USER    NEWDPF about 0.288000 0.007000 -0.056000
DOCKED: USER    NEWDPF tran0 37.592756 18.519033 122.150438
DOCKED: USER    NEWDPF quaternion0 0.897961 0.078428 -0.237215 0.362275
DOCKED: USER    NEWDPF axisangle0 0.963404 0.084143 -0.254503 137.519989
DOCKED: USER    NEWDPF quat0 0.963404 0.084143 -0.254503 137.519989
DOCKED: USER    NEWDPF dihe0 143.24 -36.10 37.94 178.22 -180.00 -147.15 -29.39 39.66 141.00 -169.27 
DOCKED: USER  keepresnum = 1 
DOCKED: USER  
DOCKED: REMARK  Name = 
DOCKED: REMARK  10 active torsions:
DOCKED: REMARK  status: ('A' for Active; 'I' for Inactive)
DOCKED: REMARK    1  A    between atoms: C_2  and  C_5
DOCKED: REMARK    2  A    between atoms: C_6  and  C_7
DOCKED: REMARK    3  A    between atoms: C_10  and  C_11
DOCKED: REMARK    4  A    between atoms: C_11  and  N_12
DOCKED: REMARK    5  A    between atoms: N_12  and  C_13
DOCKED: REMARK    6  A    between atoms: N_12  and  C_16
DOCKED: REMARK    7  A    between atoms: C_13  and  C_14
DOCKED: REMARK    8  A    between atoms: C_14  and  O_15
DOCKED: REMARK    9  A    between atoms: C_16  and  C_17
DOCKED: REMARK   10  A    between atoms: C_17  and  C_18
DOCKED: REMARK                            x       y       z     vdW  Elec       q    Type
DOCKED: REMARK                         _______ _______ _______ _____ _____    ______ ____
DOCKED: USER                              x       y       z     vdW  Elec       q    Type
DOCKED: USER                           _______ _______ _______ _____ _____    ______ ____
DOCKED: ROOT
DOCKED: ATOM      1  N   UNL     1      36.464  18.334 122.840 -0.17 -0.00    +0.000 N 
DOCKED: ATOM      2  H   UNL     1      35.781  17.627 123.110 +0.00 -0.00    +0.000 HD
DOCKED: ENDROOT
DOCKED: BRANCH   1   3
DOCKED: ATOM      3  C   UNL     1      37.692  17.546 122.559 -0.17 -0.00    +0.000 C 
DOCKED: BRANCH   3   7
DOCKED: ATOM      4  C   UNL     1      37.234  13.236 122.831 -0.50 -0.00    +0.000 A 
DOCKED: ATOM      5  C   UNL     1      37.872  13.819 121.726 -0.40 -0.00    +0.000 A 
DOCKED: ATOM      6  C   UNL     1      38.022  15.205 121.640 -0.27 -0.00    +0.000 A 
DOCKED: ATOM      7  C   UNL     1      37.512  16.043 122.644 -0.26 -0.00    +0.000 A 
DOCKED: ATOM      8  C   UNL     1      36.884  15.461 123.757 -0.28 -0.00    +0.000 A 
DOCKED: ATOM      9  C   UNL     1      36.733  14.074 123.846 -0.35 -0.00    +0.000 A 
DOCKED: ATOM     10  CM  UNL     1      37.377  14.639 122.740 +0.00 -0.00    +0.000 AC
DOCKED: BRANCH   4  11
DOCKED: ATOM     11  C   UNL     1      37.156  10.974 121.785 -0.41 -0.00    +0.000 C 
DOCKED: ATOM     12  C   UNL     1      37.090  11.759 122.870 -0.62 -0.00    +0.000 C 
DOCKED: BRANCH  10  13
DOCKED: ATOM     13  O   UNL     1      37.006   8.803 120.819 -2.65 -0.00    +0.000 OA
DOCKED: ATOM     14  C   UNL     1      36.997   9.509 121.865 -0.61 -0.00    +0.000 C 
DOCKED: ATOM     15  N   UNL     1      36.828   8.882 123.138 -0.67 -0.00    +0.000 N 
DOCKED: ATOM     16  O   UNL     1      36.681   7.539 123.228 -2.27 -0.00    +0.000 OA
DOCKED: ATOM     17  H   UNL     1      36.820   9.430 123.956 -0.48 -0.00    +0.000 HD
DOCKED: ENDBRANCH  10  13
DOCKED: ENDBRANCH   4  11
DOCKED: ENDBRANCH   3   7
DOCKED: ENDBRANCH   1   3
DOCKED: BRANCH   1  17
DOCKED: ATOM     18  C   UNL     1      35.860  18.993 121.659 -0.21 -0.00    +0.000 C 
DOCKED: BRANCH  17  18
DOCKED: ATOM     19  C   UNL     1      34.549  18.318 121.245 -0.32 -0.00    +0.000 C 
DOCKED: BRANCH  18  19
DOCKED: ATOM     20  O   UNL     1      34.051  17.553 122.308 -0.46 -0.00    +0.000 OA
DOCKED: ATOM     21  H   UNL     1      33.558  18.127 122.915 -0.03 -0.00    +0.000 HD
DOCKED: ENDBRANCH  18  19
DOCKED: ENDBRANCH  17  18
DOCKED: ENDBRANCH   1  17
DOCKED: BRANCH   1  21
DOCKED: ATOM     22  C   UNL     1      36.598  19.243 124.002 -0.18 -0.00    +0.000 C 
DOCKED: BRANCH  21  22
DOCKED: ATOM     23  C   UNL     1      37.831  20.139 123.844 -0.09 -0.00    +0.000 C 
DOCKED: BRANCH  22  23
DOCKED: ATOM     24  C   UNL     1      39.042  19.499 124.458 -0.10 -0.00    +0.000 A 
DOCKED: ATOM     25  C   UNL     1      40.291  19.362 123.863 -0.11 -0.00    +0.000 A 
DOCKED: ATOM     26  N   UNL     1      41.184  18.861 124.746 -0.23 -0.00    +0.000 N 
DOCKED: ATOM     27  C   UNL     1      40.513  18.696 125.900 -0.27 -0.00    +0.000 A 
DOCKED: ATOM     28  C   UNL     1      39.202  19.078 125.765 -0.17 -0.00    +0.000 A 
DOCKED: ATOM     29  C   UNL     1      38.311  19.031 126.838 -0.15 -0.00    +0.000 A 
DOCKED: ATOM     30  C   UNL     1      38.797  18.574 128.076 -0.17 -0.00    +0.000 A 
DOCKED: ATOM     31  C   UNL     1      40.146  18.181 128.214 -0.33 -0.00    +0.000 A 
DOCKED: ATOM     32  C   UNL     1      41.023  18.242 127.116 -0.37 -0.00    +0.000 A 
DOCKED: ATOM     33  H   UNL     1      42.133  18.658 124.580 -0.44 -0.00    +0.000 HD
DOCKED: ATOM     34  CM  UNL     1      40.083  19.092 124.940 +0.00 -0.00    +0.000 AC
DOCKED: ATOM     35  CM  UNL     1      39.665  18.634 126.984 +0.00 -0.00    +0.000 AC
DOCKED: ENDBRANCH  22  23
DOCKED: ENDBRANCH  21  22
DOCKED: ENDBRANCH   1  21
DOCKED: TORSDOF 10DOCKED: TER
DOCKED: ENDMDL
________________________________________________________________________________


	BEGINNING GENETIC ALGORITHM DOCKING 61 of 100
Run: 61 Seed: 262734805 403972412 [ Run 61 of 100 GA/GALS ]
Beginning LAMARCKIAN GENETIC ALGORITHM (LGA), with a maximum of 2500000 energy evaluations.

Final-Value: -15.216


	FINAL GENETIC ALGORITHM DOCKED STATE
	_______________________________________________


Detailed state:  trans 38.065 18.661 121.049 quatxyzw 0.773162 -0.097180 -0.448137 0.438120 center 0.288 0.007 -0.056 ntor 10 154.2438 -2.6293 -27.9904 178.2267 50.8462 -160.1259 141.0225 -158.1725 -96.2513 179.7977
State:	 38.065  18.661 121.049   0.860 -0.108 -0.499 128.032    154.24   -2.63  -27.99  178.23   50.85 -160.13  141.02 -158.17  -96.25  179.80

DOCKED: MODEL       61
DOCKED: USER    Run = 61
DOCKED: USER    DPF = ligand_dock.biased.dpf
DOCKED: USER  
DOCKED: USER    Estimated Free Energy of Binding    =   -9.80 kcal/mol  [=(1)+(2)+(3)-(4)]
DOCKED: USER    Estimated Inhibition Constant, Ki   =   65.57 nM (nanomolar)  [Temperature = 298.15 K]
DOCKED: USER    
DOCKED: USER    (1) Final Intermolecular Energy     =  -12.78 kcal/mol
DOCKED: USER        vdW + Hbond + desolv Energy     =  -12.78 kcal/mol
DOCKED: USER        Electrostatic Energy            =   +0.00 kcal/mol
DOCKED: USER    (2) Final Total Internal Energy     =   -2.43 kcal/mol
DOCKED: USER    (3) Torsional Free Energy           =   +2.98 kcal/mol
DOCKED: USER    (4) Unbound System's Energy  [=(2)] =   -2.43 kcal/mol
DOCKED: USER    
DOCKED: USER    
DOCKED: USER    NEWDPF move ligand.dum.pdbqt
DOCKED: USER    NEWDPF about 0.288000 0.007000 -0.056000
DOCKED: USER    NEWDPF tran0 38.064743 18.661184 121.049175
DOCKED: USER    NEWDPF quaternion0 0.773162 -0.097180 -0.448137 0.438120
DOCKED: USER    NEWDPF axisangle0 0.860105 -0.108108 -0.498530 128.032047
DOCKED: USER    NEWDPF quat0 0.860105 -0.108108 -0.498530 128.032047
DOCKED: USER    NEWDPF dihe0 154.24 -2.63 -27.99 178.23 50.85 -160.13 141.02 -158.17 -96.25 179.80 
DOCKED: USER  keepresnum = 1 
DOCKED: USER  
DOCKED: REMARK  Name = 
DOCKED: REMARK  10 active torsions:
DOCKED: REMARK  status: ('A' for Active; 'I' for Inactive)
DOCKED: REMARK    1  A    between atoms: C_2  and  C_5
DOCKED: REMARK    2  A    between atoms: C_6  and  C_7
DOCKED: REMARK    3  A    between atoms: C_10  and  C_11
DOCKED: REMARK    4  A    between atoms: C_11  and  N_12
DOCKED: REMARK    5  A    between atoms: N_12  and  C_13
DOCKED: REMARK    6  A    between atoms: N_12  and  C_16
DOCKED: REMARK    7  A    between atoms: C_13  and  C_14
DOCKED: REMARK    8  A    between atoms: C_14  and  O_15
DOCKED: REMARK    9  A    between atoms: C_16  and  C_17
DOCKED: REMARK   10  A    between atoms: C_17  and  C_18
DOCKED: REMARK                            x       y       z     vdW  Elec       q    Type
DOCKED: REMARK                         _______ _______ _______ _____ _____    ______ ____
DOCKED: USER                              x       y       z     vdW  Elec       q    Type
DOCKED: USER                           _______ _______ _______ _____ _____    ______ ____
DOCKED: ROOT
DOCKED: ATOM      1  N   UNL     1      37.476  18.529 122.241 -0.10 -0.00    +0.000 N 
DOCKED: ATOM      2  H   UNL     1      36.921  17.890 122.809 +0.00 -0.00    +0.000 HD
DOCKED: ENDROOT
DOCKED: BRANCH   1   3
DOCKED: ATOM      3  C   UNL     1      38.169  17.632 121.279 -0.10 -0.00    +0.000 C 
DOCKED: BRANCH   3   7
DOCKED: ATOM      4  C   UNL     1      37.531  13.406 122.051 -0.44 -0.00    +0.000 A 
DOCKED: ATOM      5  C   UNL     1      38.243  14.200 122.963 -0.40 -0.00    +0.000 A 
DOCKED: ATOM      6  C   UNL     1      38.446  15.560 122.716 -0.30 -0.00    +0.000 A 
DOCKED: ATOM      7  C   UNL     1      37.966  16.151 121.537 -0.18 -0.00    +0.000 A 
DOCKED: ATOM      8  C   UNL     1      37.242  15.362 120.628 -0.21 -0.00    +0.000 A 
DOCKED: ATOM      9  C   UNL     1      37.037  14.001 120.874 -0.25 -0.00    +0.000 A 
DOCKED: ATOM     10  CM  UNL     1      37.744  14.780 121.796 +0.00 -0.00    +0.000 AC
DOCKED: BRANCH   4  11
DOCKED: ATOM     11  C   UNL     1      37.245  11.012 121.415 -0.32 -0.00    +0.000 C 
DOCKED: ATOM     12  C   UNL     1      37.353  11.963 122.354 -0.47 -0.00    +0.000 C 
DOCKED: BRANCH  10  13
DOCKED: ATOM     13  O   UNL     1      36.903   8.724 120.852 -2.56 -0.00    +0.000 OA
DOCKED: ATOM     14  C   UNL     1      37.058   9.589 121.757 -0.59 -0.00    +0.000 C 
DOCKED: ATOM     15  N   UNL     1      37.050   9.184 123.128 -0.65 -0.00    +0.000 N 
DOCKED: ATOM     16  O   UNL     1      36.879   7.882 123.458 -2.52 -0.00    +0.000 OA
DOCKED: ATOM     17  H   UNL     1      37.170   9.857 123.838 -0.41 -0.00    +0.000 HD
DOCKED: ENDBRANCH  10  13
DOCKED: ENDBRANCH   4  11
DOCKED: ENDBRANCH   3   7
DOCKED: ENDBRANCH   1   3
DOCKED: BRANCH   1  17
DOCKED: ATOM     18  C   UNL     1      36.479  19.442 121.637 -0.16 -0.00    +0.000 C 
DOCKED: BRANCH  17  18
DOCKED: ATOM     19  C   UNL     1      35.625  18.729 120.585 -0.21 -0.00    +0.000 C 
DOCKED: BRANCH  18  19
DOCKED: ATOM     20  O   UNL     1      35.079  17.559 121.129 -0.30 -0.00    +0.000 OA
DOCKED: ATOM     21  H   UNL     1      34.192  17.747 121.474 -0.03 -0.00    +0.000 HD
DOCKED: ENDBRANCH  18  19
DOCKED: ENDBRANCH  17  18
DOCKED: ENDBRANCH   1  17
DOCKED: BRANCH   1  21
DOCKED: ATOM     22  C   UNL     1      38.397  19.217 123.176 -0.09 -0.00    +0.000 C 
DOCKED: BRANCH  21  22
DOCKED: ATOM     23  C   UNL     1      37.624  20.195 124.067 -0.10 -0.00    +0.000 C 
DOCKED: BRANCH  22  23
DOCKED: ATOM     24  C   UNL     1      36.948  19.473 125.196 -0.13 -0.00    +0.000 A 
DOCKED: ATOM     25  C   UNL     1      37.183  19.664 126.554 -0.11 -0.00    +0.000 A 
DOCKED: ATOM     26  N   UNL     1      36.307  18.947 127.292 -0.15 -0.00    +0.000 N 
DOCKED: ATOM     27  C   UNL     1      35.509  18.317 126.412 -0.14 -0.00    +0.000 A 
DOCKED: ATOM     28  C   UNL     1      35.866  18.615 125.122 -0.20 -0.00    +0.000 A 
DOCKED: ATOM     29  C   UNL     1      35.163  18.106 124.029 -0.29 -0.00    +0.000 A 
DOCKED: ATOM     30  C   UNL     1      34.065  17.266 124.289 -0.38 -0.00    +0.000 A 
DOCKED: ATOM     31  C   UNL     1      33.697  16.958 125.618 -0.31 -0.00    +0.000 A 
DOCKED: ATOM     32  C   UNL     1      34.423  17.489 126.699 -0.20 -0.00    +0.000 A 
DOCKED: ATOM     33  H   UNL     1      36.261  18.896 128.274 -0.01 -0.00    +0.000 HD
DOCKED: ATOM     34  CM  UNL     1      36.360  19.002 126.153 -0.02 -0.00    +0.000 AC
DOCKED: ATOM     35  CM  UNL     1      34.788  17.792 125.362 -0.45 -0.00    +0.000 AC
DOCKED: ENDBRANCH  22  23
DOCKED: ENDBRANCH  21  22
DOCKED: ENDBRANCH   1  21
DOCKED: TORSDOF 10DOCKED: TER
DOCKED: ENDMDL
________________________________________________________________________________


	BEGINNING GENETIC ALGORITHM DOCKING 62 of 100
Run: 62 Seed: 1651042095 404105355 [ Run 62 of 100 GA/GALS ]
Beginning LAMARCKIAN GENETIC ALGORITHM (LGA), with a maximum of 2500000 energy evaluations.

Final-Value: -15.699


	FINAL GENETIC ALGORITHM DOCKED STATE
	_______________________________________________


Detailed state:  trans 36.942 18.331 123.993 quatxyzw -0.793544 -0.207640 0.014294 -0.571812 center 0.288 0.007 -0.056 ntor 10 50.4332 144.3010 -42.6520 163.2121 156.2022 -5.6276 -54.8758 63.2525 -178.9282 163.0158
State:	 36.942  18.331 123.993  -0.967 -0.253  0.017 -110.247     50.43  144.30  -42.65  163.21  156.20   -5.63  -54.88   63.25 -178.93  163.02

DOCKED: MODEL       62
DOCKED: USER    Run = 62
DOCKED: USER    DPF = ligand_dock.biased.dpf
DOCKED: USER  
DOCKED: USER    Estimated Free Energy of Binding    =  -10.89 kcal/mol  [=(1)+(2)+(3)-(4)]
DOCKED: USER    Estimated Inhibition Constant, Ki   =   10.36 nM (nanomolar)  [Temperature = 298.15 K]
DOCKED: USER    
DOCKED: USER    (1) Final Intermolecular Energy     =  -13.88 kcal/mol
DOCKED: USER        vdW + Hbond + desolv Energy     =  -13.88 kcal/mol
DOCKED: USER        Electrostatic Energy            =   +0.00 kcal/mol
DOCKED: USER    (2) Final Total Internal Energy     =   -1.82 kcal/mol
DOCKED: USER    (3) Torsional Free Energy           =   +2.98 kcal/mol
DOCKED: USER    (4) Unbound System's Energy  [=(2)] =   -1.82 kcal/mol
DOCKED: USER    
DOCKED: USER    
DOCKED: USER    NEWDPF move ligand.dum.pdbqt
DOCKED: USER    NEWDPF about 0.288000 0.007000 -0.056000
DOCKED: USER    NEWDPF tran0 36.942385 18.331413 123.992719
DOCKED: USER    NEWDPF quaternion0 -0.793544 -0.207640 0.014294 -0.571812
DOCKED: USER    NEWDPF axisangle0 -0.967283 -0.253101 0.017424 -110.246585
DOCKED: USER    NEWDPF quat0 -0.967283 -0.253101 0.017424 -110.246585
DOCKED: USER    NEWDPF dihe0 50.43 144.30 -42.65 163.21 156.20 -5.63 -54.88 63.25 -178.93 163.02 
DOCKED: USER  keepresnum = 1 
DOCKED: USER  
DOCKED: REMARK  Name = 
DOCKED: REMARK  10 active torsions:
DOCKED: REMARK  status: ('A' for Active; 'I' for Inactive)
DOCKED: REMARK    1  A    between atoms: C_2  and  C_5
DOCKED: REMARK    2  A    between atoms: C_6  and  C_7
DOCKED: REMARK    3  A    between atoms: C_10  and  C_11
DOCKED: REMARK    4  A    between atoms: C_11  and  N_12
DOCKED: REMARK    5  A    between atoms: N_12  and  C_13
DOCKED: REMARK    6  A    between atoms: N_12  and  C_16
DOCKED: REMARK    7  A    between atoms: C_13  and  C_14
DOCKED: REMARK    8  A    between atoms: C_14  and  O_15
DOCKED: REMARK    9  A    between atoms: C_16  and  C_17
DOCKED: REMARK   10  A    between atoms: C_17  and  C_18
DOCKED: REMARK                            x       y       z     vdW  Elec       q    Type
DOCKED: REMARK                         _______ _______ _______ _____ _____    ______ ____
DOCKED: USER                              x       y       z     vdW  Elec       q    Type
DOCKED: USER                           _______ _______ _______ _____ _____    ______ ____
DOCKED: ROOT
DOCKED: ATOM      1  N   UNL     1      35.659  17.962 123.992 -0.25 -0.00    +0.000 N 
DOCKED: ATOM      2  H   UNL     1      35.000  17.307 123.571 -0.01 -0.00    +0.000 HD
DOCKED: ENDROOT
DOCKED: BRANCH   1   3
DOCKED: ATOM      3  C   UNL     1      36.973  17.283 123.839 -0.26 -0.00    +0.000 C 
DOCKED: BRANCH   3   7
DOCKED: ATOM      4  C   UNL     1      36.773  12.962 123.448 -0.56 -0.00    +0.000 A 
DOCKED: ATOM      5  C   UNL     1      37.871  13.676 122.944 -0.46 -0.00    +0.000 A 
DOCKED: ATOM      6  C   UNL     1      37.936  15.066 123.072 -0.35 -0.00    +0.000 A 
DOCKED: ATOM      7  C   UNL     1      36.891  15.777 123.683 -0.29 -0.00    +0.000 A 
DOCKED: ATOM      8  C   UNL     1      35.797  15.064 124.200 -0.42 -0.00    +0.000 A 
DOCKED: ATOM      9  C   UNL     1      35.730  13.673 124.073 -0.35 -0.00    +0.000 A 
DOCKED: ATOM     10  CM  UNL     1      36.834  14.369 123.570 +0.00 -0.00    +0.000 AC
DOCKED: BRANCH   4  11
DOCKED: ATOM     11  C   UNL     1      37.062  10.864 122.132 -0.54 -0.00    +0.000 C 
DOCKED: ATOM     12  C   UNL     1      36.745  11.488 123.276 -0.69 -0.00    +0.000 C 
DOCKED: BRANCH  10  13
DOCKED: ATOM     13  O   UNL     1      36.979   8.853 120.860 -2.69 -0.00    +0.000 OA
DOCKED: ATOM     14  C   UNL     1      37.012   9.395 121.999 -0.64 -0.00    +0.000 C 
DOCKED: ATOM     15  N   UNL     1      36.999   8.577 123.170 -0.70 -0.00    +0.000 N 
DOCKED: ATOM     16  O   UNL     1      36.953   7.228 123.065 -2.14 -0.00    +0.000 OA
DOCKED: ATOM     17  H   UNL     1      37.024   8.997 124.061 -0.51 -0.00    +0.000 HD
DOCKED: ENDBRANCH  10  13
DOCKED: ENDBRANCH   4  11
DOCKED: ENDBRANCH   3   7
DOCKED: ENDBRANCH   1   3
DOCKED: BRANCH   1  17
DOCKED: ATOM     18  C   UNL     1      35.500  19.202 123.198 -0.15 -0.00    +0.000 C 
DOCKED: BRANCH  17  18
DOCKED: ATOM     19  C   UNL     1      36.361  19.176 121.932 -0.18 -0.00    +0.000 C 
DOCKED: BRANCH  18  19
DOCKED: ATOM     20  O   UNL     1      36.533  20.479 121.447 -0.62 -0.00    +0.000 OA
DOCKED: ATOM     21  H   UNL     1      35.946  21.083 121.927 -0.00 +0.00    +0.000 HD
DOCKED: ENDBRANCH  18  19
DOCKED: ENDBRANCH  17  18
DOCKED: ENDBRANCH   1  17
DOCKED: BRANCH   1  21
DOCKED: ATOM     22  C   UNL     1      35.236  18.121 125.403 -0.29 -0.00    +0.000 C 
DOCKED: BRANCH  21  22
DOCKED: ATOM     23  C   UNL     1      35.676  19.486 125.944 -0.18 -0.00    +0.000 C 
DOCKED: BRANCH  22  23
DOCKED: ATOM     24  C   UNL     1      36.667  19.327 127.060 -0.12 -0.00    +0.000 A 
DOCKED: ATOM     25  C   UNL     1      36.368  19.159 128.408 -0.11 -0.00    +0.000 A 
DOCKED: ATOM     26  N   UNL     1      37.494  18.912 129.115 -0.13 -0.00    +0.000 N 
DOCKED: ATOM     27  C   UNL     1      38.500  18.906 128.222 -0.16 -0.00    +0.000 A 
DOCKED: ATOM     28  C   UNL     1      38.034  19.152 126.956 -0.14 -0.00    +0.000 A 
DOCKED: ATOM     29  C   UNL     1      38.887  19.163 125.850 -0.16 -0.00    +0.000 A 
DOCKED: ATOM     30  C   UNL     1      40.253  18.914 126.073 -0.24 -0.00    +0.000 A 
DOCKED: ATOM     31  C   UNL     1      40.732  18.661 127.377 -0.31 -0.00    +0.000 A 
DOCKED: ATOM     32  C   UNL     1      39.848  18.653 128.471 -0.24 -0.00    +0.000 A 
DOCKED: ATOM     33  H   UNL     1      37.565  18.765 130.086 +0.00 -0.00    +0.000 HD
DOCKED: ATOM     34  CM  UNL     1      37.415  19.085 127.990 +0.00 -0.00    +0.000 AC
DOCKED: ATOM     35  CM  UNL     1      39.375  18.908 127.158 +0.00 -0.00    +0.000 AC
DOCKED: ENDBRANCH  22  23
DOCKED: ENDBRANCH  21  22
DOCKED: ENDBRANCH   1  21
DOCKED: TORSDOF 10DOCKED: TER
DOCKED: ENDMDL
________________________________________________________________________________


	BEGINNING GENETIC ALGORITHM DOCKING 63 of 100
Run: 63 Seed: 1101574332 509416540 [ Run 63 of 100 GA/GALS ]
Beginning LAMARCKIAN GENETIC ALGORITHM (LGA), with a maximum of 2500000 energy evaluations.

Final-Value: -16.647


	FINAL GENETIC ALGORITHM DOCKED STATE
	_______________________________________________


Detailed state:  trans 36.697 17.554 123.970 quatxyzw 0.354127 -0.206980 0.904956 0.113172 center 0.288 0.007 -0.056 ntor 10 -71.5349 -95.5256 46.7532 -176.9080 154.2701 -178.5167 169.5425 -161.8131 80.2849 -84.2936
State:	 36.697  17.554 123.970   0.356 -0.208  0.911 167.004    -71.53  -95.53   46.75 -176.91  154.27 -178.52  169.54 -161.81   80.28  -84.29

DOCKED: MODEL       63
DOCKED: USER    Run = 63
DOCKED: USER    DPF = ligand_dock.biased.dpf
DOCKED: USER  
DOCKED: USER    Estimated Free Energy of Binding    =  -11.16 kcal/mol  [=(1)+(2)+(3)-(4)]
DOCKED: USER    Estimated Inhibition Constant, Ki   =    6.63 nM (nanomolar)  [Temperature = 298.15 K]
DOCKED: USER    
DOCKED: USER    (1) Final Intermolecular Energy     =  -14.14 kcal/mol
DOCKED: USER        vdW + Hbond + desolv Energy     =  -14.14 kcal/mol
DOCKED: USER        Electrostatic Energy            =   +0.00 kcal/mol
DOCKED: USER    (2) Final Total Internal Energy     =   -2.51 kcal/mol
DOCKED: USER    (3) Torsional Free Energy           =   +2.98 kcal/mol
DOCKED: USER    (4) Unbound System's Energy  [=(2)] =   -2.51 kcal/mol
DOCKED: USER    
DOCKED: USER    
DOCKED: USER    NEWDPF move ligand.dum.pdbqt
DOCKED: USER    NEWDPF about 0.288000 0.007000 -0.056000
DOCKED: USER    NEWDPF tran0 36.697232 17.554105 123.970008
DOCKED: USER    NEWDPF quaternion0 0.354127 -0.206980 0.904956 0.113172
DOCKED: USER    NEWDPF axisangle0 0.356416 -0.208318 0.910808 167.003577
DOCKED: USER    NEWDPF quat0 0.356416 -0.208318 0.910808 167.003577
DOCKED: USER    NEWDPF dihe0 -71.53 -95.53 46.75 -176.91 154.27 -178.52 169.54 -161.81 80.28 -84.29 
DOCKED: USER  keepresnum = 1 
DOCKED: USER  
DOCKED: REMARK  Name = 
DOCKED: REMARK  10 active torsions:
DOCKED: REMARK  status: ('A' for Active; 'I' for Inactive)
DOCKED: REMARK    1  A    between atoms: C_2  and  C_5
DOCKED: REMARK    2  A    between atoms: C_6  and  C_7
DOCKED: REMARK    3  A    between atoms: C_10  and  C_11
DOCKED: REMARK    4  A    between atoms: C_11  and  N_12
DOCKED: REMARK    5  A    between atoms: N_12  and  C_13
DOCKED: REMARK    6  A    between atoms: N_12  and  C_16
DOCKED: REMARK    7  A    between atoms: C_13  and  C_14
DOCKED: REMARK    8  A    between atoms: C_14  and  O_15
DOCKED: REMARK    9  A    between atoms: C_16  and  C_17
DOCKED: REMARK   10  A    between atoms: C_17  and  C_18
DOCKED: REMARK                            x       y       z     vdW  Elec       q    Type
DOCKED: REMARK                         _______ _______ _______ _____ _____    ______ ____
DOCKED: USER                              x       y       z     vdW  Elec       q    Type
DOCKED: USER                           _______ _______ _______ _____ _____    ______ ____
DOCKED: ROOT
DOCKED: ATOM      1  N   UNL     1      37.621  18.282 123.337 -0.14 -0.00    +0.000 N 
DOCKED: ATOM      2  H   UNL     1      38.118  18.376 122.452 +0.00 -0.00    +0.000 HD
DOCKED: ENDROOT
DOCKED: BRANCH   1   3
DOCKED: ATOM      3  C   UNL     1      36.369  17.573 122.962 -0.24 -0.00    +0.000 C 
DOCKED: BRANCH   3   7
DOCKED: ATOM      4  C   UNL     1      36.680  13.246 123.150 -0.53 -0.00    +0.000 A 
DOCKED: ATOM      5  C   UNL     1      37.365  13.970 122.162 -0.40 -0.00    +0.000 A 
DOCKED: ATOM      6  C   UNL     1      37.267  15.362 122.103 -0.28 -0.00    +0.000 A 
DOCKED: ATOM      7  C   UNL     1      36.459  16.061 123.014 -0.31 -0.00    +0.000 A 
DOCKED: ATOM      8  C   UNL     1      35.783  15.340 124.012 -0.42 -0.00    +0.000 A 
DOCKED: ATOM      9  C   UNL     1      35.880  13.946 124.073 -0.43 -0.00    +0.000 A 
DOCKED: ATOM     10  CM  UNL     1      36.573  14.654 123.085 +0.00 -0.00    +0.000 AC
DOCKED: BRANCH   4  11
DOCKED: ATOM     11  C   UNL     1      36.694  10.999 122.069 -0.63 -0.00    +0.000 C 
DOCKED: ATOM     12  C   UNL     1      36.808  11.767 123.162 -0.68 -0.00    +0.000 C 
DOCKED: BRANCH  10  13
DOCKED: ATOM     13  O   UNL     1      36.739   8.836 121.074 -2.62 -0.00    +0.000 OA
DOCKED: ATOM     14  C   UNL     1      36.817   9.529 122.125 -0.67 -0.00    +0.000 C 
DOCKED: ATOM     15  N   UNL     1      37.026   8.883 123.383 -0.62 -0.00    +0.000 N 
DOCKED: ATOM     16  O   UNL     1      37.141   7.535 123.451 -2.54 -0.00    +0.000 OA
DOCKED: ATOM     17  H   UNL     1      37.087   9.421 124.205 -0.59 -0.00    +0.000 HD
DOCKED: ENDBRANCH  10  13
DOCKED: ENDBRANCH   4  11
DOCKED: ENDBRANCH   3   7
DOCKED: ENDBRANCH   1   3
DOCKED: BRANCH   1  17
DOCKED: ATOM     18  C   UNL     1      38.546  17.506 124.195 -0.22 -0.00    +0.000 C 
DOCKED: BRANCH  17  18
DOCKED: ATOM     19  C   UNL     1      39.884  17.251 123.496 -0.26 -0.00    +0.000 C 
DOCKED: BRANCH  18  19
DOCKED: ATOM     20  O   UNL     1      39.665  16.937 122.148 -0.18 -0.00    +0.000 OA
DOCKED: ATOM     21  H   UNL     1      40.173  16.145 121.915 +0.00 -0.00    +0.000 HD
DOCKED: ENDBRANCH  18  19
DOCKED: ENDBRANCH  17  18
DOCKED: ENDBRANCH   1  17
DOCKED: BRANCH   1  21
DOCKED: ATOM     22  C   UNL     1      37.395  19.661 123.830 -0.12 -0.00    +0.000 C 
DOCKED: BRANCH  21  22
DOCKED: ATOM     23  C   UNL     1      35.927  20.061 123.650 -0.17 -0.00    +0.000 C 
DOCKED: BRANCH  22  23
DOCKED: ATOM     24  C   UNL     1      35.220  20.120 124.974 -0.15 -0.00    +0.000 A 
DOCKED: ATOM     25  C   UNL     1      34.946  21.268 125.709 -0.14 -0.00    +0.000 A 
DOCKED: ATOM     26  N   UNL     1      34.180  20.971 126.783 -0.12 -0.00    +0.000 N 
DOCKED: ATOM     27  C   UNL     1      33.955  19.646 126.723 -0.18 -0.00    +0.000 A 
DOCKED: ATOM     28  C   UNL     1      34.570  19.092 125.630 -0.23 -0.00    +0.000 A 
DOCKED: ATOM     29  C   UNL     1      34.454  17.733 125.333 -0.35 -0.00    +0.000 A 
DOCKED: ATOM     30  C   UNL     1      33.681  16.936 126.197 -0.37 -0.00    +0.000 A 
DOCKED: ATOM     31  C   UNL     1      33.047  17.507 127.322 -0.32 -0.00    +0.000 A 
DOCKED: ATOM     32  C   UNL     1      33.180  18.881 127.594 -0.19 -0.00    +0.000 A 
DOCKED: ATOM     33  H   UNL     1      33.853  21.595 127.470 +0.00 -0.00    +0.000 HD
DOCKED: ATOM     34  CM  UNL     1      34.561  20.244 125.990 +0.00 -0.00    +0.000 AC
DOCKED: ATOM     35  CM  UNL     1      33.815  18.300 126.466 -0.05 -0.00    +0.000 AC
DOCKED: ENDBRANCH  22  23
DOCKED: ENDBRANCH  21  22
DOCKED: ENDBRANCH   1  21
DOCKED: TORSDOF 10DOCKED: TER
DOCKED: ENDMDL
________________________________________________________________________________


	BEGINNING GENETIC ALGORITHM DOCKING 64 of 100
Run: 64 Seed: 1202967556 1607451064 [ Run 64 of 100 GA/GALS ]
Beginning LAMARCKIAN GENETIC ALGORITHM (LGA), with a maximum of 2500000 energy evaluations.

Final-Value: -15.476


	FINAL GENETIC ALGORITHM DOCKED STATE
	_______________________________________________


Detailed state:  trans 35.807 18.226 123.613 quatxyzw -0.155627 -0.625190 -0.757506 -0.105367 center 0.288 0.007 -0.056 ntor 10 -9.7706 -24.3257 -8.7892 -9.2717 177.9054 53.3064 -118.1246 83.3460 157.9333 135.5324
State:	 35.807  18.226 123.613  -0.156 -0.629 -0.762 -167.903     -9.77  -24.33   -8.79   -9.27  177.91   53.31 -118.12   83.35  157.93  135.53

DOCKED: MODEL       64
DOCKED: USER    Run = 64
DOCKED: USER    DPF = ligand_dock.biased.dpf
DOCKED: USER  
DOCKED: USER    Estimated Free Energy of Binding    =  -10.56 kcal/mol  [=(1)+(2)+(3)-(4)]
DOCKED: USER    Estimated Inhibition Constant, Ki   =   18.13 nM (nanomolar)  [Temperature = 298.15 K]
DOCKED: USER    
DOCKED: USER    (1) Final Intermolecular Energy     =  -13.54 kcal/mol
DOCKED: USER        vdW + Hbond + desolv Energy     =  -13.54 kcal/mol
DOCKED: USER        Electrostatic Energy            =   +0.00 kcal/mol
DOCKED: USER    (2) Final Total Internal Energy     =   -1.93 kcal/mol
DOCKED: USER    (3) Torsional Free Energy           =   +2.98 kcal/mol
DOCKED: USER    (4) Unbound System's Energy  [=(2)] =   -1.93 kcal/mol
DOCKED: USER    
DOCKED: USER    
DOCKED: USER    NEWDPF move ligand.dum.pdbqt
DOCKED: USER    NEWDPF about 0.288000 0.007000 -0.056000
DOCKED: USER    NEWDPF tran0 35.807198 18.226189 123.612733
DOCKED: USER    NEWDPF quaternion0 -0.155627 -0.625190 -0.757506 -0.105367
DOCKED: USER    NEWDPF axisangle0 -0.156498 -0.628690 -0.761746 -167.903391
DOCKED: USER    NEWDPF quat0 -0.156498 -0.628690 -0.761746 -167.903391
DOCKED: USER    NEWDPF dihe0 -9.77 -24.33 -8.79 -9.27 177.91 53.31 -118.12 83.35 157.93 135.53 
DOCKED: USER  keepresnum = 1 
DOCKED: USER  
DOCKED: REMARK  Name = 
DOCKED: REMARK  10 active torsions:
DOCKED: REMARK  status: ('A' for Active; 'I' for Inactive)
DOCKED: REMARK    1  A    between atoms: C_2  and  C_5
DOCKED: REMARK    2  A    between atoms: C_6  and  C_7
DOCKED: REMARK    3  A    between atoms: C_10  and  C_11
DOCKED: REMARK    4  A    between atoms: C_11  and  N_12
DOCKED: REMARK    5  A    between atoms: N_12  and  C_13
DOCKED: REMARK    6  A    between atoms: N_12  and  C_16
DOCKED: REMARK    7  A    between atoms: C_13  and  C_14
DOCKED: REMARK    8  A    between atoms: C_14  and  O_15
DOCKED: REMARK    9  A    between atoms: C_16  and  C_17
DOCKED: REMARK   10  A    between atoms: C_17  and  C_18
DOCKED: REMARK                            x       y       z     vdW  Elec       q    Type
DOCKED: REMARK                         _______ _______ _______ _____ _____    ______ ____
DOCKED: USER                              x       y       z     vdW  Elec       q    Type
DOCKED: USER                           _______ _______ _______ _____ _____    ______ ____
DOCKED: ROOT
DOCKED: ATOM      1  N   UNL     1      36.907  18.242 122.856 -0.14 -0.00    +0.000 N 
DOCKED: ATOM      2  H   UNL     1      37.856  17.874 122.790 +0.00 -0.00    +0.000 HD
DOCKED: ENDROOT
DOCKED: BRANCH   1   3
DOCKED: ATOM      3  C   UNL     1      36.205  17.249 123.710 -0.30 -0.00    +0.000 C 
DOCKED: BRANCH   3   7
DOCKED: ATOM      4  C   UNL     1      36.621  13.123 122.419 -0.45 -0.00    +0.000 A 
DOCKED: ATOM      5  C   UNL     1      35.942  13.436 123.606 -0.52 -0.00    +0.000 A 
DOCKED: ATOM      6  C   UNL     1      35.805  14.763 124.020 -0.45 -0.00    +0.000 A 
DOCKED: ATOM      7  C   UNL     1      36.371  15.807 123.271 -0.35 -0.00    +0.000 A 
DOCKED: ATOM      8  C   UNL     1      37.040  15.498 122.075 -0.27 -0.00    +0.000 A 
DOCKED: ATOM      9  C   UNL     1      37.177  14.170 121.659 -0.33 -0.00    +0.000 A 
DOCKED: ATOM     10  CM  UNL     1      36.492  14.466 122.842 +0.00 -0.00    +0.000 AC
DOCKED: BRANCH   4  11
DOCKED: ATOM     11  C   UNL     1      36.665  10.676 122.894 -0.68 -0.00    +0.000 C 
DOCKED: ATOM     12  C   UNL     1      36.749  11.696 122.028 -0.60 -0.00    +0.000 C 
DOCKED: BRANCH  10  13
DOCKED: ATOM     13  O   UNL     1      36.817   8.967 121.243 -2.61 -0.00    +0.000 OA
DOCKED: ATOM     14  C   UNL     1      36.808   9.270 122.468 -0.70 -0.00    +0.000 C 
DOCKED: ATOM     15  N   UNL     1      36.935   8.241 123.451 -0.71 -0.00    +0.000 N 
DOCKED: ATOM     16  O   UNL     1      37.066   6.946 123.076 -1.89 -0.00    +0.000 OA
DOCKED: ATOM     17  H   UNL     1      36.927   8.474 124.408 -0.44 -0.00    +0.000 HD
DOCKED: ENDBRANCH  10  13
DOCKED: ENDBRANCH   4  11
DOCKED: ENDBRANCH   3   7
DOCKED: ENDBRANCH   1   3
DOCKED: BRANCH   1  17
DOCKED: ATOM     18  C   UNL     1      37.077  19.582 123.464 -0.14 -0.00    +0.000 C 
DOCKED: BRANCH  17  18
DOCKED: ATOM     19  C   UNL     1      37.923  19.520 124.738 -0.13 -0.00    +0.000 C 
DOCKED: BRANCH  18  19
DOCKED: ATOM     20  O   UNL     1      38.850  18.474 124.645 -0.21 -0.00    +0.000 OA
DOCKED: ATOM     21  H   UNL     1      38.384  17.625 124.692 -0.02 -0.00    +0.000 HD
DOCKED: ENDBRANCH  18  19
DOCKED: ENDBRANCH  17  18
DOCKED: ENDBRANCH   1  17
DOCKED: BRANCH   1  21
DOCKED: ATOM     22  C   UNL     1      36.391  18.298 121.468 -0.18 -0.00    +0.000 C 
DOCKED: BRANCH  21  22
DOCKED: ATOM     23  C   UNL     1      34.990  18.919 121.442 -0.16 -0.00    +0.000 C 
DOCKED: BRANCH  22  23
DOCKED: ATOM     24  C   UNL     1      34.450  18.964 120.042 -0.24 -0.00    +0.000 A 
DOCKED: ATOM     25  C   UNL     1      35.198  19.050 118.874 -0.15 -0.00    +0.000 A 
DOCKED: ATOM     26  N   UNL     1      34.399  18.932 117.789 -0.10 -0.00    +0.000 N 
DOCKED: ATOM     27  C   UNL     1      33.153  18.756 118.264 -0.19 -0.00    +0.000 A 
DOCKED: ATOM     28  C   UNL     1      33.143  18.766 119.636 -0.32 -0.00    +0.000 A 
DOCKED: ATOM     29  C   UNL     1      31.968  18.568 120.362 -0.43 -0.00    +0.000 A 
DOCKED: ATOM     30  C   UNL     1      30.779  18.357 119.641 -0.42 -0.00    +0.000 A 
DOCKED: ATOM     31  C   UNL     1      30.789  18.347 118.230 -0.27 -0.00    +0.000 A 
DOCKED: ATOM     32  C   UNL     1      31.990  18.546 117.524 -0.16 -0.00    +0.000 A 
DOCKED: ATOM     33  H   UNL     1      34.672  18.967 116.844 +0.00 -0.00    +0.000 HD
DOCKED: ATOM     34  CM  UNL     1      34.079  18.894 118.885 +0.00 -0.00    +0.000 AC
DOCKED: ATOM     35  CM  UNL     1      31.971  18.557 118.943 +0.00 -0.00    +0.000 AC
DOCKED: ENDBRANCH  22  23
DOCKED: ENDBRANCH  21  22
DOCKED: ENDBRANCH   1  21
DOCKED: TORSDOF 10DOCKED: TER
DOCKED: ENDMDL
________________________________________________________________________________


	BEGINNING GENETIC ALGORITHM DOCKING 65 of 100
Run: 65 Seed: 576305041 129957178 [ Run 65 of 100 GA/GALS ]
Beginning LAMARCKIAN GENETIC ALGORITHM (LGA), with a maximum of 2500000 energy evaluations.

Final-Value: -17.374


	FINAL GENETIC ALGORITHM DOCKED STATE
	_______________________________________________


Detailed state:  trans 35.330 16.980 124.201 quatxyzw -0.173672 0.458379 0.451765 0.745410 center 0.288 0.007 -0.056 ntor 10 -30.3286 -161.7181 -82.1791 180.0000 -38.0922 -132.6278 -28.8113 -147.2911 16.6897 40.9000
State:	 35.330  16.980 124.201  -0.261  0.688  0.678 83.611    -30.33 -161.72  -82.18  180.00  -38.09 -132.63  -28.81 -147.29   16.69   40.90

DOCKED: MODEL       65
DOCKED: USER    Run = 65
DOCKED: USER    DPF = ligand_dock.biased.dpf
DOCKED: USER  
DOCKED: USER    Estimated Free Energy of Binding    =  -12.74 kcal/mol  [=(1)+(2)+(3)-(4)]
DOCKED: USER    Estimated Inhibition Constant, Ki   =  457.04 pM (picomolar)  [Temperature = 298.15 K]
DOCKED: USER    
DOCKED: USER    (1) Final Intermolecular Energy     =  -15.73 kcal/mol
DOCKED: USER        vdW + Hbond + desolv Energy     =  -15.73 kcal/mol
DOCKED: USER        Electrostatic Energy            =   +0.00 kcal/mol
DOCKED: USER    (2) Final Total Internal Energy     =   -1.65 kcal/mol
DOCKED: USER    (3) Torsional Free Energy           =   +2.98 kcal/mol
DOCKED: USER    (4) Unbound System's Energy  [=(2)] =   -1.65 kcal/mol
DOCKED: USER    
DOCKED: USER    
DOCKED: USER    NEWDPF move ligand.dum.pdbqt
DOCKED: USER    NEWDPF about 0.288000 0.007000 -0.056000
DOCKED: USER    NEWDPF tran0 35.330414 16.979843 124.200577
DOCKED: USER    NEWDPF quaternion0 -0.173672 0.458379 0.451765 0.745410
DOCKED: USER    NEWDPF axisangle0 -0.260531 0.687630 0.677708 83.611429
DOCKED: USER    NEWDPF quat0 -0.260531 0.687630 0.677708 83.611429
DOCKED: USER    NEWDPF dihe0 -30.33 -161.72 -82.18 180.00 -38.09 -132.63 -28.81 -147.29 16.69 40.90 
DOCKED: USER  keepresnum = 1 
DOCKED: USER  
DOCKED: REMARK  Name = 
DOCKED: REMARK  10 active torsions:
DOCKED: REMARK  status: ('A' for Active; 'I' for Inactive)
DOCKED: REMARK    1  A    between atoms: C_2  and  C_5
DOCKED: REMARK    2  A    between atoms: C_6  and  C_7
DOCKED: REMARK    3  A    between atoms: C_10  and  C_11
DOCKED: REMARK    4  A    between atoms: C_11  and  N_12
DOCKED: REMARK    5  A    between atoms: N_12  and  C_13
DOCKED: REMARK    6  A    between atoms: N_12  and  C_16
DOCKED: REMARK    7  A    between atoms: C_13  and  C_14
DOCKED: REMARK    8  A    between atoms: C_14  and  O_15
DOCKED: REMARK    9  A    between atoms: C_16  and  C_17
DOCKED: REMARK   10  A    between atoms: C_17  and  C_18
DOCKED: REMARK                            x       y       z     vdW  Elec       q    Type
DOCKED: REMARK                         _______ _______ _______ _____ _____    ______ ____
DOCKED: USER                              x       y       z     vdW  Elec       q    Type
DOCKED: USER                           _______ _______ _______ _____ _____    ______ ____
DOCKED: ROOT
DOCKED: ATOM      1  N   UNL     1      34.950  17.900 123.311 -0.31 -0.00    +0.000 N 
DOCKED: ATOM      2  H   UNL     1      35.200  18.808 122.920 -0.01 -0.00    +0.000 HD
DOCKED: ENDROOT
DOCKED: BRANCH   1   3
DOCKED: ATOM      3  C   UNL     1      36.241  17.371 123.823 -0.29 -0.00    +0.000 C 
DOCKED: BRANCH   3   7
DOCKED: ATOM      4  C   UNL     1      36.669  13.070 123.402 -0.55 -0.00    +0.000 A 
DOCKED: ATOM      5  C   UNL     1      35.567  13.616 124.078 -0.27 -0.00    +0.000 A 
DOCKED: ATOM      6  C   UNL     1      35.428  15.000 124.211 -0.47 -0.00    +0.000 A 
DOCKED: ATOM      7  C   UNL     1      36.403  15.869 123.696 -0.34 -0.00    +0.000 A 
DOCKED: ATOM      8  C   UNL     1      37.500  15.325 123.008 -0.34 -0.00    +0.000 A 
DOCKED: ATOM      9  C   UNL     1      37.641  13.941 122.873 -0.45 -0.00    +0.000 A 
DOCKED: ATOM     10  CM  UNL     1      36.534  14.469 123.545 +0.00 -0.00    +0.000 AC
DOCKED: BRANCH   4  11
DOCKED: ATOM     11  C   UNL     1      36.834  10.930 122.134 -0.60 -0.00    +0.000 C 
DOCKED: ATOM     12  C   UNL     1      36.777  11.593 123.298 -0.69 -0.00    +0.000 C 
DOCKED: BRANCH  10  13
DOCKED: ATOM     13  O   UNL     1      36.959   8.862 120.960 -2.68 -0.00    +0.000 OA
DOCKED: ATOM     14  C   UNL     1      36.931   9.458 122.071 -0.65 -0.00    +0.000 C 
DOCKED: ATOM     15  N   UNL     1      36.991   8.700 123.281 -0.67 -0.00    +0.000 N 
DOCKED: ATOM     16  O   UNL     1      37.080   7.349 123.241 -2.37 -0.00    +0.000 OA
DOCKED: ATOM     17  H   UNL     1      36.969   9.163 124.151 -0.54 -0.00    +0.000 HD
DOCKED: ENDBRANCH  10  13
DOCKED: ENDBRANCH   4  11
DOCKED: ENDBRANCH   3   7
DOCKED: ENDBRANCH   1   3
DOCKED: BRANCH   1  17
DOCKED: ATOM     18  C   UNL     1      33.946  18.217 124.353 -0.31 -0.00    +0.000 C 
DOCKED: BRANCH  17  18
DOCKED: ATOM     19  C   UNL     1      34.355  17.659 125.719 -0.39 -0.00    +0.000 C 
DOCKED: BRANCH  18  19
DOCKED: ATOM     20  O   UNL     1      33.558  16.553 126.041 -0.68 -0.00    +0.000 OA
DOCKED: ATOM     21  H   UNL     1      32.775  16.851 126.530 -0.11 -0.00    +0.000 HD
DOCKED: ENDBRANCH  18  19
DOCKED: ENDBRANCH  17  18
DOCKED: ENDBRANCH   1  17
DOCKED: BRANCH   1  21
DOCKED: ATOM     22  C   UNL     1      34.389  17.110 122.190 -0.35 -0.00    +0.000 C 
DOCKED: BRANCH  21  22
DOCKED: ATOM     23  C   UNL     1      35.222  17.314 120.921 -0.21 -0.00    +0.000 C 
DOCKED: BRANCH  22  23
DOCKED: ATOM     24  C   UNL     1      34.702  18.472 120.119 -0.24 -0.00    +0.000 A 
DOCKED: ATOM     25  C   UNL     1      35.462  19.354 119.358 -0.15 -0.00    +0.000 A 
DOCKED: ATOM     26  N   UNL     1      34.661  20.191 118.661 -0.15 -0.00    +0.000 N 
DOCKED: ATOM     27  C   UNL     1      33.400  19.834 118.963 -0.18 -0.00    +0.000 A 
DOCKED: ATOM     28  C   UNL     1      33.383  18.786 119.847 -0.30 -0.00    +0.000 A 
DOCKED: ATOM     29  C   UNL     1      32.187  18.215 120.286 -0.42 -0.00    +0.000 A 
DOCKED: ATOM     30  C   UNL     1      30.984  18.751 119.792 -0.44 -0.00    +0.000 A 
DOCKED: ATOM     31  C   UNL     1      31.002  19.831 118.882 -0.33 -0.00    +0.000 A 
DOCKED: ATOM     32  C   UNL     1      32.223  20.383 118.455 -0.21 -0.00    +0.000 A 
DOCKED: ATOM     33  H   UNL     1      34.942  20.914 118.056 -0.02 -0.00    +0.000 HD
DOCKED: ATOM     34  CM  UNL     1      34.333  19.355 119.366 +0.00 -0.00    +0.000 AC
DOCKED: ATOM     35  CM  UNL     1      32.197  19.300 119.371 +0.00 -0.00    +0.000 AC
DOCKED: ENDBRANCH  22  23
DOCKED: ENDBRANCH  21  22
DOCKED: ENDBRANCH   1  21
DOCKED: TORSDOF 10DOCKED: TER
DOCKED: ENDMDL
________________________________________________________________________________


	BEGINNING GENETIC ALGORITHM DOCKING 66 of 100
Run: 66 Seed: 2002882685 289399873 [ Run 66 of 100 GA/GALS ]
Beginning LAMARCKIAN GENETIC ALGORITHM (LGA), with a maximum of 2500000 energy evaluations.

Final-Value: -16.273


	FINAL GENETIC ALGORITHM DOCKED STATE
	_______________________________________________


Detailed state:  trans 38.084 17.552 123.116 quatxyzw -0.480736 0.249377 -0.839187 -0.049695 center 0.288 0.007 -0.056 ntor 10 180.0000 132.7638 -179.6502 -37.1830 47.8358 154.5510 148.7484 -175.0712 79.2445 -90.7290
State:	 38.084  17.552 123.116  -0.481  0.250 -0.840 -174.303    180.00  132.76 -179.65  -37.18   47.84  154.55  148.75 -175.07   79.24  -90.73

DOCKED: MODEL       66
DOCKED: USER    Run = 66
DOCKED: USER    DPF = ligand_dock.biased.dpf
DOCKED: USER  
DOCKED: USER    Estimated Free Energy of Binding    =  -11.40 kcal/mol  [=(1)+(2)+(3)-(4)]
DOCKED: USER    Estimated Inhibition Constant, Ki   =    4.42 nM (nanomolar)  [Temperature = 298.15 K]
DOCKED: USER    
DOCKED: USER    (1) Final Intermolecular Energy     =  -14.38 kcal/mol
DOCKED: USER        vdW + Hbond + desolv Energy     =  -14.38 kcal/mol
DOCKED: USER        Electrostatic Energy            =   +0.00 kcal/mol
DOCKED: USER    (2) Final Total Internal Energy     =   -1.89 kcal/mol
DOCKED: USER    (3) Torsional Free Energy           =   +2.98 kcal/mol
DOCKED: USER    (4) Unbound System's Energy  [=(2)] =   -1.89 kcal/mol
DOCKED: USER    
DOCKED: USER    
DOCKED: USER    NEWDPF move ligand.dum.pdbqt
DOCKED: USER    NEWDPF about 0.288000 0.007000 -0.056000
DOCKED: USER    NEWDPF tran0 38.083972 17.552073 123.115992
DOCKED: USER    NEWDPF quaternion0 -0.480736 0.249377 -0.839187 -0.049695
DOCKED: USER    NEWDPF axisangle0 -0.481330 0.249685 -0.840225 -174.303070
DOCKED: USER    NEWDPF quat0 -0.481330 0.249685 -0.840225 -174.303070
DOCKED: USER    NEWDPF dihe0 180.00 132.76 -179.65 -37.18 47.84 154.55 148.75 -175.07 79.24 -90.73 
DOCKED: USER  keepresnum = 1 
DOCKED: USER  
DOCKED: REMARK  Name = 
DOCKED: REMARK  10 active torsions:
DOCKED: REMARK  status: ('A' for Active; 'I' for Inactive)
DOCKED: REMARK    1  A    between atoms: C_2  and  C_5
DOCKED: REMARK    2  A    between atoms: C_6  and  C_7
DOCKED: REMARK    3  A    between atoms: C_10  and  C_11
DOCKED: REMARK    4  A    between atoms: C_11  and  N_12
DOCKED: REMARK    5  A    between atoms: N_12  and  C_13
DOCKED: REMARK    6  A    between atoms: N_12  and  C_16
DOCKED: REMARK    7  A    between atoms: C_13  and  C_14
DOCKED: REMARK    8  A    between atoms: C_14  and  O_15
DOCKED: REMARK    9  A    between atoms: C_16  and  C_17
DOCKED: REMARK   10  A    between atoms: C_17  and  C_18
DOCKED: REMARK                            x       y       z     vdW  Elec       q    Type
DOCKED: REMARK                         _______ _______ _______ _____ _____    ______ ____
DOCKED: USER                              x       y       z     vdW  Elec       q    Type
DOCKED: USER                           _______ _______ _______ _____ _____    ______ ____
DOCKED: ROOT
DOCKED: ATOM      1  N   UNL     1      38.825  18.237 122.242 -0.09 -0.00    +0.000 N 
DOCKED: ATOM      2  H   UNL     1      39.033  18.333 121.248 +0.00 -0.00    +0.000 HD
DOCKED: ENDROOT
DOCKED: BRANCH   1   3
DOCKED: ATOM      3  C   UNL     1      37.466  17.637 122.259 -0.16 -0.00    +0.000 C 
DOCKED: BRANCH   3   7
DOCKED: ATOM      4  C   UNL     1      37.453  13.318 121.804 -0.43 -0.00    +0.000 A 
DOCKED: ATOM      5  C   UNL     1      37.535  14.155 120.681 -0.32 -0.00    +0.000 A 
DOCKED: ATOM      6  C   UNL     1      37.542  15.545 120.828 -0.20 -0.00    +0.000 A 
DOCKED: ATOM      7  C   UNL     1      37.438  16.130 122.100 -0.22 -0.00    +0.000 A 
DOCKED: ATOM      8  C   UNL     1      37.369  15.294 123.227 -0.34 -0.00    +0.000 A 
DOCKED: ATOM      9  C   UNL     1      37.363  13.903 123.082 -0.47 -0.00    +0.000 A 
DOCKED: ATOM     10  CM  UNL     1      37.450  14.724 121.953 +0.00 -0.00    +0.000 AC
DOCKED: BRANCH   4  11
DOCKED: ATOM     11  C   UNL     1      36.863  10.981 122.439 -0.62 -0.00    +0.000 C 
DOCKED: ATOM     12  C   UNL     1      37.438  11.849 121.594 -0.44 -0.00    +0.000 C 
DOCKED: BRANCH  10  13
DOCKED: ATOM     13  O   UNL     1      36.741   9.062 121.034 -2.62 -0.00    +0.000 OA
DOCKED: ATOM     14  C   UNL     1      36.878   9.524 122.200 -0.66 -0.00    +0.000 C 
DOCKED: ATOM     15  N   UNL     1      37.047   8.627 123.300 -0.68 -0.00    +0.000 N 
DOCKED: ATOM     16  O   UNL     1      37.063   7.289 123.098 -2.27 -0.00    +0.000 OA
DOCKED: ATOM     17  H   UNL     1      37.154   8.985 124.212 -0.57 -0.00    +0.000 HD
DOCKED: ENDBRANCH  10  13
DOCKED: ENDBRANCH   4  11
DOCKED: ENDBRANCH   3   7
DOCKED: ENDBRANCH   1   3
DOCKED: BRANCH   1  17
DOCKED: ATOM     18  C   UNL     1      39.902  17.362 122.759 -0.21 -0.00    +0.000 C 
DOCKED: BRANCH  17  18
DOCKED: ATOM     19  C   UNL     1      40.427  17.851 124.111 -0.30 -0.00    +0.000 C 
DOCKED: BRANCH  18  19
DOCKED: ATOM     20  O   UNL     1      41.554  17.106 124.483 -0.70 -0.00    +0.000 OA
DOCKED: ATOM     21  H   UNL     1      42.315  17.698 124.580 -0.60 -0.00    +0.000 HD
DOCKED: ENDBRANCH  18  19
DOCKED: ENDBRANCH  17  18
DOCKED: ENDBRANCH   1  17
DOCKED: BRANCH   1  21
DOCKED: ATOM     22  C   UNL     1      38.874  19.607 122.806 -0.06 -0.00    +0.000 C 
DOCKED: BRANCH  21  22
DOCKED: ATOM     23  C   UNL     1      37.458  20.129 123.070 -0.11 -0.00    +0.000 C 
DOCKED: BRANCH  22  23
DOCKED: ATOM     24  C   UNL     1      36.986  19.728 124.438 -0.12 -0.00    +0.000 A 
DOCKED: ATOM     25  C   UNL     1      37.420  20.261 125.647 -0.08 -0.00    +0.000 A 
DOCKED: ATOM     26  N   UNL     1      36.689  19.766 126.672 -0.11 -0.00    +0.000 N 
DOCKED: ATOM     27  C   UNL     1      35.786  18.938 126.117 -0.17 -0.00    +0.000 A 
DOCKED: ATOM     28  C   UNL     1      35.932  18.891 124.754 -0.20 -0.00    +0.000 A 
DOCKED: ATOM     29  C   UNL     1      35.087  18.124 123.952 -0.29 -0.00    +0.000 A 
DOCKED: ATOM     30  C   UNL     1      34.068  17.389 124.585 -0.38 -0.00    +0.000 A 
DOCKED: ATOM     31  C   UNL     1      33.918  17.437 125.988 -0.36 -0.00    +0.000 A 
DOCKED: ATOM     32  C   UNL     1      34.783  18.222 126.772 -0.20 -0.00    +0.000 A 
DOCKED: ATOM     33  H   UNL     1      36.795  19.970 127.629 +0.00 -0.00    +0.000 HD
DOCKED: ATOM     34  CM  UNL     1      36.566  19.525 125.562 -0.00 -0.00    +0.000 AC
DOCKED: ATOM     35  CM  UNL     1      34.930  18.167 125.361 -0.40 -0.00    +0.000 AC
DOCKED: ENDBRANCH  22  23
DOCKED: ENDBRANCH  21  22
DOCKED: ENDBRANCH   1  21
DOCKED: TORSDOF 10DOCKED: TER
DOCKED: ENDMDL
________________________________________________________________________________


	BEGINNING GENETIC ALGORITHM DOCKING 67 of 100
Run: 67 Seed: 460194190 1054127353 [ Run 67 of 100 GA/GALS ]
Beginning LAMARCKIAN GENETIC ALGORITHM (LGA), with a maximum of 2500000 energy evaluations.

Final-Value: -16.749


	FINAL GENETIC ALGORITHM DOCKED STATE
	_______________________________________________


Detailed state:  trans 37.202 18.096 123.416 quatxyzw 0.995978 0.021262 -0.052574 0.069368 center 0.288 0.007 -0.056 ntor 10 112.1156 -66.2120 54.2177 -46.7045 179.2958 168.4325 -9.2559 -163.1949 33.2401 -105.7320
State:	 37.202  18.096 123.416   0.998  0.021 -0.053 172.045    112.12  -66.21   54.22  -46.70  179.30  168.43   -9.26 -163.19   33.24 -105.73

DOCKED: MODEL       67
DOCKED: USER    Run = 67
DOCKED: USER    DPF = ligand_dock.biased.dpf
DOCKED: USER  
DOCKED: USER    Estimated Free Energy of Binding    =  -11.13 kcal/mol  [=(1)+(2)+(3)-(4)]
DOCKED: USER    Estimated Inhibition Constant, Ki   =    6.95 nM (nanomolar)  [Temperature = 298.15 K]
DOCKED: USER    
DOCKED: USER    (1) Final Intermolecular Energy     =  -14.11 kcal/mol
DOCKED: USER        vdW + Hbond + desolv Energy     =  -14.11 kcal/mol
DOCKED: USER        Electrostatic Energy            =   +0.00 kcal/mol
DOCKED: USER    (2) Final Total Internal Energy     =   -2.64 kcal/mol
DOCKED: USER    (3) Torsional Free Energy           =   +2.98 kcal/mol
DOCKED: USER    (4) Unbound System's Energy  [=(2)] =   -2.64 kcal/mol
DOCKED: USER    
DOCKED: USER    
DOCKED: USER    NEWDPF move ligand.dum.pdbqt
DOCKED: USER    NEWDPF about 0.288000 0.007000 -0.056000
DOCKED: USER    NEWDPF tran0 37.202187 18.096370 123.416096
DOCKED: USER    NEWDPF quaternion0 0.995978 0.021262 -0.052574 0.069368
DOCKED: USER    NEWDPF axisangle0 0.998383 0.021314 -0.052701 172.044629
DOCKED: USER    NEWDPF quat0 0.998383 0.021314 -0.052701 172.044629
DOCKED: USER    NEWDPF dihe0 112.12 -66.21 54.22 -46.70 179.30 168.43 -9.26 -163.19 33.24 -105.73 
DOCKED: USER  keepresnum = 1 
DOCKED: USER  
DOCKED: REMARK  Name = 
DOCKED: REMARK  10 active torsions:
DOCKED: REMARK  status: ('A' for Active; 'I' for Inactive)
DOCKED: REMARK    1  A    between atoms: C_2  and  C_5
DOCKED: REMARK    2  A    between atoms: C_6  and  C_7
DOCKED: REMARK    3  A    between atoms: C_10  and  C_11
DOCKED: REMARK    4  A    between atoms: C_11  and  N_12
DOCKED: REMARK    5  A    between atoms: N_12  and  C_13
DOCKED: REMARK    6  A    between atoms: N_12  and  C_16
DOCKED: REMARK    7  A    between atoms: C_13  and  C_14
DOCKED: REMARK    8  A    between atoms: C_14  and  O_15
DOCKED: REMARK    9  A    between atoms: C_16  and  C_17
DOCKED: REMARK   10  A    between atoms: C_17  and  C_18
DOCKED: REMARK                            x       y       z     vdW  Elec       q    Type
DOCKED: REMARK                         _______ _______ _______ _____ _____    ______ ____
DOCKED: USER                              x       y       z     vdW  Elec       q    Type
DOCKED: USER                           _______ _______ _______ _____ _____    ______ ____
DOCKED: ROOT
DOCKED: ATOM      1  N   UNL     1      35.900  18.334 123.590 -0.21 -0.00    +0.000 N 
DOCKED: ATOM      2  H   UNL     1      35.028  17.907 123.904 -0.00 -0.00    +0.000 HD
DOCKED: ENDROOT
DOCKED: BRANCH   1   3
DOCKED: ATOM      3  C   UNL     1      36.948  17.538 124.281 -0.22 -0.00    +0.000 C 
DOCKED: BRANCH   3   7
DOCKED: ATOM      4  C   UNL     1      37.267  13.448 122.856 -0.49 -0.00    +0.000 A 
DOCKED: ATOM      5  C   UNL     1      36.160  13.857 123.615 -0.49 -0.00    +0.000 A 
DOCKED: ATOM      6  C   UNL     1      36.056  15.173 124.071 -0.37 -0.00    +0.000 A 
DOCKED: ATOM      7  C   UNL     1      37.071  16.105 123.802 -0.24 -0.00    +0.000 A 
DOCKED: ATOM      8  C   UNL     1      38.175  15.702 123.032 -0.29 -0.00    +0.000 A 
DOCKED: ATOM      9  C   UNL     1      38.280  14.385 122.574 -0.40 -0.00    +0.000 A 
DOCKED: ATOM     10  CM  UNL     1      37.167  14.778 123.325 +0.00 -0.00    +0.000 AC
DOCKED: BRANCH   4  11
DOCKED: ATOM     11  C   UNL     1      36.662  11.033 122.987 -0.69 -0.00    +0.000 C 
DOCKED: ATOM     12  C   UNL     1      37.336  12.035 122.405 -0.50 -0.00    +0.000 C 
DOCKED: BRANCH  10  13
DOCKED: ATOM     13  O   UNL     1      36.655   9.365 121.288 -2.39 -0.00    +0.000 OA
DOCKED: ATOM     14  C   UNL     1      36.765   9.638 122.514 -0.69 -0.00    +0.000 C 
DOCKED: ATOM     15  N   UNL     1      36.990   8.586 123.455 -0.66 -0.00    +0.000 N 
DOCKED: ATOM     16  O   UNL     1      37.087   7.301 123.038 -2.23 -0.00    +0.000 OA
DOCKED: ATOM     17  H   UNL     1      37.076   8.796 124.413 -0.53 -0.00    +0.000 HD
DOCKED: ENDBRANCH  10  13
DOCKED: ENDBRANCH   4  11
DOCKED: ENDBRANCH   3   7
DOCKED: ENDBRANCH   1   3
DOCKED: BRANCH   1  17
DOCKED: ATOM     18  C   UNL     1      35.870  18.185 122.117 -0.24 -0.00    +0.000 C 
DOCKED: BRANCH  17  18
DOCKED: ATOM     19  C   UNL     1      34.488  17.751 121.621 -0.36 -0.00    +0.000 C 
DOCKED: BRANCH  18  19
DOCKED: ATOM     20  O   UNL     1      33.693  17.362 122.707 -0.45 -0.00    +0.000 OA
DOCKED: ATOM     21  H   UNL     1      33.699  18.061 123.379 -0.03 -0.00    +0.000 HD
DOCKED: ENDBRANCH  18  19
DOCKED: ENDBRANCH  17  18
DOCKED: ENDBRANCH   1  17
DOCKED: BRANCH   1  21
DOCKED: ATOM     22  C   UNL     1      35.846  19.748 124.029 -0.19 -0.00    +0.000 C 
DOCKED: BRANCH  21  22
DOCKED: ATOM     23  C   UNL     1      35.687  19.832 125.551 -0.18 -0.00    +0.000 C 
DOCKED: BRANCH  22  23
DOCKED: ATOM     24  C   UNL     1      34.318  19.383 125.973 -0.21 -0.00    +0.000 A 
DOCKED: ATOM     25  C   UNL     1      33.929  18.076 126.245 -0.31 -0.00    +0.000 A 
DOCKED: ATOM     26  N   UNL     1      32.666  18.049 126.727 -0.21 -0.00    +0.000 N 
DOCKED: ATOM     27  C   UNL     1      32.260  19.330 126.778 -0.24 -0.00    +0.000 A 
DOCKED: ATOM     28  C   UNL     1      33.243  20.175 126.329 -0.16 -0.00    +0.000 A 
DOCKED: ATOM     29  C   UNL     1      33.070  21.560 126.317 -0.14 -0.00    +0.000 A 
DOCKED: ATOM     30  C   UNL     1      31.846  22.073 126.782 -0.18 -0.00    +0.000 A 
DOCKED: ATOM     31  C   UNL     1      30.834  21.203 127.244 -0.21 -0.00    +0.000 A 
DOCKED: ATOM     32  C   UNL     1      31.038  19.811 127.247 -0.27 -0.00    +0.000 A 
DOCKED: ATOM     33  H   UNL     1      32.148  17.254 126.989 -0.30 -0.00    +0.000 HD
DOCKED: ATOM     34  CM  UNL     1      33.263  18.972 126.421 -0.00 -0.00    +0.000 AC
DOCKED: ATOM     35  CM  UNL     1      32.049  20.692 126.782 +0.00 -0.00    +0.000 AC
DOCKED: ENDBRANCH  22  23
DOCKED: ENDBRANCH  21  22
DOCKED: ENDBRANCH   1  21
DOCKED: TORSDOF 10DOCKED: TER
DOCKED: ENDMDL
________________________________________________________________________________


	BEGINNING GENETIC ALGORITHM DOCKING 68 of 100
Run: 68 Seed: 1022991615 1433060355 [ Run 68 of 100 GA/GALS ]
Beginning LAMARCKIAN GENETIC ALGORITHM (LGA), with a maximum of 2500000 energy evaluations.

Final-Value: -16.692


	FINAL GENETIC ALGORITHM DOCKED STATE
	_______________________________________________


Detailed state:  trans 38.635 17.010 121.576 quatxyzw 0.388178 0.449378 0.752253 -0.285470 center 0.288 0.007 -0.056 ntor 10 -104.7117 -8.6714 1.6971 -96.7018 178.3546 -141.1886 -32.2674 -126.7265 73.5286 -167.2083
State:	 38.635  17.010 121.576   0.405  0.469  0.785 -146.826   -104.71   -8.67    1.70  -96.70  178.35 -141.19  -32.27 -126.73   73.53 -167.21

DOCKED: MODEL       68
DOCKED: USER    Run = 68
DOCKED: USER    DPF = ligand_dock.biased.dpf
DOCKED: USER  
DOCKED: USER    Estimated Free Energy of Binding    =  -10.94 kcal/mol  [=(1)+(2)+(3)-(4)]
DOCKED: USER    Estimated Inhibition Constant, Ki   =    9.53 nM (nanomolar)  [Temperature = 298.15 K]
DOCKED: USER    
DOCKED: USER    (1) Final Intermolecular Energy     =  -13.93 kcal/mol
DOCKED: USER        vdW + Hbond + desolv Energy     =  -13.93 kcal/mol
DOCKED: USER        Electrostatic Energy            =   +0.00 kcal/mol
DOCKED: USER    (2) Final Total Internal Energy     =   -2.77 kcal/mol
DOCKED: USER    (3) Torsional Free Energy           =   +2.98 kcal/mol
DOCKED: USER    (4) Unbound System's Energy  [=(2)] =   -2.77 kcal/mol
DOCKED: USER    
DOCKED: USER    
DOCKED: USER    NEWDPF move ligand.dum.pdbqt
DOCKED: USER    NEWDPF about 0.288000 0.007000 -0.056000
DOCKED: USER    NEWDPF tran0 38.634988 17.009896 121.575601
DOCKED: USER    NEWDPF quaternion0 0.388178 0.449378 0.752253 -0.285470
DOCKED: USER    NEWDPF axisangle0 0.405032 0.468889 0.784915 -146.826074
DOCKED: USER    NEWDPF quat0 0.405032 0.468889 0.784915 -146.826074
DOCKED: USER    NEWDPF dihe0 -104.71 -8.67 1.70 -96.70 178.35 -141.19 -32.27 -126.73 73.53 -167.21 
DOCKED: USER  keepresnum = 1 
DOCKED: USER  
DOCKED: REMARK  Name = 
DOCKED: REMARK  10 active torsions:
DOCKED: REMARK  status: ('A' for Active; 'I' for Inactive)
DOCKED: REMARK    1  A    between atoms: C_2  and  C_5
DOCKED: REMARK    2  A    between atoms: C_6  and  C_7
DOCKED: REMARK    3  A    between atoms: C_10  and  C_11
DOCKED: REMARK    4  A    between atoms: C_11  and  N_12
DOCKED: REMARK    5  A    between atoms: N_12  and  C_13
DOCKED: REMARK    6  A    between atoms: N_12  and  C_16
DOCKED: REMARK    7  A    between atoms: C_13  and  C_14
DOCKED: REMARK    8  A    between atoms: C_14  and  O_15
DOCKED: REMARK    9  A    between atoms: C_16  and  C_17
DOCKED: REMARK   10  A    between atoms: C_17  and  C_18
DOCKED: REMARK                            x       y       z     vdW  Elec       q    Type
DOCKED: REMARK                         _______ _______ _______ _____ _____    ______ ____
DOCKED: USER                              x       y       z     vdW  Elec       q    Type
DOCKED: USER                           _______ _______ _______ _____ _____    ______ ____
DOCKED: ROOT
DOCKED: ATOM      1  N   UNL     1      39.357  16.131 120.876 -0.16 -0.00    +0.000 N 
DOCKED: ATOM      2  H   UNL     1      39.591  15.140 120.807 -0.01 -0.00    +0.000 HD
DOCKED: ENDROOT
DOCKED: BRANCH   1   3
DOCKED: ATOM      3  C   UNL     1      38.042  16.132 121.569 -0.21 -0.00    +0.000 C 
DOCKED: BRANCH   3   7
DOCKED: ATOM      4  C   UNL     1      36.799  12.233 123.023 -0.58 -0.00    +0.000 A 
DOCKED: ATOM      5  C   UNL     1      37.522  12.352 121.827 -0.38 -0.00    +0.000 A 
DOCKED: ATOM      6  C   UNL     1      37.925  13.607 121.360 -0.39 -0.00    +0.000 A 
DOCKED: ATOM      7  C   UNL     1      37.588  14.773 122.065 -0.33 -0.00    +0.000 A 
DOCKED: ATOM      8  C   UNL     1      36.875  14.655 123.270 -0.41 -0.00    +0.000 A 
DOCKED: ATOM      9  C   UNL     1      36.472  13.401 123.739 -0.49 -0.00    +0.000 A 
DOCKED: ATOM     10  CM  UNL     1      37.197  13.503 122.547 +0.00 -0.00    +0.000 AC
DOCKED: BRANCH   4  11
DOCKED: ATOM     11  C   UNL     1      36.264   9.827 122.648 -0.70 -0.00    +0.000 C 
DOCKED: ATOM     12  C   UNL     1      36.385  10.879 123.470 -0.65 -0.00    +0.000 C 
DOCKED: BRANCH  10  13
DOCKED: ATOM     13  O   UNL     1      36.691   7.603 123.382 -2.38 -0.00    +0.000 OA
DOCKED: ATOM     14  C   UNL     1      35.839   8.498 123.130 -0.69 -0.00    +0.000 C 
DOCKED: ATOM     15  N   UNL     1      34.449   8.220 123.311 -0.63 -0.00    +0.000 N 
DOCKED: ATOM     16  O   UNL     1      34.043   7.006 123.752 -0.80 -0.00    +0.000 OA
DOCKED: ATOM     17  H   UNL     1      33.781   8.917 123.115 -0.39 -0.00    +0.000 HD
DOCKED: ENDBRANCH  10  13
DOCKED: ENDBRANCH   4  11
DOCKED: ENDBRANCH   3   7
DOCKED: ENDBRANCH   1   3
DOCKED: BRANCH   1  17
DOCKED: ATOM     18  C   UNL     1      40.473  16.717 121.653 -0.21 -0.00    +0.000 C 
DOCKED: BRANCH  17  18
DOCKED: ATOM     19  C   UNL     1      40.902  15.803 122.804 -0.41 -0.00    +0.000 C 
DOCKED: BRANCH  18  19
DOCKED: ATOM     20  O   UNL     1      41.021  14.485 122.346 -1.09 -0.00    +0.000 OA
DOCKED: ATOM     21  H   UNL     1      41.056  13.881 123.104 -0.07 +0.00    +0.000 HD
DOCKED: ENDBRANCH  18  19
DOCKED: ENDBRANCH  17  18
DOCKED: ENDBRANCH   1  17
DOCKED: BRANCH   1  21
DOCKED: ATOM     22  C   UNL     1      39.293  16.636 119.485 -0.12 -0.00    +0.000 C 
DOCKED: BRANCH  21  22
DOCKED: ATOM     23  C   UNL     1      37.840  16.700 119.003 -0.11 -0.00    +0.000 C 
DOCKED: BRANCH  22  23
DOCKED: ATOM     24  C   UNL     1      37.458  15.440 118.281 -0.18 -0.00    +0.000 A 
DOCKED: ATOM     25  C   UNL     1      36.261  14.745 118.415 -0.24 -0.00    +0.000 A 
DOCKED: ATOM     26  N   UNL     1      36.198  13.734 117.519 -0.38 -0.00    +0.000 N 
DOCKED: ATOM     27  C   UNL     1      37.338  13.795 116.809 -0.34 -0.00    +0.000 A 
DOCKED: ATOM     28  C   UNL     1      38.133  14.826 117.242 -0.21 -0.00    +0.000 A 
DOCKED: ATOM     29  C   UNL     1      39.357  15.113 116.636 -0.20 -0.00    +0.000 A 
DOCKED: ATOM     30  C   UNL     1      39.761  14.306 115.557 -0.36 -0.00    +0.000 A 
DOCKED: ATOM     31  C   UNL     1      38.943  13.244 115.112 -0.41 -0.00    +0.000 A 
DOCKED: ATOM     32  C   UNL     1      37.712  12.981 115.740 -0.35 -0.00    +0.000 A 
DOCKED: ATOM     33  H   UNL     1      35.467  13.085 117.408 -0.05 -0.00    +0.000 HD
DOCKED: ATOM     34  CM  UNL     1      37.049  14.483 117.649 +0.00 -0.00    +0.000 AC
DOCKED: ATOM     35  CM  UNL     1      38.541  14.044 116.183 +0.00 -0.00    +0.000 AC
DOCKED: ENDBRANCH  22  23
DOCKED: ENDBRANCH  21  22
DOCKED: ENDBRANCH   1  21
DOCKED: TORSDOF 10DOCKED: TER
DOCKED: ENDMDL
________________________________________________________________________________


	BEGINNING GENETIC ALGORITHM DOCKING 69 of 100
Run: 69 Seed: 444981959 844110063 [ Run 69 of 100 GA/GALS ]
Beginning LAMARCKIAN GENETIC ALGORITHM (LGA), with a maximum of 2500000 energy evaluations.

Final-Value: -17.170


	FINAL GENETIC ALGORITHM DOCKED STATE
	_______________________________________________


Detailed state:  trans 37.262 18.473 122.842 quatxyzw -0.786338 -0.037533 0.388966 -0.478508 center 0.288 0.007 -0.056 ntor 10 -26.2824 -10.7046 -2.9783 -172.4843 -35.7948 -149.9832 -56.1619 -99.3873 126.9996 178.3736
State:	 37.262  18.473 122.842  -0.896 -0.043  0.443 -122.824    -26.28  -10.70   -2.98 -172.48  -35.79 -149.98  -56.16  -99.39  127.00  178.37

DOCKED: MODEL       69
DOCKED: USER    Run = 69
DOCKED: USER    DPF = ligand_dock.biased.dpf
DOCKED: USER  
DOCKED: USER    Estimated Free Energy of Binding    =  -11.82 kcal/mol  [=(1)+(2)+(3)-(4)]
DOCKED: USER    Estimated Inhibition Constant, Ki   =    2.16 nM (nanomolar)  [Temperature = 298.15 K]
DOCKED: USER    
DOCKED: USER    (1) Final Intermolecular Energy     =  -14.80 kcal/mol
DOCKED: USER        vdW + Hbond + desolv Energy     =  -14.80 kcal/mol
DOCKED: USER        Electrostatic Energy            =   +0.00 kcal/mol
DOCKED: USER    (2) Final Total Internal Energy     =   -2.37 kcal/mol
DOCKED: USER    (3) Torsional Free Energy           =   +2.98 kcal/mol
DOCKED: USER    (4) Unbound System's Energy  [=(2)] =   -2.37 kcal/mol
DOCKED: USER    
DOCKED: USER    
DOCKED: USER    NEWDPF move ligand.dum.pdbqt
DOCKED: USER    NEWDPF about 0.288000 0.007000 -0.056000
DOCKED: USER    NEWDPF tran0 37.262497 18.472534 122.842224
DOCKED: USER    NEWDPF quaternion0 -0.786338 -0.037533 0.388966 -0.478508
DOCKED: USER    NEWDPF axisangle0 -0.895516 -0.042744 0.442972 -122.824040
DOCKED: USER    NEWDPF quat0 -0.895516 -0.042744 0.442972 -122.824040
DOCKED: USER    NEWDPF dihe0 -26.28 -10.70 -2.98 -172.48 -35.79 -149.98 -56.16 -99.39 127.00 178.37 
DOCKED: USER  keepresnum = 1 
DOCKED: USER  
DOCKED: REMARK  Name = 
DOCKED: REMARK  10 active torsions:
DOCKED: REMARK  status: ('A' for Active; 'I' for Inactive)
DOCKED: REMARK    1  A    between atoms: C_2  and  C_5
DOCKED: REMARK    2  A    between atoms: C_6  and  C_7
DOCKED: REMARK    3  A    between atoms: C_10  and  C_11
DOCKED: REMARK    4  A    between atoms: C_11  and  N_12
DOCKED: REMARK    5  A    between atoms: N_12  and  C_13
DOCKED: REMARK    6  A    between atoms: N_12  and  C_16
DOCKED: REMARK    7  A    between atoms: C_13  and  C_14
DOCKED: REMARK    8  A    between atoms: C_14  and  O_15
DOCKED: REMARK    9  A    between atoms: C_16  and  C_17
DOCKED: REMARK   10  A    between atoms: C_17  and  C_18
DOCKED: REMARK                            x       y       z     vdW  Elec       q    Type
DOCKED: REMARK                         _______ _______ _______ _____ _____    ______ ____
DOCKED: USER                              x       y       z     vdW  Elec       q    Type
DOCKED: USER                           _______ _______ _______ _____ _____    ______ ____
DOCKED: ROOT
DOCKED: ATOM      1  N   UNL     1      36.454  18.077 123.829 -0.20 -0.00    +0.000 N 
DOCKED: ATOM      2  H   UNL     1      35.884  17.296 124.151 -0.01 -0.00    +0.000 HD
DOCKED: ENDROOT
DOCKED: BRANCH   1   3
DOCKED: ATOM      3  C   UNL     1      37.458  17.435 122.940 -0.20 -0.00    +0.000 C 
DOCKED: BRANCH   3   7
DOCKED: ATOM      4  C   UNL     1      37.340  13.094 122.932 -0.51 -0.00    +0.000 A 
DOCKED: ATOM      5  C   UNL     1      36.561  13.829 123.838 -0.42 -0.00    +0.000 A 
DOCKED: ATOM      6  C   UNL     1      36.596  15.226 123.839 -0.34 -0.00    +0.000 A 
DOCKED: ATOM      7  C   UNL     1      37.434  15.919 122.952 -0.29 -0.00    +0.000 A 
DOCKED: ATOM      8  C   UNL     1      38.206  15.187 122.035 -0.30 -0.00    +0.000 A 
DOCKED: ATOM      9  C   UNL     1      38.171  13.789 122.032 -0.40 -0.00    +0.000 A 
DOCKED: ATOM     10  CM  UNL     1      37.384  14.507 122.938 +0.00 -0.00    +0.000 AC
DOCKED: BRANCH   4  11
DOCKED: ATOM     11  C   UNL     1      36.947  10.846 121.928 -0.55 -0.00    +0.000 C 
DOCKED: ATOM     12  C   UNL     1      37.275  11.611 122.979 -0.50 -0.00    +0.000 C 
DOCKED: BRANCH  10  13
DOCKED: ATOM     13  O   UNL     1      36.686   8.674 120.987 -2.45 -0.00    +0.000 OA
DOCKED: ATOM     14  C   UNL     1      36.883   9.374 122.018 -0.67 -0.00    +0.000 C 
DOCKED: ATOM     15  N   UNL     1      37.045   8.734 123.286 -0.66 -0.00    +0.000 N 
DOCKED: ATOM     16  O   UNL     1      36.989   7.384 123.385 -2.40 -0.00    +0.000 OA
DOCKED: ATOM     17  H   UNL     1      37.199   9.277 124.093 -0.56 -0.00    +0.000 HD
DOCKED: ENDBRANCH  10  13
DOCKED: ENDBRANCH   4  11
DOCKED: ENDBRANCH   3   7
DOCKED: ENDBRANCH   1   3
DOCKED: BRANCH   1  17
DOCKED: ATOM     18  C   UNL     1      35.494  18.973 123.145 -0.21 -0.00    +0.000 C 
DOCKED: BRANCH  17  18
DOCKED: ATOM     19  C   UNL     1      34.554  18.192 122.221 -0.29 -0.00    +0.000 C 
DOCKED: BRANCH  18  19
DOCKED: ATOM     20  O   UNL     1      34.099  17.038 122.871 -0.48 -0.00    +0.000 OA
DOCKED: ATOM     21  H   UNL     1      34.735  16.319 122.735 -0.02 -0.00    +0.000 HD
DOCKED: ENDBRANCH  18  19
DOCKED: ENDBRANCH  17  18
DOCKED: ENDBRANCH   1  17
DOCKED: BRANCH   1  21
DOCKED: ATOM     22  C   UNL     1      37.045  18.685 125.045 -0.19 -0.00    +0.000 C 
DOCKED: BRANCH  21  22
DOCKED: ATOM     23  C   UNL     1      38.377  19.364 124.712 -0.13 -0.00    +0.000 C 
DOCKED: BRANCH  22  23
DOCKED: ATOM     24  C   UNL     1      39.511  18.712 125.450 -0.20 -0.00    +0.000 A 
DOCKED: ATOM     25  C   UNL     1      40.697  18.248 124.891 -0.29 -0.00    +0.000 A 
DOCKED: ATOM     26  N   UNL     1      41.549  17.842 125.860 -0.31 -0.00    +0.000 N 
DOCKED: ATOM     27  C   UNL     1      40.917  18.062 127.026 -0.37 -0.00    +0.000 A 
DOCKED: ATOM     28  C   UNL     1      39.671  18.596 126.818 -0.24 -0.00    +0.000 A 
DOCKED: ATOM     29  C   UNL     1      38.835  18.943 127.880 -0.17 -0.00    +0.000 A 
DOCKED: ATOM     30  C   UNL     1      39.309  18.726 129.187 -0.19 -0.00    +0.000 A 
DOCKED: ATOM     31  C   UNL     1      40.591  18.176 129.401 -0.30 -0.00    +0.000 A 
DOCKED: ATOM     32  C   UNL     1      41.414  17.839 128.310 -0.46 -0.00    +0.000 A 
DOCKED: ATOM     33  H   UNL     1      42.449  17.464 125.737 -0.49 -0.00    +0.000 HD
DOCKED: ATOM     34  CM  UNL     1      40.504  18.278 126.004 +0.00 -0.00    +0.000 AC
DOCKED: ATOM     35  CM  UNL     1      40.123  18.390 128.103 +0.00 -0.00    +0.000 AC
DOCKED: ENDBRANCH  22  23
DOCKED: ENDBRANCH  21  22
DOCKED: ENDBRANCH   1  21
DOCKED: TORSDOF 10DOCKED: TER
DOCKED: ENDMDL
________________________________________________________________________________


	BEGINNING GENETIC ALGORITHM DOCKING 70 of 100
Run: 70 Seed: 779545965 800701988 [ Run 70 of 100 GA/GALS ]
Beginning LAMARCKIAN GENETIC ALGORITHM (LGA), with a maximum of 2500000 energy evaluations.

Final-Value: -16.111


	FINAL GENETIC ALGORITHM DOCKED STATE
	_______________________________________________


Detailed state:  trans 38.477 16.770 120.556 quatxyzw -0.879590 0.089151 0.241362 -0.400146 center 0.288 0.007 -0.056 ntor 10 100.9954 -22.2395 50.1709 -119.0365 91.5613 -175.4658 -4.6644 -160.4286 7.9090 -180.0000
State:	 38.477  16.770 120.556  -0.960  0.097  0.263 -132.825    101.00  -22.24   50.17 -119.04   91.56 -175.47   -4.66 -160.43    7.91 -180.00

DOCKED: MODEL       70
DOCKED: USER    Run = 70
DOCKED: USER    DPF = ligand_dock.biased.dpf
DOCKED: USER  
DOCKED: USER    Estimated Free Energy of Binding    =  -10.14 kcal/mol  [=(1)+(2)+(3)-(4)]
DOCKED: USER    Estimated Inhibition Constant, Ki   =   36.62 nM (nanomolar)  [Temperature = 298.15 K]
DOCKED: USER    
DOCKED: USER    (1) Final Intermolecular Energy     =  -13.13 kcal/mol
DOCKED: USER        vdW + Hbond + desolv Energy     =  -13.13 kcal/mol
DOCKED: USER        Electrostatic Energy            =   +0.00 kcal/mol
DOCKED: USER    (2) Final Total Internal Energy     =   -2.98 kcal/mol
DOCKED: USER    (3) Torsional Free Energy           =   +2.98 kcal/mol
DOCKED: USER    (4) Unbound System's Energy  [=(2)] =   -2.98 kcal/mol
DOCKED: USER    
DOCKED: USER    
DOCKED: USER    NEWDPF move ligand.dum.pdbqt
DOCKED: USER    NEWDPF about 0.288000 0.007000 -0.056000
DOCKED: USER    NEWDPF tran0 38.477083 16.770204 120.556277
DOCKED: USER    NEWDPF quaternion0 -0.879590 0.089151 0.241362 -0.400146
DOCKED: USER    NEWDPF axisangle0 -0.959779 0.097278 0.263366 -132.825330
DOCKED: USER    NEWDPF quat0 -0.959779 0.097278 0.263366 -132.825330
DOCKED: USER    NEWDPF dihe0 101.00 -22.24 50.17 -119.04 91.56 -175.47 -4.66 -160.43 7.91 -180.00 
DOCKED: USER  keepresnum = 1 
DOCKED: USER  
DOCKED: REMARK  Name = 
DOCKED: REMARK  10 active torsions:
DOCKED: REMARK  status: ('A' for Active; 'I' for Inactive)
DOCKED: REMARK    1  A    between atoms: C_2  and  C_5
DOCKED: REMARK    2  A    between atoms: C_6  and  C_7
DOCKED: REMARK    3  A    between atoms: C_10  and  C_11
DOCKED: REMARK    4  A    between atoms: C_11  and  N_12
DOCKED: REMARK    5  A    between atoms: N_12  and  C_13
DOCKED: REMARK    6  A    between atoms: N_12  and  C_16
DOCKED: REMARK    7  A    between atoms: C_13  and  C_14
DOCKED: REMARK    8  A    between atoms: C_14  and  O_15
DOCKED: REMARK    9  A    between atoms: C_16  and  C_17
DOCKED: REMARK   10  A    between atoms: C_17  and  C_18
DOCKED: REMARK                            x       y       z     vdW  Elec       q    Type
DOCKED: REMARK                         _______ _______ _______ _____ _____    ______ ____
DOCKED: USER                              x       y       z     vdW  Elec       q    Type
DOCKED: USER                           _______ _______ _______ _____ _____    ______ ____
DOCKED: ROOT
DOCKED: ATOM      1  N   UNL     1      37.456  16.926 121.402 -0.13 -0.00    +0.000 N 
DOCKED: ATOM      2  H   UNL     1      36.633  16.458 121.782 -0.00 -0.00    +0.000 HD
DOCKED: ENDROOT
DOCKED: BRANCH   1   3
DOCKED: ATOM      3  C   UNL     1      38.328  15.804 120.967 -0.22 -0.00    +0.000 C 
DOCKED: BRANCH   3   7
DOCKED: ATOM      4  C   UNL     1      36.809  11.881 122.045 -0.53 -0.00    +0.000 A 
DOCKED: ATOM      5  C   UNL     1      37.258  12.771 123.033 -0.53 -0.00    +0.000 A 
DOCKED: ATOM      6  C   UNL     1      37.744  14.034 122.686 -0.44 -0.00    +0.000 A 
DOCKED: ATOM      7  C   UNL     1      37.819  14.426 121.341 -0.33 -0.00    +0.000 A 
DOCKED: ATOM      8  C   UNL     1      37.358  13.543 120.350 -0.38 -0.00    +0.000 A 
DOCKED: ATOM      9  C   UNL     1      36.871  12.278 120.695 -0.41 -0.00    +0.000 A 
DOCKED: ATOM     10  CM  UNL     1      37.309  13.155 121.693 +0.00 -0.00    +0.000 AC
DOCKED: BRANCH   4  11
DOCKED: ATOM     11  C   UNL     1      36.969   9.401 122.235 -0.65 -0.00    +0.000 C 
DOCKED: ATOM     12  C   UNL     1      36.312  10.547 122.464 -0.68 -0.00    +0.000 C 
DOCKED: BRANCH  10  13
DOCKED: ATOM     13  O   UNL     1      37.085   7.360 123.457 -2.43 -0.00    +0.000 OA
DOCKED: ATOM     14  C   UNL     1      36.436   8.091 122.659 -0.78 -0.00    +0.000 C 
DOCKED: ATOM     15  N   UNL     1      35.174   7.644 122.160 -0.59 -0.00    +0.000 N 
DOCKED: ATOM     16  O   UNL     1      34.671   6.445 122.539 -0.71 -0.00    +0.000 OA
DOCKED: ATOM     17  H   UNL     1      34.665   8.212 121.536 -0.02 -0.00    +0.000 HD
DOCKED: ENDBRANCH  10  13
DOCKED: ENDBRANCH   4  11
DOCKED: ENDBRANCH   3   7
DOCKED: ENDBRANCH   1   3
DOCKED: BRANCH   1  17
DOCKED: ATOM     18  C   UNL     1      36.924  17.767 120.305 -0.12 -0.00    +0.000 C 
DOCKED: BRANCH  17  18
DOCKED: ATOM     19  C   UNL     1      35.393  17.770 120.288 -0.23 -0.00    +0.000 C 
DOCKED: BRANCH  18  19
DOCKED: ATOM     20  O   UNL     1      34.902  17.657 121.595 -0.34 -0.00    +0.000 OA
DOCKED: ATOM     21  H   UNL     1      35.438  18.204 122.190 -0.00 -0.00    +0.000 HD
DOCKED: ENDBRANCH  18  19
DOCKED: ENDBRANCH  17  18
DOCKED: ENDBRANCH   1  17
DOCKED: BRANCH   1  21
DOCKED: ATOM     22  C   UNL     1      38.026  17.722 122.515 -0.15 -0.00    +0.000 C 
DOCKED: BRANCH  21  22
DOCKED: ATOM     23  C   UNL     1      37.806  17.007 123.853 -0.23 -0.00    +0.000 C 
DOCKED: BRANCH  22  23
DOCKED: ATOM     24  C   UNL     1      36.344  16.933 124.187 -0.25 -0.00    +0.000 A 
DOCKED: ATOM     25  C   UNL     1      35.528  15.814 124.063 -0.42 -0.00    +0.000 A 
DOCKED: ATOM     26  N   UNL     1      34.303  16.062 124.579 -0.53 -0.00    +0.000 N 
DOCKED: ATOM     27  C   UNL     1      34.344  17.324 125.042 -0.38 -0.00    +0.000 A 
DOCKED: ATOM     28  C   UNL     1      35.575  17.889 124.825 -0.26 -0.00    +0.000 A 
DOCKED: ATOM     29  C   UNL     1      35.874  19.184 125.249 -0.18 -0.00    +0.000 A 
DOCKED: ATOM     30  C   UNL     1      34.865  19.906 125.912 -0.17 -0.00    +0.000 A 
DOCKED: ATOM     31  C   UNL     1      33.598  19.326 126.136 -0.24 -0.00    +0.000 A 
DOCKED: ATOM     32  C   UNL     1      33.327  18.016 125.700 -0.24 -0.00    +0.000 A 
DOCKED: ATOM     33  H   UNL     1      33.536  15.446 124.610 -0.11 -0.00    +0.000 HD
DOCKED: ATOM     34  CM  UNL     1      35.190  16.780 124.541 -0.20 -0.00    +0.000 AC
DOCKED: ATOM     35  CM  UNL     1      34.597  18.607 125.477 -0.24 -0.00    +0.000 AC
DOCKED: ENDBRANCH  22  23
DOCKED: ENDBRANCH  21  22
DOCKED: ENDBRANCH   1  21
DOCKED: TORSDOF 10DOCKED: TER
DOCKED: ENDMDL
________________________________________________________________________________


	BEGINNING GENETIC ALGORITHM DOCKING 71 of 100
Run: 71 Seed: 280596341 1160723938 [ Run 71 of 100 GA/GALS ]
Beginning LAMARCKIAN GENETIC ALGORITHM (LGA), with a maximum of 2500000 energy evaluations.

Final-Value: -16.582


	FINAL GENETIC ALGORITHM DOCKED STATE
	_______________________________________________


Detailed state:  trans 35.871 18.771 123.249 quatxyzw 0.489075 0.553833 0.653325 0.165052 center 0.288 0.007 -0.056 ntor 10 -177.4936 170.3098 -149.0254 -141.0586 -73.0866 -155.3456 168.8653 127.9543 -75.7153 172.6276
State:	 35.871  18.771 123.249   0.496  0.562  0.662 160.999   -177.49  170.31 -149.03 -141.06  -73.09 -155.35  168.87  127.95  -75.72  172.63

DOCKED: MODEL       71
DOCKED: USER    Run = 71
DOCKED: USER    DPF = ligand_dock.biased.dpf
DOCKED: USER  
DOCKED: USER    Estimated Free Energy of Binding    =  -11.42 kcal/mol  [=(1)+(2)+(3)-(4)]
DOCKED: USER    Estimated Inhibition Constant, Ki   =    4.25 nM (nanomolar)  [Temperature = 298.15 K]
DOCKED: USER    
DOCKED: USER    (1) Final Intermolecular Energy     =  -14.40 kcal/mol
DOCKED: USER        vdW + Hbond + desolv Energy     =  -14.40 kcal/mol
DOCKED: USER        Electrostatic Energy            =   +0.00 kcal/mol
DOCKED: USER    (2) Final Total Internal Energy     =   -2.18 kcal/mol
DOCKED: USER    (3) Torsional Free Energy           =   +2.98 kcal/mol
DOCKED: USER    (4) Unbound System's Energy  [=(2)] =   -2.18 kcal/mol
DOCKED: USER    
DOCKED: USER    
DOCKED: USER    NEWDPF move ligand.dum.pdbqt
DOCKED: USER    NEWDPF about 0.288000 0.007000 -0.056000
DOCKED: USER    NEWDPF tran0 35.871142 18.770734 123.249242
DOCKED: USER    NEWDPF quaternion0 0.489075 0.553833 0.653325 0.165052
DOCKED: USER    NEWDPF axisangle0 0.495876 0.561534 0.662410 160.999486
DOCKED: USER    NEWDPF quat0 0.495876 0.561534 0.662410 160.999486
DOCKED: USER    NEWDPF dihe0 -177.49 170.31 -149.03 -141.06 -73.09 -155.35 168.87 127.95 -75.72 172.63 
DOCKED: USER  keepresnum = 1 
DOCKED: USER  
DOCKED: REMARK  Name = 
DOCKED: REMARK  10 active torsions:
DOCKED: REMARK  status: ('A' for Active; 'I' for Inactive)
DOCKED: REMARK    1  A    between atoms: C_2  and  C_5
DOCKED: REMARK    2  A    between atoms: C_6  and  C_7
DOCKED: REMARK    3  A    between atoms: C_10  and  C_11
DOCKED: REMARK    4  A    between atoms: C_11  and  N_12
DOCKED: REMARK    5  A    between atoms: N_12  and  C_13
DOCKED: REMARK    6  A    between atoms: N_12  and  C_16
DOCKED: REMARK    7  A    between atoms: C_13  and  C_14
DOCKED: REMARK    8  A    between atoms: C_14  and  O_15
DOCKED: REMARK    9  A    between atoms: C_16  and  C_17
DOCKED: REMARK   10  A    between atoms: C_17  and  C_18
DOCKED: REMARK                            x       y       z     vdW  Elec       q    Type
DOCKED: REMARK                         _______ _______ _______ _____ _____    ______ ____
DOCKED: USER                              x       y       z     vdW  Elec       q    Type
DOCKED: USER                           _______ _______ _______ _____ _____    ______ ____
DOCKED: ROOT
DOCKED: ATOM      1  N   UNL     1      36.248  18.449 122.009 -0.17 -0.00    +0.000 N 
DOCKED: ATOM      2  H   UNL     1      36.816  17.792 121.475 +0.00 -0.00    +0.000 HD
DOCKED: ENDROOT
DOCKED: BRANCH   1   3
DOCKED: ATOM      3  C   UNL     1      35.952  17.714 123.267 -0.27 -0.00    +0.000 C 
DOCKED: BRANCH   3   7
DOCKED: ATOM      4  C   UNL     1      36.814  13.461 123.080 -0.51 -0.00    +0.000 A 
DOCKED: ATOM      5  C   UNL     1      35.660  13.930 123.727 -0.47 -0.00    +0.000 A 
DOCKED: ATOM      6  C   UNL     1      35.381  15.298 123.784 -0.47 -0.00    +0.000 A 
DOCKED: ATOM      7  C   UNL     1      36.265  16.231 123.221 -0.32 -0.00    +0.000 A 
DOCKED: ATOM      8  C   UNL     1      37.414  15.765 122.561 -0.28 -0.00    +0.000 A 
DOCKED: ATOM      9  C   UNL     1      37.695  14.396 122.502 -0.40 -0.00    +0.000 A 
DOCKED: ATOM     10  CM  UNL     1      36.538  14.846 123.146 +0.00 -0.00    +0.000 AC
DOCKED: BRANCH   4  11
DOCKED: ATOM     11  C   UNL     1      36.570  11.170 122.129 -0.63 -0.00    +0.000 C 
DOCKED: ATOM     12  C   UNL     1      37.071  11.999 123.055 -0.65 -0.00    +0.000 C 
DOCKED: BRANCH  10  13
DOCKED: ATOM     13  O   UNL     1      37.017   9.085 121.069 -2.71 -0.00    +0.000 OA
DOCKED: ATOM     14  C   UNL     1      36.840   9.719 122.145 -0.65 -0.00    +0.000 C 
DOCKED: ATOM     15  N   UNL     1      36.901   9.023 123.392 -0.59 -0.00    +0.000 N 
DOCKED: ATOM     16  O   UNL     1      37.148   7.692 123.424 -2.64 -0.00    +0.000 OA
DOCKED: ATOM     17  H   UNL     1      36.763   9.515 124.235 -0.48 -0.00    +0.000 HD
DOCKED: ENDBRANCH  10  13
DOCKED: ENDBRANCH   4  11
DOCKED: ENDBRANCH   3   7
DOCKED: ENDBRANCH   1   3
DOCKED: BRANCH   1  17
DOCKED: ATOM     18  C   UNL     1      37.117  19.638 122.169 -0.13 -0.00    +0.000 C 
DOCKED: BRANCH  17  18
DOCKED: ATOM     19  C   UNL     1      36.336  20.839 122.709 -0.10 -0.00    +0.000 C 
DOCKED: BRANCH  18  19
DOCKED: ATOM     20  O   UNL     1      36.668  21.989 121.980 -0.18 -0.00    +0.000 OA
DOCKED: ATOM     21  H   UNL     1      35.864  22.367 121.590 -0.67 -0.00    +0.000 HD
DOCKED: ENDBRANCH  18  19
DOCKED: ENDBRANCH  17  18
DOCKED: ENDBRANCH   1  17
DOCKED: BRANCH   1  21
DOCKED: ATOM     22  C   UNL     1      35.046  18.719 121.185 -0.25 -0.00    +0.000 C 
DOCKED: BRANCH  21  22
DOCKED: ATOM     23  C   UNL     1      35.449  19.094 119.755 -0.19 -0.00    +0.000 C 
DOCKED: BRANCH  22  23
DOCKED: ATOM     24  C   UNL     1      35.130  17.982 118.798 -0.15 -0.00    +0.000 A 
DOCKED: ATOM     25  C   UNL     1      34.327  18.075 117.667 -0.12 -0.00    +0.000 A 
DOCKED: ATOM     26  N   UNL     1      34.365  16.921 116.963 -0.13 -0.00    +0.000 N 
DOCKED: ATOM     27  C   UNL     1      35.198  16.106 117.632 -0.13 -0.00    +0.000 A 
DOCKED: ATOM     28  C   UNL     1      35.689  16.718 118.757 -0.11 -0.00    +0.000 A 
DOCKED: ATOM     29  C   UNL     1      36.603  16.083 119.599 -0.15 -0.00    +0.000 A 
DOCKED: ATOM     30  C   UNL     1      37.011  14.780 119.261 -0.24 -0.00    +0.000 A 
DOCKED: ATOM     31  C   UNL     1      36.505  14.149 118.104 -0.34 -0.00    +0.000 A 
DOCKED: ATOM     32  C   UNL     1      35.588  14.816 117.272 -0.27 -0.00    +0.000 A 
DOCKED: ATOM     33  H   UNL     1      33.881  16.718 116.130 +0.00 -0.00    +0.000 HD
DOCKED: ATOM     34  CM  UNL     1      34.924  17.153 117.931 +0.00 -0.00    +0.000 AC
DOCKED: ATOM     35  CM  UNL     1      36.098  15.442 118.438 +0.00 -0.00    +0.000 AC
DOCKED: ENDBRANCH  22  23
DOCKED: ENDBRANCH  21  22
DOCKED: ENDBRANCH   1  21
DOCKED: TORSDOF 10DOCKED: TER
DOCKED: ENDMDL
________________________________________________________________________________


	BEGINNING GENETIC ALGORITHM DOCKING 72 of 100
Run: 72 Seed: 377804592 930777579 [ Run 72 of 100 GA/GALS ]
Beginning LAMARCKIAN GENETIC ALGORITHM (LGA), with a maximum of 2500000 energy evaluations.

Final-Value: -17.245


	FINAL GENETIC ALGORITHM DOCKED STATE
	_______________________________________________


Detailed state:  trans 37.094 18.533 120.919 quatxyzw -0.874655 -0.196123 0.127948 -0.424434 center 0.288 0.007 -0.056 ntor 10 -173.4843 -42.4860 71.8676 -6.0243 -177.9055 178.1908 -48.8956 -155.4802 49.7847 -178.0622
State:	 37.094  18.533 120.919  -0.966 -0.217  0.141 -129.770   -173.48  -42.49   71.87   -6.02 -177.91  178.19  -48.90 -155.48   49.78 -178.06

DOCKED: MODEL       72
DOCKED: USER    Run = 72
DOCKED: USER    DPF = ligand_dock.biased.dpf
DOCKED: USER  
DOCKED: USER    Estimated Free Energy of Binding    =  -11.92 kcal/mol  [=(1)+(2)+(3)-(4)]
DOCKED: USER    Estimated Inhibition Constant, Ki   =    1.83 nM (nanomolar)  [Temperature = 298.15 K]
DOCKED: USER    
DOCKED: USER    (1) Final Intermolecular Energy     =  -14.90 kcal/mol
DOCKED: USER        vdW + Hbond + desolv Energy     =  -14.90 kcal/mol
DOCKED: USER        Electrostatic Energy            =   +0.00 kcal/mol
DOCKED: USER    (2) Final Total Internal Energy     =   -2.34 kcal/mol
DOCKED: USER    (3) Torsional Free Energy           =   +2.98 kcal/mol
DOCKED: USER    (4) Unbound System's Energy  [=(2)] =   -2.34 kcal/mol
DOCKED: USER    
DOCKED: USER    
DOCKED: USER    NEWDPF move ligand.dum.pdbqt
DOCKED: USER    NEWDPF about 0.288000 0.007000 -0.056000
DOCKED: USER    NEWDPF tran0 37.094195 18.532642 120.919028
DOCKED: USER    NEWDPF quaternion0 -0.874655 -0.196123 0.127948 -0.424434
DOCKED: USER    NEWDPF axisangle0 -0.965980 -0.216600 0.141307 -129.770339
DOCKED: USER    NEWDPF quat0 -0.965980 -0.216600 0.141307 -129.770339
DOCKED: USER    NEWDPF dihe0 -173.48 -42.49 71.87 -6.02 -177.91 178.19 -48.90 -155.48 49.78 -178.06 
DOCKED: USER  keepresnum = 1 
DOCKED: USER  
DOCKED: REMARK  Name = 
DOCKED: REMARK  10 active torsions:
DOCKED: REMARK  status: ('A' for Active; 'I' for Inactive)
DOCKED: REMARK    1  A    between atoms: C_2  and  C_5
DOCKED: REMARK    2  A    between atoms: C_6  and  C_7
DOCKED: REMARK    3  A    between atoms: C_10  and  C_11
DOCKED: REMARK    4  A    between atoms: C_11  and  N_12
DOCKED: REMARK    5  A    between atoms: N_12  and  C_13
DOCKED: REMARK    6  A    between atoms: N_12  and  C_16
DOCKED: REMARK    7  A    between atoms: C_13  and  C_14
DOCKED: REMARK    8  A    between atoms: C_14  and  O_15
DOCKED: REMARK    9  A    between atoms: C_16  and  C_17
DOCKED: REMARK   10  A    between atoms: C_17  and  C_18
DOCKED: REMARK                            x       y       z     vdW  Elec       q    Type
DOCKED: REMARK                         _______ _______ _______ _____ _____    ______ ____
DOCKED: USER                              x       y       z     vdW  Elec       q    Type
DOCKED: USER                           _______ _______ _______ _____ _____    ______ ____
DOCKED: ROOT
DOCKED: ATOM      1  N   UNL     1      35.865  18.118 121.235 -0.20 -0.00    +0.000 N 
DOCKED: ATOM      2  H   UNL     1      35.235  17.318 121.177 -0.01 -0.00    +0.000 HD
DOCKED: ENDROOT
DOCKED: BRANCH   1   3
DOCKED: ATOM      3  C   UNL     1      37.217  17.506 121.152 -0.14 -0.00    +0.000 C 
DOCKED: BRANCH   3   7
DOCKED: ATOM      4  C   UNL     1      37.174  13.165 121.028 -0.41 -0.00    +0.000 A 
DOCKED: ATOM      5  C   UNL     1      36.693  13.853 122.151 -0.33 -0.00    +0.000 A 
DOCKED: ATOM      6  C   UNL     1      36.704  15.250 122.190 -0.27 -0.00    +0.000 A 
DOCKED: ATOM      7  C   UNL     1      37.223  15.990 121.117 -0.19 -0.00    +0.000 A 
DOCKED: ATOM      8  C   UNL     1      37.694  15.304 119.985 -0.21 -0.00    +0.000 A 
DOCKED: ATOM      9  C   UNL     1      37.683  13.907 119.944 -0.34 -0.00    +0.000 A 
DOCKED: ATOM     10  CM  UNL     1      37.195  14.578 121.070 +0.00 -0.00    +0.000 AC
DOCKED: BRANCH   4  11
DOCKED: ATOM     11  C   UNL     1      37.044  10.946 122.156 -0.55 -0.00    +0.000 C 
DOCKED: ATOM     12  C   UNL     1      37.151  11.680 121.040 -0.50 -0.00    +0.000 C 
DOCKED: BRANCH  10  13
DOCKED: ATOM     13  O   UNL     1      36.991   8.848 121.031 -2.68 -0.00    +0.000 OA
DOCKED: ATOM     14  C   UNL     1      37.035   9.470 122.127 -0.63 -0.00    +0.000 C 
DOCKED: ATOM     15  N   UNL     1      37.074   8.737 123.354 -0.65 -0.00    +0.000 N 
DOCKED: ATOM     16  O   UNL     1      37.066   7.383 123.344 -2.42 -0.00    +0.000 OA
DOCKED: ATOM     17  H   UNL     1      37.108   9.220 124.212 -0.59 -0.00    +0.000 HD
DOCKED: ENDBRANCH  10  13
DOCKED: ENDBRANCH   4  11
DOCKED: ENDBRANCH   3   7
DOCKED: ENDBRANCH   1   3
DOCKED: BRANCH   1  17
DOCKED: ATOM     18  C   UNL     1      35.489  18.963 120.078 -0.20 -0.00    +0.000 C 
DOCKED: BRANCH  17  18
DOCKED: ATOM     19  C   UNL     1      34.009  18.802 119.719 -0.29 -0.00    +0.000 C 
DOCKED: BRANCH  18  19
DOCKED: ATOM     20  O   UNL     1      33.342  18.120 120.745 -0.45 -0.00    +0.000 OA
DOCKED: ATOM     21  H   UNL     1      32.575  18.639 121.033 -0.05 -0.00    +0.000 HD
DOCKED: ENDBRANCH  18  19
DOCKED: ENDBRANCH  17  18
DOCKED: ENDBRANCH   1  17
DOCKED: BRANCH   1  21
DOCKED: ATOM     22  C   UNL     1      35.588  18.766 122.538 -0.24 -0.00    +0.000 C 
DOCKED: BRANCH  21  22
DOCKED: ATOM     23  C   UNL     1      36.194  17.948 123.684 -0.25 -0.00    +0.000 C 
DOCKED: BRANCH  22  23
DOCKED: ATOM     24  C   UNL     1      35.118  17.297 124.504 -0.34 -0.00    +0.000 A 
DOCKED: ATOM     25  C   UNL     1      34.660  15.991 124.371 -0.50 -0.00    +0.000 A 
DOCKED: ATOM     26  N   UNL     1      33.784  15.694 125.357 -0.49 -0.00    +0.000 N 
DOCKED: ATOM     27  C   UNL     1      33.698  16.796 126.122 -0.37 -0.00    +0.000 A 
DOCKED: ATOM     28  C   UNL     1      34.501  17.796 125.636 -0.33 -0.00    +0.000 A 
DOCKED: ATOM     29  C   UNL     1      34.607  19.030 126.279 -0.21 -0.00    +0.000 A 
DOCKED: ATOM     30  C   UNL     1      33.858  19.224 127.454 -0.15 -0.00    +0.000 A 
DOCKED: ATOM     31  C   UNL     1      33.031  18.195 127.954 -0.22 -0.00    +0.000 A 
DOCKED: ATOM     32  C   UNL     1      32.947  16.960 127.285 -0.37 -0.00    +0.000 A 
DOCKED: ATOM     33  H   UNL     1      33.306  14.843 125.490 -0.14 -0.00    +0.000 HD
DOCKED: ATOM     34  CM  UNL     1      34.334  16.682 125.203 -0.17 -0.00    +0.000 AC
DOCKED: ATOM     35  CM  UNL     1      33.773  18.000 126.788 -0.02 -0.00    +0.000 AC
DOCKED: ENDBRANCH  22  23
DOCKED: ENDBRANCH  21  22
DOCKED: ENDBRANCH   1  21
DOCKED: TORSDOF 10DOCKED: TER
DOCKED: ENDMDL
________________________________________________________________________________


	BEGINNING GENETIC ALGORITHM DOCKING 73 of 100
Run: 73 Seed: 466562237 1514164132 [ Run 73 of 100 GA/GALS ]
Beginning LAMARCKIAN GENETIC ALGORITHM (LGA), with a maximum of 2500000 energy evaluations.

Final-Value: -17.970


	FINAL GENETIC ALGORITHM DOCKED STATE
	_______________________________________________


Detailed state:  trans 35.786 18.532 123.090 quatxyzw 0.475533 -0.185161 -0.774465 0.373881 center 0.288 0.007 -0.056 ntor 10 -119.7000 -0.3498 -6.9295 158.5836 -163.4147 17.6884 -60.2709 122.7846 86.6175 -175.2231
State:	 35.786  18.532 123.090   0.513 -0.200 -0.835 136.090   -119.70   -0.35   -6.93  158.58 -163.41   17.69  -60.27  122.78   86.62 -175.22

DOCKED: MODEL       73
DOCKED: USER    Run = 73
DOCKED: USER    DPF = ligand_dock.biased.dpf
DOCKED: USER  
DOCKED: USER    Estimated Free Energy of Binding    =  -12.48 kcal/mol  [=(1)+(2)+(3)-(4)]
DOCKED: USER    Estimated Inhibition Constant, Ki   =  713.11 pM (picomolar)  [Temperature = 298.15 K]
DOCKED: USER    
DOCKED: USER    (1) Final Intermolecular Energy     =  -15.46 kcal/mol
DOCKED: USER        vdW + Hbond + desolv Energy     =  -15.46 kcal/mol
DOCKED: USER        Electrostatic Energy            =   +0.00 kcal/mol
DOCKED: USER    (2) Final Total Internal Energy     =   -2.51 kcal/mol
DOCKED: USER    (3) Torsional Free Energy           =   +2.98 kcal/mol
DOCKED: USER    (4) Unbound System's Energy  [=(2)] =   -2.51 kcal/mol
DOCKED: USER    
DOCKED: USER    
DOCKED: USER    NEWDPF move ligand.dum.pdbqt
DOCKED: USER    NEWDPF about 0.288000 0.007000 -0.056000
DOCKED: USER    NEWDPF tran0 35.786324 18.531933 123.090121
DOCKED: USER    NEWDPF quaternion0 0.475533 -0.185161 -0.774465 0.373881
DOCKED: USER    NEWDPF axisangle0 0.512717 -0.199640 -0.835024 136.089606
DOCKED: USER    NEWDPF quat0 0.512717 -0.199640 -0.835024 136.089606
DOCKED: USER    NEWDPF dihe0 -119.70 -0.35 -6.93 158.58 -163.41 17.69 -60.27 122.78 86.62 -175.22 
DOCKED: USER  keepresnum = 1 
DOCKED: USER  
DOCKED: REMARK  Name = 
DOCKED: REMARK  10 active torsions:
DOCKED: REMARK  status: ('A' for Active; 'I' for Inactive)
DOCKED: REMARK    1  A    between atoms: C_2  and  C_5
DOCKED: REMARK    2  A    between atoms: C_6  and  C_7
DOCKED: REMARK    3  A    between atoms: C_10  and  C_11
DOCKED: REMARK    4  A    between atoms: C_11  and  N_12
DOCKED: REMARK    5  A    between atoms: N_12  and  C_13
DOCKED: REMARK    6  A    between atoms: N_12  and  C_16
DOCKED: REMARK    7  A    between atoms: C_13  and  C_14
DOCKED: REMARK    8  A    between atoms: C_14  and  O_15
DOCKED: REMARK    9  A    between atoms: C_16  and  C_17
DOCKED: REMARK   10  A    between atoms: C_17  and  C_18
DOCKED: REMARK                            x       y       z     vdW  Elec       q    Type
DOCKED: REMARK                         _______ _______ _______ _____ _____    ______ ____
DOCKED: USER                              x       y       z     vdW  Elec       q    Type
DOCKED: USER                           _______ _______ _______ _____ _____    ______ ____
DOCKED: ROOT
DOCKED: ATOM      1  N   UNL     1      36.365  18.207 124.249 -0.21 -0.00    +0.000 N 
DOCKED: ATOM      2  H   UNL     1      36.512  17.435 124.899 -0.02 -0.00    +0.000 HD
DOCKED: ENDROOT
DOCKED: BRANCH   1   3
DOCKED: ATOM      3  C   UNL     1      36.105  17.530 122.952 -0.27 -0.00    +0.000 C 
DOCKED: BRANCH   3   7
DOCKED: ATOM      4  C   UNL     1      36.353  13.198 123.127 -0.52 -0.00    +0.000 A 
DOCKED: ATOM      5  C   UNL     1      36.779  13.893 121.985 -0.30 -0.00    +0.000 A 
DOCKED: ATOM      6  C   UNL     1      36.702  15.287 121.930 -0.23 -0.00    +0.000 A 
DOCKED: ATOM      7  C   UNL     1      36.170  16.016 123.005 -0.32 -0.00    +0.000 A 
DOCKED: ATOM      8  C   UNL     1      35.754  15.324 124.154 -0.41 -0.00    +0.000 A 
DOCKED: ATOM      9  C   UNL     1      35.832  13.929 124.212 -0.37 -0.00    +0.000 A 
DOCKED: ATOM     10  CM  UNL     1      36.266  14.608 123.068 +0.00 -0.00    +0.000 AC
DOCKED: BRANCH   4  11
DOCKED: ATOM     11  C   UNL     1      36.840  10.991 122.075 -0.60 -0.00    +0.000 C 
DOCKED: ATOM     12  C   UNL     1      36.446  11.716 123.131 -0.69 -0.00    +0.000 C 
DOCKED: BRANCH  10  13
DOCKED: ATOM     13  O   UNL     1      36.861   8.840 121.053 -2.65 -0.00    +0.000 OA
DOCKED: ATOM     14  C   UNL     1      36.909   9.517 122.117 -0.65 -0.00    +0.000 C 
DOCKED: ATOM     15  N   UNL     1      37.029   8.848 123.374 -0.63 -0.00    +0.000 N 
DOCKED: ATOM     16  O   UNL     1      37.093   7.496 123.429 -2.52 -0.00    +0.000 OA
DOCKED: ATOM     17  H   UNL     1      37.066   9.373 124.207 -0.58 -0.00    +0.000 HD
DOCKED: ENDBRANCH  10  13
DOCKED: ENDBRANCH   4  11
DOCKED: ENDBRANCH   3   7
DOCKED: ENDBRANCH   1   3
DOCKED: BRANCH   1  17
DOCKED: ATOM     18  C   UNL     1      35.210  18.944 124.813 -0.26 -0.00    +0.000 C 
DOCKED: BRANCH  17  18
DOCKED: ATOM     19  C   UNL     1      34.051  18.003 125.152 -0.39 -0.00    +0.000 C 
DOCKED: BRANCH  18  19
DOCKED: ATOM     20  O   UNL     1      34.500  16.981 125.998 -0.41 -0.00    +0.000 OA
DOCKED: ATOM     21  H   UNL     1      33.761  16.388 126.208 -0.03 -0.00    +0.000 HD
DOCKED: ENDBRANCH  18  19
DOCKED: ENDBRANCH  17  18
DOCKED: ENDBRANCH   1  17
DOCKED: BRANCH   1  21
DOCKED: ATOM     22  C   UNL     1      37.617  19.000 124.262 -0.15 -0.00    +0.000 C 
DOCKED: BRANCH  21  22
DOCKED: ATOM     23  C   UNL     1      38.339  18.884 122.915 -0.10 -0.00    +0.000 C 
DOCKED: BRANCH  22  23
DOCKED: ATOM     24  C   UNL     1      39.721  18.326 123.093 -0.13 -0.00    +0.000 A 
DOCKED: ATOM     25  C   UNL     1      40.765  18.922 123.794 -0.15 -0.00    +0.000 A 
DOCKED: ATOM     26  N   UNL     1      41.824  18.085 123.866 -0.28 -0.00    +0.000 N 
DOCKED: ATOM     27  C   UNL     1      41.452  16.959 123.231 -0.32 -0.00    +0.000 A 
DOCKED: ATOM     28  C   UNL     1      40.173  17.066 122.748 -0.22 -0.00    +0.000 A 
DOCKED: ATOM     29  C   UNL     1      39.551  16.011 122.079 -0.25 -0.00    +0.000 A 
DOCKED: ATOM     30  C   UNL     1      40.280  14.821 121.909 -0.35 -0.00    +0.000 A 
DOCKED: ATOM     31  C   UNL     1      41.597  14.711 122.406 -0.46 -0.00    +0.000 A 
DOCKED: ATOM     32  C   UNL     1      42.197  15.790 123.080 -0.37 +0.00    +0.000 A 
DOCKED: ATOM     33  H   UNL     1      42.692  18.262 124.297 -0.60 -0.00    +0.000 HD
DOCKED: ATOM     34  CM  UNL     1      40.820  17.878 123.364 +0.00 -0.00    +0.000 AC
DOCKED: ATOM     35  CM  UNL     1      40.875  15.893 122.576 +0.00 -0.00    +0.000 AC
DOCKED: ENDBRANCH  22  23
DOCKED: ENDBRANCH  21  22
DOCKED: ENDBRANCH   1  21
DOCKED: TORSDOF 10DOCKED: TER
DOCKED: ENDMDL
________________________________________________________________________________


	BEGINNING GENETIC ALGORITHM DOCKING 74 of 100
Run: 74 Seed: 1090962467 1284748072 [ Run 74 of 100 GA/GALS ]
Beginning LAMARCKIAN GENETIC ALGORITHM (LGA), with a maximum of 2500000 energy evaluations.

Final-Value: -15.588


	FINAL GENETIC ALGORITHM DOCKED STATE
	_______________________________________________


Detailed state:  trans 36.325 18.497 121.695 quatxyzw 0.446111 0.634564 0.374630 0.507904 center 0.288 0.007 -0.056 ntor 10 91.9082 -10.2271 28.1338 -177.6857 -179.9104 -166.0934 180.0000 -31.2076 -174.1229 112.1016
State:	 36.325  18.497 121.695   0.518  0.737  0.435 118.951     91.91  -10.23   28.13 -177.69 -179.91 -166.09  180.00  -31.21 -174.12  112.10

DOCKED: MODEL       74
DOCKED: USER    Run = 74
DOCKED: USER    DPF = ligand_dock.biased.dpf
DOCKED: USER  
DOCKED: USER    Estimated Free Energy of Binding    =  -10.35 kcal/mol  [=(1)+(2)+(3)-(4)]
DOCKED: USER    Estimated Inhibition Constant, Ki   =   25.87 nM (nanomolar)  [Temperature = 298.15 K]
DOCKED: USER    
DOCKED: USER    (1) Final Intermolecular Energy     =  -13.33 kcal/mol
DOCKED: USER        vdW + Hbond + desolv Energy     =  -13.33 kcal/mol
DOCKED: USER        Electrostatic Energy            =   +0.00 kcal/mol
DOCKED: USER    (2) Final Total Internal Energy     =   -2.25 kcal/mol
DOCKED: USER    (3) Torsional Free Energy           =   +2.98 kcal/mol
DOCKED: USER    (4) Unbound System's Energy  [=(2)] =   -2.25 kcal/mol
DOCKED: USER    
DOCKED: USER    
DOCKED: USER    NEWDPF move ligand.dum.pdbqt
DOCKED: USER    NEWDPF about 0.288000 0.007000 -0.056000
DOCKED: USER    NEWDPF tran0 36.324892 18.496944 121.694843
DOCKED: USER    NEWDPF quaternion0 0.446111 0.634564 0.374630 0.507904
DOCKED: USER    NEWDPF axisangle0 0.517883 0.736654 0.434901 118.951357
DOCKED: USER    NEWDPF quat0 0.517883 0.736654 0.434901 118.951357
DOCKED: USER    NEWDPF dihe0 91.91 -10.23 28.13 -177.69 -179.91 -166.09 180.00 -31.21 -174.12 112.10 
DOCKED: USER  keepresnum = 1 
DOCKED: USER  
DOCKED: REMARK  Name = 
DOCKED: REMARK  10 active torsions:
DOCKED: REMARK  status: ('A' for Active; 'I' for Inactive)
DOCKED: REMARK    1  A    between atoms: C_2  and  C_5
DOCKED: REMARK    2  A    between atoms: C_6  and  C_7
DOCKED: REMARK    3  A    between atoms: C_10  and  C_11
DOCKED: REMARK    4  A    between atoms: C_11  and  N_12
DOCKED: REMARK    5  A    between atoms: N_12  and  C_13
DOCKED: REMARK    6  A    between atoms: N_12  and  C_16
DOCKED: REMARK    7  A    between atoms: C_13  and  C_14
DOCKED: REMARK    8  A    between atoms: C_14  and  O_15
DOCKED: REMARK    9  A    between atoms: C_16  and  C_17
DOCKED: REMARK   10  A    between atoms: C_17  and  C_18
DOCKED: REMARK                            x       y       z     vdW  Elec       q    Type
DOCKED: REMARK                         _______ _______ _______ _____ _____    ______ ____
DOCKED: USER                              x       y       z     vdW  Elec       q    Type
DOCKED: USER                           _______ _______ _______ _____ _____    ______ ____
DOCKED: ROOT
DOCKED: ATOM      1  N   UNL     1      36.148  18.159 120.415 -0.15 -0.00    +0.000 N 
DOCKED: ATOM      2  H   UNL     1      36.641  17.846 119.579 +0.00 -0.00    +0.000 HD
DOCKED: ENDROOT
DOCKED: BRANCH   1   3
DOCKED: ATOM      3  C   UNL     1      37.035  17.728 121.527 -0.15 -0.00    +0.000 C 
DOCKED: BRANCH   3   7
DOCKED: ATOM      4  C   UNL     1      37.060  13.463 122.345 -0.45 -0.00    +0.000 A 
DOCKED: ATOM      5  C   UNL     1      37.463  13.954 121.094 -0.35 -0.00    +0.000 A 
DOCKED: ATOM      6  C   UNL     1      37.457  15.326 120.832 -0.22 -0.00    +0.000 A 
DOCKED: ATOM      7  C   UNL     1      37.022  16.238 121.806 -0.20 -0.00    +0.000 A 
DOCKED: ATOM      8  C   UNL     1      36.631  15.751 123.064 -0.33 -0.00    +0.000 A 
DOCKED: ATOM      9  C   UNL     1      36.636  14.378 123.329 -0.44 -0.00    +0.000 A 
DOCKED: ATOM     10  CM  UNL     1      37.045  14.851 122.078 +0.00 -0.00    +0.000 AC
DOCKED: BRANCH   4  11
DOCKED: ATOM     11  C   UNL     1      37.055  11.090 121.583 -0.52 -0.00    +0.000 C 
DOCKED: ATOM     12  C   UNL     1      37.073  11.996 122.571 -0.61 -0.00    +0.000 C 
DOCKED: BRANCH  10  13
DOCKED: ATOM     13  O   UNL     1      37.061   8.810 120.897 -2.68 -0.00    +0.000 OA
DOCKED: ATOM     14  C   UNL     1      37.059   9.638 121.848 -0.59 -0.00    +0.000 C 
DOCKED: ATOM     15  N   UNL     1      37.058   9.164 123.197 -0.63 -0.00    +0.000 N 
DOCKED: ATOM     16  O   UNL     1      37.060   7.835 123.457 -2.65 -0.00    +0.000 OA
DOCKED: ATOM     17  H   UNL     1      37.056   9.808 123.942 -0.47 -0.00    +0.000 HD
DOCKED: ENDBRANCH  10  13
DOCKED: ENDBRANCH   4  11
DOCKED: ENDBRANCH   3   7
DOCKED: ENDBRANCH   1   3
DOCKED: BRANCH   1  17
DOCKED: ATOM     18  C   UNL     1      36.027  19.625 120.242 -0.13 -0.00    +0.000 C 
DOCKED: BRANCH  17  18
DOCKED: ATOM     19  C   UNL     1      36.946  20.139 119.130 -0.08 -0.00    +0.000 C 
DOCKED: BRANCH  18  19
DOCKED: ATOM     20  O   UNL     1      36.860  19.297 118.014 -0.04 -0.00    +0.000 OA
DOCKED: ATOM     21  H   UNL     1      35.967  18.922 117.960 +0.00 -0.00    +0.000 HD
DOCKED: ENDBRANCH  18  19
DOCKED: ENDBRANCH  17  18
DOCKED: ENDBRANCH   1  17
DOCKED: BRANCH   1  21
DOCKED: ATOM     22  C   UNL     1      34.838  17.466 120.403 -0.13 -0.00    +0.000 C 
DOCKED: BRANCH  21  22
DOCKED: ATOM     23  C   UNL     1      33.764  18.338 121.063 -0.26 -0.00    +0.000 C 
DOCKED: BRANCH  22  23
DOCKED: ATOM     24  C   UNL     1      32.668  18.667 120.090 -0.37 -0.00    +0.000 A 
DOCKED: ATOM     25  C   UNL     1      31.353  18.220 120.150 -0.36 -0.00    +0.000 A 
DOCKED: ATOM     26  N   UNL     1      30.606  18.817 119.194 -0.41 -0.00    +0.000 N 
DOCKED: ATOM     27  C   UNL     1      31.435  19.649 118.540 -0.27 -0.00    +0.000 A 
DOCKED: ATOM     28  C   UNL     1      32.703  19.589 119.060 -0.26 -0.00    +0.000 A 
DOCKED: ATOM     29  C   UNL     1      33.736  20.389 118.569 -0.13 -0.00    +0.000 A 
DOCKED: ATOM     30  C   UNL     1      33.440  21.268 117.512 -0.11 -0.00    +0.000 A 
DOCKED: ATOM     31  C   UNL     1      32.135  21.329 116.976 -0.09 -0.00    +0.000 A 
DOCKED: ATOM     32  C   UNL     1      31.113  20.513 117.494 -0.14 -0.00    +0.000 A 
DOCKED: ATOM     33  H   UNL     1      29.649  18.672 119.012 -0.12 -0.00    +0.000 HD
DOCKED: ATOM     34  CM  UNL     1      31.716  18.983 119.400 +0.00 -0.00    +0.000 AC
DOCKED: ATOM     35  CM  UNL     1      32.427  20.456 118.026 +0.00 -0.00    +0.000 AC
DOCKED: ENDBRANCH  22  23
DOCKED: ENDBRANCH  21  22
DOCKED: ENDBRANCH   1  21
DOCKED: TORSDOF 10DOCKED: TER
DOCKED: ENDMDL
________________________________________________________________________________


	BEGINNING GENETIC ALGORITHM DOCKING 75 of 100
Run: 75 Seed: 372890416 959385727 [ Run 75 of 100 GA/GALS ]
Beginning LAMARCKIAN GENETIC ALGORITHM (LGA), with a maximum of 2500000 energy evaluations.

Final-Value: -17.400


	FINAL GENETIC ALGORITHM DOCKED STATE
	_______________________________________________


Detailed state:  trans 37.378 18.537 122.563 quatxyzw -0.845105 -0.018596 0.343016 -0.409625 center 0.288 0.007 -0.056 ntor 10 98.5388 -12.0137 6.3886 151.4365 -180.0000 -150.7117 -38.4500 70.6379 128.9121 -170.9727
State:	 37.378  18.537 122.563  -0.926 -0.020  0.376 -131.637     98.54  -12.01    6.39  151.44 -180.00 -150.71  -38.45   70.64  128.91 -170.97

DOCKED: MODEL       75
DOCKED: USER    Run = 75
DOCKED: USER    DPF = ligand_dock.biased.dpf
DOCKED: USER  
DOCKED: USER    Estimated Free Energy of Binding    =  -11.95 kcal/mol  [=(1)+(2)+(3)-(4)]
DOCKED: USER    Estimated Inhibition Constant, Ki   =    1.73 nM (nanomolar)  [Temperature = 298.15 K]
DOCKED: USER    
DOCKED: USER    (1) Final Intermolecular Energy     =  -14.94 kcal/mol
DOCKED: USER        vdW + Hbond + desolv Energy     =  -14.94 kcal/mol
DOCKED: USER        Electrostatic Energy            =   +0.00 kcal/mol
DOCKED: USER    (2) Final Total Internal Energy     =   -2.46 kcal/mol
DOCKED: USER    (3) Torsional Free Energy           =   +2.98 kcal/mol
DOCKED: USER    (4) Unbound System's Energy  [=(2)] =   -2.46 kcal/mol
DOCKED: USER    
DOCKED: USER    
DOCKED: USER    NEWDPF move ligand.dum.pdbqt
DOCKED: USER    NEWDPF about 0.288000 0.007000 -0.056000
DOCKED: USER    NEWDPF tran0 37.378009 18.536878 122.562944
DOCKED: USER    NEWDPF quaternion0 -0.845105 -0.018596 0.343016 -0.409625
DOCKED: USER    NEWDPF axisangle0 -0.926392 -0.020385 0.376009 -131.637486
DOCKED: USER    NEWDPF quat0 -0.926392 -0.020385 0.376009 -131.637486
DOCKED: USER    NEWDPF dihe0 98.54 -12.01 6.39 151.44 -180.00 -150.71 -38.45 70.64 128.91 -170.97 
DOCKED: USER  keepresnum = 1 
DOCKED: USER  
DOCKED: REMARK  Name = 
DOCKED: REMARK  10 active torsions:
DOCKED: REMARK  status: ('A' for Active; 'I' for Inactive)
DOCKED: REMARK    1  A    between atoms: C_2  and  C_5
DOCKED: REMARK    2  A    between atoms: C_6  and  C_7
DOCKED: REMARK    3  A    between atoms: C_10  and  C_11
DOCKED: REMARK    4  A    between atoms: C_11  and  N_12
DOCKED: REMARK    5  A    between atoms: N_12  and  C_13
DOCKED: REMARK    6  A    between atoms: N_12  and  C_16
DOCKED: REMARK    7  A    between atoms: C_13  and  C_14
DOCKED: REMARK    8  A    between atoms: C_14  and  O_15
DOCKED: REMARK    9  A    between atoms: C_16  and  C_17
DOCKED: REMARK   10  A    between atoms: C_17  and  C_18
DOCKED: REMARK                            x       y       z     vdW  Elec       q    Type
DOCKED: REMARK                         _______ _______ _______ _____ _____    ______ ____
DOCKED: USER                              x       y       z     vdW  Elec       q    Type
DOCKED: USER                           _______ _______ _______ _____ _____    ______ ____
DOCKED: ROOT
DOCKED: ATOM      1  N   UNL     1      36.460  18.334 123.511 -0.18 -0.00    +0.000 N 
DOCKED: ATOM      2  H   UNL     1      35.834  17.630 123.902 -0.00 -0.00    +0.000 HD
DOCKED: ENDROOT
DOCKED: BRANCH   1   3
DOCKED: ATOM      3  C   UNL     1      37.527  17.530 122.859 -0.19 -0.00    +0.000 C 
DOCKED: BRANCH   3   7
DOCKED: ATOM      4  C   UNL     1      36.963  13.229 123.067 -0.52 -0.00    +0.000 A 
DOCKED: ATOM      5  C   UNL     1      37.865  13.789 122.149 -0.42 -0.00    +0.000 A 
DOCKED: ATOM      6  C   UNL     1      38.048  15.172 122.084 -0.30 -0.00    +0.000 A 
DOCKED: ATOM      7  C   UNL     1      37.313  16.030 122.917 -0.28 -0.00    +0.000 A 
DOCKED: ATOM      8  C   UNL     1      36.419  15.472 123.846 -0.35 -0.00    +0.000 A 
DOCKED: ATOM      9  C   UNL     1      36.235  14.088 123.913 -0.43 -0.00    +0.000 A 
DOCKED: ATOM     10  CM  UNL     1      37.141  14.629 122.996 +0.00 -0.00    +0.000 AC
DOCKED: BRANCH   4  11
DOCKED: ATOM     11  C   UNL     1      37.122  10.951 122.066 -0.46 -0.00    +0.000 C 
DOCKED: ATOM     12  C   UNL     1      36.796  11.754 123.089 -0.68 -0.00    +0.000 C 
DOCKED: BRANCH  10  13
DOCKED: ATOM     13  O   UNL     1      36.697   8.829 121.074 -2.60 -0.00    +0.000 OA
DOCKED: ATOM     14  C   UNL     1      36.931   9.489 122.123 -0.65 -0.00    +0.000 C 
DOCKED: ATOM     15  N   UNL     1      37.009   8.812 123.379 -0.63 -0.00    +0.000 N 
DOCKED: ATOM     16  O   UNL     1      36.836   7.471 123.449 -2.39 -0.00    +0.000 OA
DOCKED: ATOM     17  H   UNL     1      37.192   9.324 124.201 -0.60 -0.00    +0.000 HD
DOCKED: ENDBRANCH  10  13
DOCKED: ENDBRANCH   4  11
DOCKED: ENDBRANCH   3   7
DOCKED: ENDBRANCH   1   3
DOCKED: BRANCH   1  17
DOCKED: ATOM     18  C   UNL     1      35.605  19.109 122.583 -0.19 -0.00    +0.000 C 
DOCKED: BRANCH  17  18
DOCKED: ATOM     19  C   UNL     1      34.579  18.216 121.882 -0.31 -0.00    +0.000 C 
DOCKED: BRANCH  18  19
DOCKED: ATOM     20  O   UNL     1      34.019  17.320 122.802 -0.47 -0.00    +0.000 OA
DOCKED: ATOM     21  H   UNL     1      33.891  17.769 123.652 -0.03 -0.00    +0.000 HD
DOCKED: ENDBRANCH  18  19
DOCKED: ENDBRANCH  17  18
DOCKED: ENDBRANCH   1  17
DOCKED: BRANCH   1  21
DOCKED: ATOM     22  C   UNL     1      36.943  19.137 124.659 -0.17 -0.00    +0.000 C 
DOCKED: BRANCH  21  22
DOCKED: ATOM     23  C   UNL     1      38.304  19.766 124.339 -0.10 -0.00    +0.000 C 
DOCKED: BRANCH  22  23
DOCKED: ATOM     24  C   UNL     1      39.420  18.969 124.951 -0.16 -0.00    +0.000 A 
DOCKED: ATOM     25  C   UNL     1      40.543  18.484 124.290 -0.22 -0.00    +0.000 A 
DOCKED: ATOM     26  N   UNL     1      41.407  17.929 125.169 -0.33 -0.00    +0.000 N 
DOCKED: ATOM     27  C   UNL     1      40.846  18.073 126.382 -0.33 -0.00    +0.000 A 
DOCKED: ATOM     28  C   UNL     1      39.633  18.707 126.292 -0.22 -0.00    +0.000 A 
DOCKED: ATOM     29  C   UNL     1      38.873  19.002 127.424 -0.17 -0.00    +0.000 A 
DOCKED: ATOM     30  C   UNL     1      39.389  18.625 128.677 -0.21 -0.00    +0.000 A 
DOCKED: ATOM     31  C   UNL     1      40.637  17.972 128.771 -0.38 -0.00    +0.000 A 
DOCKED: ATOM     32  C   UNL     1      41.383  17.691 127.611 -0.37 -0.00    +0.000 A 
DOCKED: ATOM     33  H   UNL     1      42.271  17.505 124.964 -0.58 -0.00    +0.000 HD
DOCKED: ATOM     34  CM  UNL     1      40.403  18.417 125.409 +0.00 -0.00    +0.000 AC
DOCKED: ATOM     35  CM  UNL     1      40.127  18.345 127.526 +0.00 -0.00    +0.000 AC
DOCKED: ENDBRANCH  22  23
DOCKED: ENDBRANCH  21  22
DOCKED: ENDBRANCH   1  21
DOCKED: TORSDOF 10DOCKED: TER
DOCKED: ENDMDL
________________________________________________________________________________


	BEGINNING GENETIC ALGORITHM DOCKING 76 of 100
Run: 76 Seed: 1068856015 1871831254 [ Run 76 of 100 GA/GALS ]
Beginning LAMARCKIAN GENETIC ALGORITHM (LGA), with a maximum of 2500000 energy evaluations.

Final-Value: -17.131


	FINAL GENETIC ALGORITHM DOCKED STATE
	_______________________________________________


Detailed state:  trans 38.228 18.502 120.352 quatxyzw -0.886120 -0.015289 0.361564 -0.289533 center 0.288 0.007 -0.056 ntor 10 180.0000 -88.0620 60.7965 -19.2997 -145.0979 5.1736 -17.2661 -174.1857 9.9010 -152.8033
State:	 38.228  18.502 120.352  -0.926 -0.016  0.378 -146.340    180.00  -88.06   60.80  -19.30 -145.10    5.17  -17.27 -174.19    9.90 -152.80

DOCKED: MODEL       76
DOCKED: USER    Run = 76
DOCKED: USER    DPF = ligand_dock.biased.dpf
DOCKED: USER  
DOCKED: USER    Estimated Free Energy of Binding    =  -10.75 kcal/mol  [=(1)+(2)+(3)-(4)]
DOCKED: USER    Estimated Inhibition Constant, Ki   =   13.24 nM (nanomolar)  [Temperature = 298.15 K]
DOCKED: USER    
DOCKED: USER    (1) Final Intermolecular Energy     =  -13.73 kcal/mol
DOCKED: USER        vdW + Hbond + desolv Energy     =  -13.73 kcal/mol
DOCKED: USER        Electrostatic Energy            =   +0.00 kcal/mol
DOCKED: USER    (2) Final Total Internal Energy     =   -3.40 kcal/mol
DOCKED: USER    (3) Torsional Free Energy           =   +2.98 kcal/mol
DOCKED: USER    (4) Unbound System's Energy  [=(2)] =   -3.40 kcal/mol
DOCKED: USER    
DOCKED: USER    
DOCKED: USER    NEWDPF move ligand.dum.pdbqt
DOCKED: USER    NEWDPF about 0.288000 0.007000 -0.056000
DOCKED: USER    NEWDPF tran0 38.227675 18.501532 120.351625
DOCKED: USER    NEWDPF quaternion0 -0.886120 -0.015289 0.361564 -0.289533
DOCKED: USER    NEWDPF axisangle0 -0.925773 -0.015973 0.377743 -146.339991
DOCKED: USER    NEWDPF quat0 -0.925773 -0.015973 0.377743 -146.339991
DOCKED: USER    NEWDPF dihe0 180.00 -88.06 60.80 -19.30 -145.10 5.17 -17.27 -174.19 9.90 -152.80 
DOCKED: USER  keepresnum = 1 
DOCKED: USER  
DOCKED: REMARK  Name = 
DOCKED: REMARK  10 active torsions:
DOCKED: REMARK  status: ('A' for Active; 'I' for Inactive)
DOCKED: REMARK    1  A    between atoms: C_2  and  C_5
DOCKED: REMARK    2  A    between atoms: C_6  and  C_7
DOCKED: REMARK    3  A    between atoms: C_10  and  C_11
DOCKED: REMARK    4  A    between atoms: C_11  and  N_12
DOCKED: REMARK    5  A    between atoms: N_12  and  C_13
DOCKED: REMARK    6  A    between atoms: N_12  and  C_16
DOCKED: REMARK    7  A    between atoms: C_13  and  C_14
DOCKED: REMARK    8  A    between atoms: C_14  and  O_15
DOCKED: REMARK    9  A    between atoms: C_16  and  C_17
DOCKED: REMARK   10  A    between atoms: C_17  and  C_18
DOCKED: REMARK                            x       y       z     vdW  Elec       q    Type
DOCKED: REMARK                         _______ _______ _______ _____ _____    ______ ____
DOCKED: USER                              x       y       z     vdW  Elec       q    Type
DOCKED: USER                           _______ _______ _______ _____ _____    ______ ____
DOCKED: ROOT
DOCKED: ATOM      1  N   UNL     1      37.323  18.448 121.332 -0.09 -0.00    +0.000 N 
DOCKED: ATOM      2  H   UNL     1      36.759  17.804 121.887 +0.00 -0.00    +0.000 HD
DOCKED: ENDROOT
DOCKED: BRANCH   1   3
DOCKED: ATOM      3  C   UNL     1      38.464  17.612 120.877 -0.08 -0.00    +0.000 C 
DOCKED: BRANCH   3   7
DOCKED: ATOM      4  C   UNL     1      37.648  13.347 120.957 -0.41 -0.00    +0.000 A 
DOCKED: ATOM      5  C   UNL     1      38.033  14.023 122.124 -0.41 -0.00    +0.000 A 
DOCKED: ATOM      6  C   UNL     1      38.293  15.396 122.099 -0.28 -0.00    +0.000 A 
DOCKED: ATOM      7  C   UNL     1      38.201  16.118 120.899 -0.16 -0.00    +0.000 A 
DOCKED: ATOM      8  C   UNL     1      37.803  15.447 119.731 -0.19 -0.00    +0.000 A 
DOCKED: ATOM      9  C   UNL     1      37.541  14.073 119.754 -0.32 -0.00    +0.000 A 
DOCKED: ATOM     10  CM  UNL     1      37.920  14.733 120.928 +0.00 -0.00    +0.000 AC
DOCKED: BRANCH   4  11
DOCKED: ATOM     11  C   UNL     1      37.241  11.215 122.184 -0.36 -0.00    +0.000 C 
DOCKED: ATOM     12  C   UNL     1      37.394  11.886 121.033 -0.51 -0.00    +0.000 C 
DOCKED: BRANCH  10  13
DOCKED: ATOM     13  O   UNL     1      36.551   9.157 121.205 -2.46 -0.00    +0.000 OA
DOCKED: ATOM     14  C   UNL     1      37.000   9.759 122.218 -0.60 -0.00    +0.000 C 
DOCKED: ATOM     15  N   UNL     1      37.276   9.023 123.412 -0.52 -0.00    +0.000 N 
DOCKED: ATOM     16  O   UNL     1      37.060   7.687 123.460 -2.67 -0.00    +0.000 OA
DOCKED: ATOM     17  H   UNL     1      37.626   9.491 124.206 -0.63 -0.00    +0.000 HD
DOCKED: ENDBRANCH  10  13
DOCKED: ENDBRANCH   4  11
DOCKED: ENDBRANCH   3   7
DOCKED: ENDBRANCH   1   3
DOCKED: BRANCH   1  17
DOCKED: ATOM     18  C   UNL     1      36.411  18.901 120.257 -0.15 -0.00    +0.000 C 
DOCKED: BRANCH  17  18
DOCKED: ATOM     19  C   UNL     1      34.945  18.643 120.615 -0.27 -0.00    +0.000 C 
DOCKED: BRANCH  18  19
DOCKED: ATOM     20  O   UNL     1      34.840  17.475 121.382 -0.33 -0.00    +0.000 OA
DOCKED: ATOM     21  H   UNL     1      34.453  17.689 122.245 -0.02 -0.00    +0.000 HD
DOCKED: ENDBRANCH  18  19
DOCKED: ENDBRANCH  17  18
DOCKED: ENDBRANCH   1  17
DOCKED: BRANCH   1  21
DOCKED: ATOM     22  C   UNL     1      37.721  19.541 122.251 -0.10 -0.00    +0.000 C 
DOCKED: BRANCH  21  22
DOCKED: ATOM     23  C   UNL     1      37.966  18.995 123.661 -0.13 -0.00    +0.000 C 
DOCKED: BRANCH  22  23
DOCKED: ATOM     24  C   UNL     1      36.668  18.760 124.378 -0.17 -0.00    +0.000 A 
DOCKED: ATOM     25  C   UNL     1      35.854  19.735 124.946 -0.16 -0.00    +0.000 A 
DOCKED: ATOM     26  N   UNL     1      34.700  19.188 125.390 -0.23 -0.00    +0.000 N 
DOCKED: ATOM     27  C   UNL     1      34.771  17.879 125.092 -0.32 -0.00    +0.000 A 
DOCKED: ATOM     28  C   UNL     1      35.956  17.579 124.470 -0.26 -0.00    +0.000 A 
DOCKED: ATOM     29  C   UNL     1      36.248  16.286 124.032 -0.29 -0.00    +0.000 A 
DOCKED: ATOM     30  C   UNL     1      35.284  15.286 124.250 -0.48 -0.00    +0.000 A 
DOCKED: ATOM     31  C   UNL     1      34.064  15.594 124.890 -0.47 -0.00    +0.000 A 
DOCKED: ATOM     32  C   UNL     1      33.796  16.907 125.318 -0.30 -0.00    +0.000 A 
DOCKED: ATOM     33  H   UNL     1      33.957  19.653 125.839 -0.01 -0.00    +0.000 HD
DOCKED: ATOM     34  CM  UNL     1      35.561  18.646 124.872 -0.21 -0.00    +0.000 AC
DOCKED: ATOM     35  CM  UNL     1      35.020  16.589 124.675 -0.17 -0.00    +0.000 AC
DOCKED: ENDBRANCH  22  23
DOCKED: ENDBRANCH  21  22
DOCKED: ENDBRANCH   1  21
DOCKED: TORSDOF 10DOCKED: TER
DOCKED: ENDMDL
________________________________________________________________________________


	BEGINNING GENETIC ALGORITHM DOCKING 77 of 100
Run: 77 Seed: 419963413 1724327592 [ Run 77 of 100 GA/GALS ]
Beginning LAMARCKIAN GENETIC ALGORITHM (LGA), with a maximum of 2500000 energy evaluations.

Final-Value: -15.804


	FINAL GENETIC ALGORITHM DOCKED STATE
	_______________________________________________


Detailed state:  trans 37.600 18.714 122.486 quatxyzw -0.549972 0.197620 0.677876 -0.446050 center 0.288 0.007 -0.056 ntor 10 62.4560 37.7446 -138.1692 -179.5297 -28.9787 -65.2461 148.0598 -49.4762 11.2599 -180.0000
State:	 37.600  18.714 122.486  -0.614  0.221  0.757 -127.019     62.46   37.74 -138.17 -179.53  -28.98  -65.25  148.06  -49.48   11.26 -180.00

DOCKED: MODEL       77
DOCKED: USER    Run = 77
DOCKED: USER    DPF = ligand_dock.biased.dpf
DOCKED: USER  
DOCKED: USER    Estimated Free Energy of Binding    =  -10.50 kcal/mol  [=(1)+(2)+(3)-(4)]
DOCKED: USER    Estimated Inhibition Constant, Ki   =   20.06 nM (nanomolar)  [Temperature = 298.15 K]
DOCKED: USER    
DOCKED: USER    (1) Final Intermolecular Energy     =  -13.48 kcal/mol
DOCKED: USER        vdW + Hbond + desolv Energy     =  -13.48 kcal/mol
DOCKED: USER        Electrostatic Energy            =   +0.00 kcal/mol
DOCKED: USER    (2) Final Total Internal Energy     =   -2.32 kcal/mol
DOCKED: USER    (3) Torsional Free Energy           =   +2.98 kcal/mol
DOCKED: USER    (4) Unbound System's Energy  [=(2)] =   -2.32 kcal/mol
DOCKED: USER    
DOCKED: USER    
DOCKED: USER    NEWDPF move ligand.dum.pdbqt
DOCKED: USER    NEWDPF about 0.288000 0.007000 -0.056000
DOCKED: USER    NEWDPF tran0 37.599706 18.713543 122.486319
DOCKED: USER    NEWDPF quaternion0 -0.549972 0.197620 0.677876 -0.446050
DOCKED: USER    NEWDPF axisangle0 -0.614488 0.220803 0.757397 -127.018953
DOCKED: USER    NEWDPF quat0 -0.614488 0.220803 0.757397 -127.018953
DOCKED: USER    NEWDPF dihe0 62.46 37.74 -138.17 -179.53 -28.98 -65.25 148.06 -49.48 11.26 -180.00 
DOCKED: USER  keepresnum = 1 
DOCKED: USER  
DOCKED: REMARK  Name = 
DOCKED: REMARK  10 active torsions:
DOCKED: REMARK  status: ('A' for Active; 'I' for Inactive)
DOCKED: REMARK    1  A    between atoms: C_2  and  C_5
DOCKED: REMARK    2  A    between atoms: C_6  and  C_7
DOCKED: REMARK    3  A    between atoms: C_10  and  C_11
DOCKED: REMARK    4  A    between atoms: C_11  and  N_12
DOCKED: REMARK    5  A    between atoms: N_12  and  C_13
DOCKED: REMARK    6  A    between atoms: N_12  and  C_16
DOCKED: REMARK    7  A    between atoms: C_13  and  C_14
DOCKED: REMARK    8  A    between atoms: C_14  and  O_15
DOCKED: REMARK    9  A    between atoms: C_16  and  C_17
DOCKED: REMARK   10  A    between atoms: C_17  and  C_18
DOCKED: REMARK                            x       y       z     vdW  Elec       q    Type
DOCKED: REMARK                         _______ _______ _______ _____ _____    ______ ____
DOCKED: USER                              x       y       z     vdW  Elec       q    Type
DOCKED: USER                           _______ _______ _______ _____ _____    ______ ____
DOCKED: ROOT
DOCKED: ATOM      1  N   UNL     1      37.846  18.371 123.753 -0.15 -0.00    +0.000 N 
DOCKED: ATOM      2  H   UNL     1      37.713  17.625 124.436 -0.02 -0.00    +0.000 HD
DOCKED: ENDROOT
DOCKED: BRANCH   1   3
DOCKED: ATOM      3  C   UNL     1      37.764  17.667 122.446 -0.15 -0.00    +0.000 C 
DOCKED: BRANCH   3   7
DOCKED: ATOM      4  C   UNL     1      37.443  13.343 122.691 -0.48 -0.00    +0.000 A 
DOCKED: ATOM      5  C   UNL     1      36.707  14.165 123.557 -0.44 -0.00    +0.000 A 
DOCKED: ATOM      6  C   UNL     1      36.808  15.556 123.477 -0.34 -0.00    +0.000 A 
DOCKED: ATOM      7  C   UNL     1      37.670  16.157 122.546 -0.24 -0.00    +0.000 A 
DOCKED: ATOM      8  C   UNL     1      38.399  15.337 121.669 -0.27 -0.00    +0.000 A 
DOCKED: ATOM      9  C   UNL     1      38.299  13.945 121.747 -0.38 -0.00    +0.000 A 
DOCKED: ATOM     10  CM  UNL     1      37.554  14.750 122.615 +0.00 -0.00    +0.000 AC
DOCKED: BRANCH   4  11
DOCKED: ATOM     11  C   UNL     1      37.065  11.048 121.794 -0.53 -0.00    +0.000 C 
DOCKED: ATOM     12  C   UNL     1      37.310  11.870 122.824 -0.51 -0.00    +0.000 C 
DOCKED: BRANCH  10  13
DOCKED: ATOM     13  O   UNL     1      36.684   8.842 120.983 -2.60 -0.00    +0.000 OA
DOCKED: ATOM     14  C   UNL     1      36.929   9.588 121.969 -0.63 -0.00    +0.000 C 
DOCKED: ATOM     15  N   UNL     1      37.073   9.014 123.270 -0.63 -0.00    +0.000 N 
DOCKED: ATOM     16  O   UNL     1      36.951   7.677 123.448 -2.60 -0.00    +0.000 OA
DOCKED: ATOM     17  H   UNL     1      37.264   9.594 124.043 -0.55 -0.00    +0.000 HD
DOCKED: ENDBRANCH  10  13
DOCKED: ENDBRANCH   4  11
DOCKED: ENDBRANCH   3   7
DOCKED: ENDBRANCH   1   3
DOCKED: BRANCH   1  17
DOCKED: ATOM     18  C   UNL     1      36.740  19.317 124.025 -0.17 -0.00    +0.000 C 
DOCKED: BRANCH  17  18
DOCKED: ATOM     19  C   UNL     1      36.787  20.525 123.085 -0.15 -0.00    +0.000 C 
DOCKED: BRANCH  18  19
DOCKED: ATOM     20  O   UNL     1      35.993  20.283 121.957 -0.75 +0.00    +0.000 OA
DOCKED: ATOM     21  H   UNL     1      35.565  19.417 122.044 -0.01 -0.00    +0.000 HD
DOCKED: ENDBRANCH  18  19
DOCKED: ENDBRANCH  17  18
DOCKED: ENDBRANCH   1  17
DOCKED: BRANCH   1  21
DOCKED: ATOM     22  C   UNL     1      39.182  18.949 124.031 -0.14 -0.00    +0.000 C 
DOCKED: BRANCH  21  22
DOCKED: ATOM     23  C   UNL     1      40.164  17.851 124.453 -0.29 -0.00    +0.000 C 
DOCKED: BRANCH  22  23
DOCKED: ATOM     24  C   UNL     1      40.816  17.224 123.255 -0.27 -0.00    +0.000 A 
DOCKED: ATOM     25  C   UNL     1      41.208  15.895 123.132 -0.32 -0.00    +0.000 A 
DOCKED: ATOM     26  N   UNL     1      41.635  15.642 121.875 -0.36 -0.00    +0.000 N 
DOCKED: ATOM     27  C   UNL     1      41.501  16.795 121.197 -0.17 -0.00    +0.000 A 
DOCKED: ATOM     28  C   UNL     1      41.000  17.785 122.004 -0.12 -0.00    +0.000 A 
DOCKED: ATOM     29  C   UNL     1      40.740  19.067 121.518 -0.04 -0.00    +0.000 A 
DOCKED: ATOM     30  C   UNL     1      41.011  19.322 120.162 -0.01 -0.00    +0.000 A 
DOCKED: ATOM     31  C   UNL     1      41.527  18.303 119.331 -0.03 -0.00    +0.000 A 
DOCKED: ATOM     32  C   UNL     1      41.776  17.019 119.848 -0.11 -0.00    +0.000 A 
DOCKED: ATOM     33  H   UNL     1      41.975  14.787 121.525 -0.02 -0.00    +0.000 HD
DOCKED: ATOM     34  CM  UNL     1      41.244  16.635 122.279 +0.00 -0.00    +0.000 AC
DOCKED: ATOM     35  CM  UNL     1      41.260  18.048 120.677 +0.00 -0.00    +0.000 AC
DOCKED: ENDBRANCH  22  23
DOCKED: ENDBRANCH  21  22
DOCKED: ENDBRANCH   1  21
DOCKED: TORSDOF 10DOCKED: TER
DOCKED: ENDMDL
________________________________________________________________________________


	BEGINNING GENETIC ALGORITHM DOCKING 78 of 100
Run: 78 Seed: 1035679851 346724120 [ Run 78 of 100 GA/GALS ]
Beginning LAMARCKIAN GENETIC ALGORITHM (LGA), with a maximum of 2500000 energy evaluations.

Final-Value: -16.194


	FINAL GENETIC ALGORITHM DOCKED STATE
	_______________________________________________


Detailed state:  trans 36.539 18.636 123.764 quatxyzw -0.256277 0.180670 0.906508 -0.282706 center 0.288 0.007 -0.056 ntor 10 -63.0737 -96.1815 104.6520 180.0000 110.1933 159.4586 180.0000 -154.8045 -32.5622 -160.7528
State:	 36.539  18.636 123.764  -0.267  0.188  0.945 -147.156    -63.07  -96.18  104.65  180.00  110.19  159.46  180.00 -154.80  -32.56 -160.75

DOCKED: MODEL       78
DOCKED: USER    Run = 78
DOCKED: USER    DPF = ligand_dock.biased.dpf
DOCKED: USER  
DOCKED: USER    Estimated Free Energy of Binding    =  -10.89 kcal/mol  [=(1)+(2)+(3)-(4)]
DOCKED: USER    Estimated Inhibition Constant, Ki   =   10.38 nM (nanomolar)  [Temperature = 298.15 K]
DOCKED: USER    
DOCKED: USER    (1) Final Intermolecular Energy     =  -13.87 kcal/mol
DOCKED: USER        vdW + Hbond + desolv Energy     =  -13.87 kcal/mol
DOCKED: USER        Electrostatic Energy            =   +0.00 kcal/mol
DOCKED: USER    (2) Final Total Internal Energy     =   -2.32 kcal/mol
DOCKED: USER    (3) Torsional Free Energy           =   +2.98 kcal/mol
DOCKED: USER    (4) Unbound System's Energy  [=(2)] =   -2.32 kcal/mol
DOCKED: USER    
DOCKED: USER    
DOCKED: USER    NEWDPF move ligand.dum.pdbqt
DOCKED: USER    NEWDPF about 0.288000 0.007000 -0.056000
DOCKED: USER    NEWDPF tran0 36.538777 18.635644 123.763897
DOCKED: USER    NEWDPF quaternion0 -0.256277 0.180670 0.906508 -0.282706
DOCKED: USER    NEWDPF axisangle0 -0.267176 0.188353 0.945061 -147.156417
DOCKED: USER    NEWDPF quat0 -0.267176 0.188353 0.945061 -147.156417
DOCKED: USER    NEWDPF dihe0 -63.07 -96.18 104.65 180.00 110.19 159.46 180.00 -154.80 -32.56 -160.75 
DOCKED: USER  keepresnum = 1 
DOCKED: USER  
DOCKED: REMARK  Name = 
DOCKED: REMARK  10 active torsions:
DOCKED: REMARK  status: ('A' for Active; 'I' for Inactive)
DOCKED: REMARK    1  A    between atoms: C_2  and  C_5
DOCKED: REMARK    2  A    between atoms: C_6  and  C_7
DOCKED: REMARK    3  A    between atoms: C_10  and  C_11
DOCKED: REMARK    4  A    between atoms: C_11  and  N_12
DOCKED: REMARK    5  A    between atoms: N_12  and  C_13
DOCKED: REMARK    6  A    between atoms: N_12  and  C_16
DOCKED: REMARK    7  A    between atoms: C_13  and  C_14
DOCKED: REMARK    8  A    between atoms: C_14  and  O_15
DOCKED: REMARK    9  A    between atoms: C_16  and  C_17
DOCKED: REMARK   10  A    between atoms: C_17  and  C_18
DOCKED: REMARK                            x       y       z     vdW  Elec       q    Type
DOCKED: REMARK                         _______ _______ _______ _____ _____    ______ ____
DOCKED: USER                              x       y       z     vdW  Elec       q    Type
DOCKED: USER                           _______ _______ _______ _____ _____    ______ ____
DOCKED: ROOT
DOCKED: ATOM      1  N   UNL     1      37.644  18.327 124.446 -0.18 -0.00    +0.000 N 
DOCKED: ATOM      2  H   UNL     1      38.184  17.542 124.811 -0.02 -0.00    +0.000 HD
DOCKED: ENDROOT
DOCKED: BRANCH   1   3
DOCKED: ATOM      3  C   UNL     1      36.870  17.729 123.327 -0.22 -0.00    +0.000 C 
DOCKED: BRANCH   3   7
DOCKED: ATOM      4  C   UNL     1      36.876  13.386 123.310 -0.52 -0.00    +0.000 A 
DOCKED: ATOM      5  C   UNL     1      38.072  14.103 123.157 -0.38 -0.00    +0.000 A 
DOCKED: ATOM      6  C   UNL     1      38.071  15.500 123.165 -0.28 -0.00    +0.000 A 
DOCKED: ATOM      7  C   UNL     1      36.868  16.213 123.298 -0.29 -0.00    +0.000 A 
DOCKED: ATOM      8  C   UNL     1      35.671  15.498 123.465 -0.42 -0.00    +0.000 A 
DOCKED: ATOM      9  C   UNL     1      35.670  14.099 123.458 -0.45 -0.00    +0.000 A 
DOCKED: ATOM     10  CM  UNL     1      36.872  14.799 123.309 +0.00 -0.00    +0.000 AC
DOCKED: BRANCH   4  11
DOCKED: ATOM     11  C   UNL     1      36.795  11.172 122.168 -0.61 -0.00    +0.000 C 
DOCKED: ATOM     12  C   UNL     1      36.929  11.902 123.284 -0.67 -0.00    +0.000 C 
DOCKED: BRANCH  10  13
DOCKED: ATOM     13  O   UNL     1      36.690   9.036 121.121 -2.61 -0.00    +0.000 OA
DOCKED: ATOM     14  C   UNL     1      36.844   9.696 122.184 -0.65 -0.00    +0.000 C 
DOCKED: ATOM     15  N   UNL     1      37.064   9.008 123.417 -0.60 -0.00    +0.000 N 
DOCKED: ATOM     16  O   UNL     1      37.111   7.655 123.449 -2.64 -0.00    +0.000 OA
DOCKED: ATOM     17  H   UNL     1      37.184   9.521 124.250 -0.59 -0.00    +0.000 HD
DOCKED: ENDBRANCH  10  13
DOCKED: ENDBRANCH   4  11
DOCKED: ENDBRANCH   3   7
DOCKED: ENDBRANCH   1   3
DOCKED: BRANCH   1  17
DOCKED: ATOM     18  C   UNL     1      36.831  18.778 125.598 -0.18 -0.00    +0.000 C 
DOCKED: BRANCH  17  18
DOCKED: ATOM     19  C   UNL     1      37.710  19.269 126.752 -0.15 -0.00    +0.000 C 
DOCKED: BRANCH  18  19
DOCKED: ATOM     20  O   UNL     1      38.811  18.417 126.907 -0.20 -0.00    +0.000 OA
DOCKED: ATOM     21  H   UNL     1      38.828  18.073 127.813 -0.02 -0.00    +0.000 HD
DOCKED: ENDBRANCH  18  19
DOCKED: ENDBRANCH  17  18
DOCKED: ENDBRANCH   1  17
DOCKED: BRANCH   1  21
DOCKED: ATOM     22  C   UNL     1      38.634  19.338 124.006 -0.11 -0.00    +0.000 C 
DOCKED: BRANCH  21  22
DOCKED: ATOM     23  C   UNL     1      40.049  18.918 124.419 -0.19 -0.00    +0.000 C 
DOCKED: BRANCH  22  23
DOCKED: ATOM     24  C   UNL     1      40.928  18.740 123.214 -0.14 -0.00    +0.000 A 
DOCKED: ATOM     25  C   UNL     1      41.527  19.755 122.475 -0.06 -0.00    +0.000 A 
DOCKED: ATOM     26  N   UNL     1      42.357  19.235 121.543 -0.06 -0.00    +0.000 N 
DOCKED: ATOM     27  C   UNL     1      42.300  17.900 121.698 -0.13 -0.00    +0.000 A 
DOCKED: ATOM     28  C   UNL     1      41.441  17.559 122.711 -0.22 -0.00    +0.000 A 
DOCKED: ATOM     29  C   UNL     1      41.238  16.229 123.084 -0.36 -0.00    +0.000 A 
DOCKED: ATOM     30  C   UNL     1      41.946  15.236 122.384 -0.47 -0.00    +0.000 A 
DOCKED: ATOM     31  C   UNL     1      42.830  15.588 121.340 -0.27 -0.00    +0.000 A 
DOCKED: ATOM     32  C   UNL     1      43.017  16.937 120.989 -0.18 -0.00    +0.000 A 
DOCKED: ATOM     33  H   UNL     1      42.895  19.731 120.885 +0.00 -0.00    +0.000 HD
DOCKED: ATOM     34  CM  UNL     1      41.732  18.657 122.303 +0.00 -0.00    +0.000 AC
DOCKED: ATOM     35  CM  UNL     1      42.128  16.575 122.034 +0.00 -0.00    +0.000 AC
DOCKED: ENDBRANCH  22  23
DOCKED: ENDBRANCH  21  22
DOCKED: ENDBRANCH   1  21
DOCKED: TORSDOF 10DOCKED: TER
DOCKED: ENDMDL
________________________________________________________________________________


	BEGINNING GENETIC ALGORITHM DOCKING 79 of 100
Run: 79 Seed: 1496405282 282357001 [ Run 79 of 100 GA/GALS ]
Beginning LAMARCKIAN GENETIC ALGORITHM (LGA), with a maximum of 2500000 energy evaluations.

Final-Value: -16.550


	FINAL GENETIC ALGORITHM DOCKED STATE
	_______________________________________________


Detailed state:  trans 36.896 17.421 122.028 quatxyzw -0.497600 0.798594 0.042329 -0.335931 center 0.288 0.007 -0.056 ntor 10 -49.4465 -37.7671 -7.5185 -180.0000 -180.0000 -155.1670 180.0000 -160.3505 -73.3144 50.5134
State:	 36.896  17.421 122.028  -0.528  0.848  0.045 -140.742    -49.45  -37.77   -7.52 -180.00 -180.00 -155.17  180.00 -160.35  -73.31   50.51

DOCKED: MODEL       79
DOCKED: USER    Run = 79
DOCKED: USER    DPF = ligand_dock.biased.dpf
DOCKED: USER  
DOCKED: USER    Estimated Free Energy of Binding    =  -11.21 kcal/mol  [=(1)+(2)+(3)-(4)]
DOCKED: USER    Estimated Inhibition Constant, Ki   =    6.09 nM (nanomolar)  [Temperature = 298.15 K]
DOCKED: USER    
DOCKED: USER    (1) Final Intermolecular Energy     =  -14.19 kcal/mol
DOCKED: USER        vdW + Hbond + desolv Energy     =  -14.19 kcal/mol
DOCKED: USER        Electrostatic Energy            =   +0.00 kcal/mol
DOCKED: USER    (2) Final Total Internal Energy     =   -2.36 kcal/mol
DOCKED: USER    (3) Torsional Free Energy           =   +2.98 kcal/mol
DOCKED: USER    (4) Unbound System's Energy  [=(2)] =   -2.36 kcal/mol
DOCKED: USER    
DOCKED: USER    
DOCKED: USER    NEWDPF move ligand.dum.pdbqt
DOCKED: USER    NEWDPF about 0.288000 0.007000 -0.056000
DOCKED: USER    NEWDPF tran0 36.896397 17.421234 122.027892
DOCKED: USER    NEWDPF quaternion0 -0.497600 0.798594 0.042329 -0.335931
DOCKED: USER    NEWDPF axisangle0 -0.528302 0.847867 0.044940 -140.741692
DOCKED: USER    NEWDPF quat0 -0.528302 0.847867 0.044940 -140.741692
DOCKED: USER    NEWDPF dihe0 -49.45 -37.77 -7.52 -180.00 -180.00 -155.17 180.00 -160.35 -73.31 50.51 
DOCKED: USER  keepresnum = 1 
DOCKED: USER  
DOCKED: REMARK  Name = 
DOCKED: REMARK  10 active torsions:
DOCKED: REMARK  status: ('A' for Active; 'I' for Inactive)
DOCKED: REMARK    1  A    between atoms: C_2  and  C_5
DOCKED: REMARK    2  A    between atoms: C_6  and  C_7
DOCKED: REMARK    3  A    between atoms: C_10  and  C_11
DOCKED: REMARK    4  A    between atoms: C_11  and  N_12
DOCKED: REMARK    5  A    between atoms: N_12  and  C_13
DOCKED: REMARK    6  A    between atoms: N_12  and  C_16
DOCKED: REMARK    7  A    between atoms: C_13  and  C_14
DOCKED: REMARK    8  A    between atoms: C_14  and  O_15
DOCKED: REMARK    9  A    between atoms: C_16  and  C_17
DOCKED: REMARK   10  A    between atoms: C_17  and  C_18
DOCKED: REMARK                            x       y       z     vdW  Elec       q    Type
DOCKED: REMARK                         _______ _______ _______ _____ _____    ______ ____
DOCKED: USER                              x       y       z     vdW  Elec       q    Type
DOCKED: USER                           _______ _______ _______ _____ _____    ______ ____
DOCKED: ROOT
DOCKED: ATOM      1  N   UNL     1      37.511  18.265 122.861 -0.12 -0.00    +0.000 N 
DOCKED: ATOM      2  H   UNL     1      37.346  19.034 123.510 +0.00 -0.00    +0.000 HD
DOCKED: ENDROOT
DOCKED: BRANCH   1   3
DOCKED: ATOM      3  C   UNL     1      36.207  17.553 122.822 -0.25 -0.00    +0.000 C 
DOCKED: BRANCH   3   7
DOCKED: ATOM      4  C   UNL     1      36.560  13.232 123.074 -0.52 -0.00    +0.000 A 
DOCKED: ATOM      5  C   UNL     1      37.014  13.921 121.940 -0.36 -0.00    +0.000 A 
DOCKED: ATOM      6  C   UNL     1      36.903  15.312 121.860 -0.25 -0.00    +0.000 A 
DOCKED: ATOM      7  C   UNL     1      36.309  16.042 122.901 -0.31 -0.00    +0.000 A 
DOCKED: ATOM      8  C   UNL     1      35.866  15.356 124.044 -0.41 -0.00    +0.000 A 
DOCKED: ATOM      9  C   UNL     1      35.977  13.965 124.126 -0.41 -0.00    +0.000 A 
DOCKED: ATOM     10  CM  UNL     1      36.438  14.637 122.990 +0.00 -0.00    +0.000 AC
DOCKED: BRANCH   4  11
DOCKED: ATOM     11  C   UNL     1      36.833  10.994 122.010 -0.59 -0.00    +0.000 C 
DOCKED: ATOM     12  C   UNL     1      36.690  11.753 123.106 -0.69 -0.00    +0.000 C 
DOCKED: BRANCH  10  13
DOCKED: ATOM     13  O   UNL     1      37.058   8.834 121.032 -2.69 -0.00    +0.000 OA
DOCKED: ATOM     14  C   UNL     1      36.949   9.524 122.083 -0.64 -0.00    +0.000 C 
DOCKED: ATOM     15  N   UNL     1      36.936   8.874 123.356 -0.62 -0.00    +0.000 N 
DOCKED: ATOM     16  O   UNL     1      37.042   7.527 123.440 -2.54 -0.00    +0.000 OA
DOCKED: ATOM     17  H   UNL     1      36.851   9.410 124.178 -0.52 -0.00    +0.000 HD
DOCKED: ENDBRANCH  10  13
DOCKED: ENDBRANCH   4  11
DOCKED: ENDBRANCH   3   7
DOCKED: ENDBRANCH   1   3
DOCKED: BRANCH   1  17
DOCKED: ATOM     18  C   UNL     1      37.898  18.932 121.596 -0.08 -0.00    +0.000 C 
DOCKED: BRANCH  17  18
DOCKED: ATOM     19  C   UNL     1      36.909  20.037 121.215 -0.12 -0.00    +0.000 C 
DOCKED: BRANCH  18  19
DOCKED: ATOM     20  O   UNL     1      36.135  20.388 122.329 -0.66 -0.00    +0.000 OA
DOCKED: ATOM     21  H   UNL     1      35.225  20.082 122.199 -0.01 +0.00    +0.000 HD
DOCKED: ENDBRANCH  18  19
DOCKED: ENDBRANCH  17  18
DOCKED: ENDBRANCH   1  17
DOCKED: BRANCH   1  21
DOCKED: ATOM     22  C   UNL     1      38.607  17.459 123.447 -0.23 -0.00    +0.000 C 
DOCKED: BRANCH  21  22
DOCKED: ATOM     23  C   UNL     1      39.763  18.365 123.887 -0.20 -0.00    +0.000 C 
DOCKED: BRANCH  22  23
DOCKED: ATOM     24  C   UNL     1      40.000  18.251 125.365 -0.26 -0.00    +0.000 A 
DOCKED: ATOM     25  C   UNL     1      41.196  17.899 125.982 -0.27 -0.00    +0.000 A 
DOCKED: ATOM     26  N   UNL     1      41.092  18.027 127.324 -0.42 -0.00    +0.000 N 
DOCKED: ATOM     27  C   UNL     1      39.846  18.473 127.559 -0.26 -0.00    +0.000 A 
DOCKED: ATOM     28  C   UNL     1      39.149  18.627 126.388 -0.17 -0.00    +0.000 A 
DOCKED: ATOM     29  C   UNL     1      37.840  19.111 126.371 -0.14 -0.00    +0.000 A 
DOCKED: ATOM     30  C   UNL     1      37.246  19.441 127.603 -0.11 -0.00    +0.000 A 
DOCKED: ATOM     31  C   UNL     1      37.964  19.283 128.809 -0.12 -0.00    +0.000 A 
DOCKED: ATOM     32  C   UNL     1      39.283  18.795 128.794 -0.19 -0.00    +0.000 A 
DOCKED: ATOM     33  H   UNL     1      41.787  17.834 127.994 -0.03 -0.00    +0.000 HD
DOCKED: ATOM     34  CM  UNL     1      40.283  18.249 126.549 +0.00 -0.00    +0.000 AC
DOCKED: ATOM     35  CM  UNL     1      38.555  18.955 127.587 +0.00 -0.00    +0.000 AC
DOCKED: ENDBRANCH  22  23
DOCKED: ENDBRANCH  21  22
DOCKED: ENDBRANCH   1  21
DOCKED: TORSDOF 10DOCKED: TER
DOCKED: ENDMDL
________________________________________________________________________________


	BEGINNING GENETIC ALGORITHM DOCKING 80 of 100
Run: 80 Seed: 178918967 1552878347 [ Run 80 of 100 GA/GALS ]
Beginning LAMARCKIAN GENETIC ALGORITHM (LGA), with a maximum of 2500000 energy evaluations.

Final-Value: -17.559


	FINAL GENETIC ALGORITHM DOCKED STATE
	_______________________________________________


Detailed state:  trans 36.590 17.037 122.797 quatxyzw 0.821068 -0.501811 -0.038947 -0.269289 center 0.288 0.007 -0.056 ntor 10 -13.3912 -84.3650 15.6906 -166.2463 -81.6897 -148.8126 -21.1286 178.7107 -155.3477 -28.3998
State:	 36.590  17.037 122.797   0.853 -0.521 -0.040 -148.756    -13.39  -84.36   15.69 -166.25  -81.69 -148.81  -21.13  178.71 -155.35  -28.40

DOCKED: MODEL       80
DOCKED: USER    Run = 80
DOCKED: USER    DPF = ligand_dock.biased.dpf
DOCKED: USER  
DOCKED: USER    Estimated Free Energy of Binding    =  -11.44 kcal/mol  [=(1)+(2)+(3)-(4)]
DOCKED: USER    Estimated Inhibition Constant, Ki   =    4.10 nM (nanomolar)  [Temperature = 298.15 K]
DOCKED: USER    
DOCKED: USER    (1) Final Intermolecular Energy     =  -14.42 kcal/mol
DOCKED: USER        vdW + Hbond + desolv Energy     =  -14.42 kcal/mol
DOCKED: USER        Electrostatic Energy            =   +0.00 kcal/mol
DOCKED: USER    (2) Final Total Internal Energy     =   -3.13 kcal/mol
DOCKED: USER    (3) Torsional Free Energy           =   +2.98 kcal/mol
DOCKED: USER    (4) Unbound System's Energy  [=(2)] =   -3.13 kcal/mol
DOCKED: USER    
DOCKED: USER    
DOCKED: USER    NEWDPF move ligand.dum.pdbqt
DOCKED: USER    NEWDPF about 0.288000 0.007000 -0.056000
DOCKED: USER    NEWDPF tran0 36.589772 17.036938 122.797318
DOCKED: USER    NEWDPF quaternion0 0.821068 -0.501811 -0.038947 -0.269289
DOCKED: USER    NEWDPF axisangle0 0.852562 -0.521059 -0.040441 -148.756067
DOCKED: USER    NEWDPF quat0 0.852562 -0.521059 -0.040441 -148.756067
DOCKED: USER    NEWDPF dihe0 -13.39 -84.36 15.69 -166.25 -81.69 -148.81 -21.13 178.71 -155.35 -28.40 
DOCKED: USER  keepresnum = 1 
DOCKED: USER  
DOCKED: REMARK  Name = 
DOCKED: REMARK  10 active torsions:
DOCKED: REMARK  status: ('A' for Active; 'I' for Inactive)
DOCKED: REMARK    1  A    between atoms: C_2  and  C_5
DOCKED: REMARK    2  A    between atoms: C_6  and  C_7
DOCKED: REMARK    3  A    between atoms: C_10  and  C_11
DOCKED: REMARK    4  A    between atoms: C_11  and  N_12
DOCKED: REMARK    5  A    between atoms: N_12  and  C_13
DOCKED: REMARK    6  A    between atoms: N_12  and  C_16
DOCKED: REMARK    7  A    between atoms: C_13  and  C_14
DOCKED: REMARK    8  A    between atoms: C_14  and  O_15
DOCKED: REMARK    9  A    between atoms: C_16  and  C_17
DOCKED: REMARK   10  A    between atoms: C_17  and  C_18
DOCKED: REMARK                            x       y       z     vdW  Elec       q    Type
DOCKED: REMARK                         _______ _______ _______ _____ _____    ______ ____
DOCKED: USER                              x       y       z     vdW  Elec       q    Type
DOCKED: USER                           _______ _______ _______ _____ _____    ______ ____
DOCKED: ROOT
DOCKED: ATOM      1  N   UNL     1      36.193  18.242 122.381 -0.18 -0.00    +0.000 N 
DOCKED: ATOM      2  H   UNL     1      35.551  19.007 122.592 -0.01 -0.00    +0.000 HD
DOCKED: ENDROOT
DOCKED: BRANCH   1   3
DOCKED: ATOM      3  C   UNL     1      36.370  17.562 123.691 -0.27 -0.00    +0.000 C 
DOCKED: BRANCH   3   7
DOCKED: ATOM      4  C   UNL     1      36.857  13.258 123.377 -0.53 -0.00    +0.000 A 
DOCKED: ATOM      5  C   UNL     1      35.580  13.827 123.496 -0.43 -0.00    +0.000 A 
DOCKED: ATOM      6  C   UNL     1      35.423  15.212 123.594 -0.45 -0.00    +0.000 A 
DOCKED: ATOM      7  C   UNL     1      36.543  16.058 123.605 -0.32 -0.00    +0.000 A 
DOCKED: ATOM      8  C   UNL     1      37.822  15.493 123.472 -0.23 -0.00    +0.000 A 
DOCKED: ATOM      9  C   UNL     1      37.981  14.108 123.373 -0.29 -0.00    +0.000 A 
DOCKED: ATOM     10  CM  UNL     1      36.700  14.659 123.486 +0.00 -0.00    +0.000 AC
DOCKED: BRANCH   4  11
DOCKED: ATOM     11  C   UNL     1      36.717  11.080 122.173 -0.63 -0.00    +0.000 C 
DOCKED: ATOM     12  C   UNL     1      36.972  11.781 123.287 -0.67 -0.00    +0.000 C 
DOCKED: BRANCH  10  13
DOCKED: ATOM     13  O   UNL     1      36.817   8.997 121.024 -2.64 -0.00    +0.000 OA
DOCKED: ATOM     14  C   UNL     1      36.832   9.609 122.127 -0.66 -0.00    +0.000 C 
DOCKED: ATOM     15  N   UNL     1      36.960   8.869 123.343 -0.63 -0.00    +0.000 N 
DOCKED: ATOM     16  O   UNL     1      37.066   7.520 123.318 -2.50 -0.00    +0.000 OA
DOCKED: ATOM     17  H   UNL     1      36.972   9.344 124.206 -0.56 -0.00    +0.000 HD
DOCKED: ENDBRANCH  10  13
DOCKED: ENDBRANCH   4  11
DOCKED: ENDBRANCH   3   7
DOCKED: ENDBRANCH   1   3
DOCKED: BRANCH   1  17
DOCKED: ATOM     18  C   UNL     1      35.486  17.445 121.353 -0.27 -0.00    +0.000 C 
DOCKED: BRANCH  17  18
DOCKED: ATOM     19  C   UNL     1      33.967  17.599 121.465 -0.27 -0.00    +0.000 C 
DOCKED: BRANCH  18  19
DOCKED: ATOM     20  O   UNL     1      33.611  17.851 122.796 -0.43 -0.00    +0.000 OA
DOCKED: ATOM     21  H   UNL     1      33.700  17.036 123.315 -0.03 -0.00    +0.000 HD
DOCKED: ENDBRANCH  18  19
DOCKED: ENDBRANCH  17  18
DOCKED: ENDBRANCH   1  17
DOCKED: BRANCH   1  21
DOCKED: ATOM     22  C   UNL     1      37.432  18.874 121.871 -0.11 -0.00    +0.000 C 
DOCKED: BRANCH  21  22
DOCKED: ATOM     23  C   UNL     1      37.865  18.220 120.554 -0.07 -0.00    +0.000 C 
DOCKED: BRANCH  22  23
DOCKED: ATOM     24  C   UNL     1      38.628  16.953 120.810 -0.10 -0.00    +0.000 A 
DOCKED: ATOM     25  C   UNL     1      38.387  15.715 120.225 -0.17 -0.00    +0.000 A 
DOCKED: ATOM     26  N   UNL     1      39.346  14.829 120.579 -0.26 -0.00    +0.000 N 
DOCKED: ATOM     27  C   UNL     1      40.199  15.503 121.370 -0.26 -0.00    +0.000 A 
DOCKED: ATOM     28  C   UNL     1      39.798  16.804 121.532 -0.15 -0.00    +0.000 A 
DOCKED: ATOM     29  C   UNL     1      40.542  17.713 122.286 -0.14 -0.00    +0.000 A 
DOCKED: ATOM     30  C   UNL     1      41.729  17.253 122.885 -0.29 -0.00    +0.000 A 
DOCKED: ATOM     31  C   UNL     1      42.142  15.913 122.718 -0.44 -0.00    +0.000 A 
DOCKED: ATOM     32  C   UNL     1      41.373  15.021 121.949 -0.35 -0.00    +0.000 A 
DOCKED: ATOM     33  H   UNL     1      39.408  13.884 120.312 -0.09 -0.00    +0.000 HD
DOCKED: ATOM     34  CM  UNL     1      39.275  15.925 120.892 +0.00 -0.00    +0.000 AC
DOCKED: ATOM     35  CM  UNL     1      40.963  16.368 122.124 +0.00 -0.00    +0.000 AC
DOCKED: ENDBRANCH  22  23
DOCKED: ENDBRANCH  21  22
DOCKED: ENDBRANCH   1  21
DOCKED: TORSDOF 10DOCKED: TER
DOCKED: ENDMDL
________________________________________________________________________________


	BEGINNING GENETIC ALGORITHM DOCKING 81 of 100
Run: 81 Seed: 590425801 1752878720 [ Run 81 of 100 GA/GALS ]
Beginning LAMARCKIAN GENETIC ALGORITHM (LGA), with a maximum of 2500000 energy evaluations.

Final-Value: -16.439


	FINAL GENETIC ALGORITHM DOCKED STATE
	_______________________________________________


Detailed state:  trans 36.464 17.186 122.557 quatxyzw 0.185726 -0.346913 -0.523215 -0.755912 center 0.288 0.007 -0.056 ntor 10 -110.1962 47.5511 178.4094 -20.2264 179.8237 173.5878 -75.5000 -161.4371 -53.5359 30.0786
State:	 36.464  17.186 122.557   0.284 -0.530 -0.799 -81.790   -110.20   47.55  178.41  -20.23  179.82  173.59  -75.50 -161.44  -53.54   30.08

DOCKED: MODEL       81
DOCKED: USER    Run = 81
DOCKED: USER    DPF = ligand_dock.biased.dpf
DOCKED: USER  
DOCKED: USER    Estimated Free Energy of Binding    =  -11.72 kcal/mol  [=(1)+(2)+(3)-(4)]
DOCKED: USER    Estimated Inhibition Constant, Ki   =    2.57 nM (nanomolar)  [Temperature = 298.15 K]
DOCKED: USER    
DOCKED: USER    (1) Final Intermolecular Energy     =  -14.70 kcal/mol
DOCKED: USER        vdW + Hbond + desolv Energy     =  -14.70 kcal/mol
DOCKED: USER        Electrostatic Energy            =   +0.00 kcal/mol
DOCKED: USER    (2) Final Total Internal Energy     =   -1.74 kcal/mol
DOCKED: USER    (3) Torsional Free Energy           =   +2.98 kcal/mol
DOCKED: USER    (4) Unbound System's Energy  [=(2)] =   -1.74 kcal/mol
DOCKED: USER    
DOCKED: USER    
DOCKED: USER    NEWDPF move ligand.dum.pdbqt
DOCKED: USER    NEWDPF about 0.288000 0.007000 -0.056000
DOCKED: USER    NEWDPF tran0 36.464014 17.186079 122.557332
DOCKED: USER    NEWDPF quaternion0 0.185726 -0.346913 -0.523215 -0.755912
DOCKED: USER    NEWDPF axisangle0 0.283693 -0.529903 -0.799201 -81.789743
DOCKED: USER    NEWDPF quat0 0.283693 -0.529903 -0.799201 -81.789743
DOCKED: USER    NEWDPF dihe0 -110.20 47.55 178.41 -20.23 179.82 173.59 -75.50 -161.44 -53.54 30.08 
DOCKED: USER  keepresnum = 1 
DOCKED: USER  
DOCKED: REMARK  Name = 
DOCKED: REMARK  10 active torsions:
DOCKED: REMARK  status: ('A' for Active; 'I' for Inactive)
DOCKED: REMARK    1  A    between atoms: C_2  and  C_5
DOCKED: REMARK    2  A    between atoms: C_6  and  C_7
DOCKED: REMARK    3  A    between atoms: C_10  and  C_11
DOCKED: REMARK    4  A    between atoms: C_11  and  N_12
DOCKED: REMARK    5  A    between atoms: N_12  and  C_13
DOCKED: REMARK    6  A    between atoms: N_12  and  C_16
DOCKED: REMARK    7  A    between atoms: C_13  and  C_14
DOCKED: REMARK    8  A    between atoms: C_14  and  O_15
DOCKED: REMARK    9  A    between atoms: C_16  and  C_17
DOCKED: REMARK   10  A    between atoms: C_17  and  C_18
DOCKED: REMARK                            x       y       z     vdW  Elec       q    Type
DOCKED: REMARK                         _______ _______ _______ _____ _____    ______ ____
DOCKED: USER                              x       y       z     vdW  Elec       q    Type
DOCKED: USER                           _______ _______ _______ _____ _____    ______ ____
DOCKED: ROOT
DOCKED: ATOM      1  N   UNL     1      35.986  18.265 121.933 -0.20 -0.00    +0.000 N 
DOCKED: ATOM      2  H   UNL     1      36.218  19.221 121.665 -0.00 -0.00    +0.000 HD
DOCKED: ENDROOT
DOCKED: BRANCH   1   3
DOCKED: ATOM      3  C   UNL     1      37.312  17.612 122.086 -0.16 -0.00    +0.000 C 
DOCKED: BRANCH   3   7
DOCKED: ATOM      4  C   UNL     1      37.214  13.300 121.577 -0.41 -0.00    +0.000 A 
DOCKED: ATOM      5  C   UNL     1      36.620  13.902 122.696 -0.42 -0.00    +0.000 A 
DOCKED: ATOM      6  C   UNL     1      36.649  15.290 122.859 -0.35 -0.00    +0.000 A 
DOCKED: ATOM      7  C   UNL     1      37.299  16.105 121.919 -0.21 -0.00    +0.000 A 
DOCKED: ATOM      8  C   UNL     1      37.884  15.507 120.791 -0.21 -0.00    +0.000 A 
DOCKED: ATOM      9  C   UNL     1      37.855  14.119 120.626 -0.33 -0.00    +0.000 A 
DOCKED: ATOM     10  CM  UNL     1      37.253  14.703 121.745 +0.00 -0.00    +0.000 AC
DOCKED: BRANCH   4  11
DOCKED: ATOM     11  C   UNL     1      36.964  10.995 122.493 -0.60 -0.00    +0.000 C 
DOCKED: ATOM     12  C   UNL     1      37.166  11.822 121.456 -0.53 -0.00    +0.000 C 
DOCKED: BRANCH  10  13
DOCKED: ATOM     13  O   UNL     1      36.694   9.008 121.209 -2.62 -0.00    +0.000 OA
DOCKED: ATOM     14  C   UNL     1      36.934   9.528 122.333 -0.65 -0.00    +0.000 C 
DOCKED: ATOM     15  N   UNL     1      37.176   8.687 123.463 -0.61 -0.00    +0.000 N 
DOCKED: ATOM     16  O   UNL     1      37.150   7.339 123.333 -2.36 -0.00    +0.000 OA
DOCKED: ATOM     17  H   UNL     1      37.363   9.090 124.342 -0.60 -0.00    +0.000 HD
DOCKED: ENDBRANCH  10  13
DOCKED: ENDBRANCH   4  11
DOCKED: ENDBRANCH   3   7
DOCKED: ENDBRANCH   1   3
DOCKED: BRANCH   1  17
DOCKED: ATOM     18  C   UNL     1      35.213  18.414 123.187 -0.28 -0.00    +0.000 C 
DOCKED: BRANCH  17  18
DOCKED: ATOM     19  C   UNL     1      33.978  17.509 123.200 -0.32 -0.00    +0.000 C 
DOCKED: BRANCH  18  19
DOCKED: ATOM     20  O   UNL     1      34.220  16.385 124.001 -0.54 -0.00    +0.000 OA
DOCKED: ATOM     21  H   UNL     1      33.500  15.746 123.887 -0.05 -0.00    +0.000 HD
DOCKED: ENDBRANCH  18  19
DOCKED: ENDBRANCH  17  18
DOCKED: ENDBRANCH   1  17
DOCKED: BRANCH   1  21
DOCKED: ATOM     22  C   UNL     1      35.180  17.710 120.820 -0.27 -0.00    +0.000 C 
DOCKED: BRANCH  21  22
DOCKED: ATOM     23  C   UNL     1      34.424  18.830 120.096 -0.27 -0.00    +0.000 C 
DOCKED: BRANCH  22  23
DOCKED: ATOM     24  C   UNL     1      33.009  18.420 119.804 -0.33 -0.00    +0.000 A 
DOCKED: ATOM     25  C   UNL     1      31.902  18.651 120.613 -0.30 -0.00    +0.000 A 
DOCKED: ATOM     26  N   UNL     1      30.767  18.269 119.984 -0.45 -0.00    +0.000 N 
DOCKED: ATOM     27  C   UNL     1      31.148  17.813 118.778 -0.30 -0.00    +0.000 A 
DOCKED: ATOM     28  C   UNL     1      32.509  17.892 118.628 -0.19 -0.00    +0.000 A 
DOCKED: ATOM     29  C   UNL     1      33.140  17.508 117.444 -0.15 -0.00    +0.000 A 
DOCKED: ATOM     30  C   UNL     1      32.334  17.029 116.396 -0.13 -0.00    +0.000 A 
DOCKED: ATOM     31  C   UNL     1      30.933  16.947 116.550 -0.17 -0.00    +0.000 A 
DOCKED: ATOM     32  C   UNL     1      30.324  17.345 117.754 -0.26 -0.00    +0.000 A 
DOCKED: ATOM     33  H   UNL     1      29.850  18.315 120.337 -0.44 -0.00    +0.000 HD
DOCKED: ATOM     34  CM  UNL     1      31.832  18.211 119.575 +0.00 -0.00    +0.000 AC
DOCKED: ATOM     35  CM  UNL     1      31.731  17.422 117.592 +0.00 -0.00    +0.000 AC
DOCKED: ENDBRANCH  22  23
DOCKED: ENDBRANCH  21  22
DOCKED: ENDBRANCH   1  21
DOCKED: TORSDOF 10DOCKED: TER
DOCKED: ENDMDL
________________________________________________________________________________


	BEGINNING GENETIC ALGORITHM DOCKING 82 of 100
Run: 82 Seed: 989396172 176369042 [ Run 82 of 100 GA/GALS ]
Beginning LAMARCKIAN GENETIC ALGORITHM (LGA), with a maximum of 2500000 energy evaluations.

Final-Value: -16.106


	FINAL GENETIC ALGORITHM DOCKED STATE
	_______________________________________________


Detailed state:  trans 39.124 16.853 120.644 quatxyzw -0.944957 0.022709 0.055134 -0.321716 center 0.288 0.007 -0.056 ntor 10 91.0788 -18.2990 23.8166 -153.4376 96.8771 -152.5463 176.0320 169.4156 -72.1763 178.4692
State:	 39.124  16.853 120.644  -0.998  0.024  0.058 -142.467     91.08  -18.30   23.82 -153.44   96.88 -152.55  176.03  169.42  -72.18  178.47

DOCKED: MODEL       82
DOCKED: USER    Run = 82
DOCKED: USER    DPF = ligand_dock.biased.dpf
DOCKED: USER  
DOCKED: USER    Estimated Free Energy of Binding    =  -10.01 kcal/mol  [=(1)+(2)+(3)-(4)]
DOCKED: USER    Estimated Inhibition Constant, Ki   =   46.29 nM (nanomolar)  [Temperature = 298.15 K]
DOCKED: USER    
DOCKED: USER    (1) Final Intermolecular Energy     =  -12.99 kcal/mol
DOCKED: USER        vdW + Hbond + desolv Energy     =  -12.99 kcal/mol
DOCKED: USER        Electrostatic Energy            =   +0.00 kcal/mol
DOCKED: USER    (2) Final Total Internal Energy     =   -3.12 kcal/mol
DOCKED: USER    (3) Torsional Free Energy           =   +2.98 kcal/mol
DOCKED: USER    (4) Unbound System's Energy  [=(2)] =   -3.12 kcal/mol
DOCKED: USER    
DOCKED: USER    
DOCKED: USER    NEWDPF move ligand.dum.pdbqt
DOCKED: USER    NEWDPF about 0.288000 0.007000 -0.056000
DOCKED: USER    NEWDPF tran0 39.123753 16.853428 120.643706
DOCKED: USER    NEWDPF quaternion0 -0.944957 0.022709 0.055134 -0.321716
DOCKED: USER    NEWDPF axisangle0 -0.998015 0.023984 0.058230 -142.466538
DOCKED: USER    NEWDPF quat0 -0.998015 0.023984 0.058230 -142.466538
DOCKED: USER    NEWDPF dihe0 91.08 -18.30 23.82 -153.44 96.88 -152.55 176.03 169.42 -72.18 178.47 
DOCKED: USER  keepresnum = 1 
DOCKED: USER  
DOCKED: REMARK  Name = 
DOCKED: REMARK  10 active torsions:
DOCKED: REMARK  status: ('A' for Active; 'I' for Inactive)
DOCKED: REMARK    1  A    between atoms: C_2  and  C_5
DOCKED: REMARK    2  A    between atoms: C_6  and  C_7
DOCKED: REMARK    3  A    between atoms: C_10  and  C_11
DOCKED: REMARK    4  A    between atoms: C_11  and  N_12
DOCKED: REMARK    5  A    between atoms: N_12  and  C_13
DOCKED: REMARK    6  A    between atoms: N_12  and  C_16
DOCKED: REMARK    7  A    between atoms: C_13  and  C_14
DOCKED: REMARK    8  A    between atoms: C_14  and  O_15
DOCKED: REMARK    9  A    between atoms: C_16  and  C_17
DOCKED: REMARK   10  A    between atoms: C_17  and  C_18
DOCKED: REMARK                            x       y       z     vdW  Elec       q    Type
DOCKED: REMARK                         _______ _______ _______ _____ _____    ______ ____
DOCKED: USER                              x       y       z     vdW  Elec       q    Type
DOCKED: USER                           _______ _______ _______ _____ _____    ______ ____
DOCKED: ROOT
DOCKED: ATOM      1  N   UNL     1      37.857  17.105 120.982 -0.10 -0.00    +0.000 N 
DOCKED: ATOM      2  H   UNL     1      36.942  16.670 121.095 +0.00 -0.00    +0.000 HD
DOCKED: ENDROOT
DOCKED: BRANCH   1   3
DOCKED: ATOM      3  C   UNL     1      38.806  15.972 121.140 -0.21 -0.00    +0.000 C 
DOCKED: BRANCH   3   7
DOCKED: ATOM      4  C   UNL     1      36.920  12.271 122.407 -0.53 -0.00    +0.000 A 
DOCKED: ATOM      5  C   UNL     1      37.556  13.105 123.338 -0.47 -0.00    +0.000 A 
DOCKED: ATOM      6  C   UNL     1      38.160  14.297 122.932 -0.41 -0.00    +0.000 A 
DOCKED: ATOM      7  C   UNL     1      38.167  14.669 121.578 -0.32 -0.00    +0.000 A 
DOCKED: ATOM      8  C   UNL     1      37.519  13.843 120.644 -0.36 -0.00    +0.000 A 
DOCKED: ATOM      9  C   UNL     1      36.913  12.650 121.050 -0.42 -0.00    +0.000 A 
DOCKED: ATOM     10  CM  UNL     1      37.539  13.472 121.992 +0.00 -0.00    +0.000 AC
DOCKED: BRANCH   4  11
DOCKED: ATOM     11  C   UNL     1      36.847   9.798 122.711 -0.66 -0.00    +0.000 C 
DOCKED: ATOM     12  C   UNL     1      36.302  11.010 122.888 -0.69 -0.00    +0.000 C 
DOCKED: BRANCH  10  13
DOCKED: ATOM     13  O   UNL     1      36.879   7.536 123.455 -2.46 -0.00    +0.000 OA
DOCKED: ATOM     14  C   UNL     1      36.196   8.565 123.195 -0.66 -0.00    +0.000 C 
DOCKED: ATOM     15  N   UNL     1      34.778   8.534 123.371 -0.59 -0.00    +0.000 N 
DOCKED: ATOM     16  O   UNL     1      34.166   7.411 123.814 -0.76 -0.00    +0.000 OA
DOCKED: ATOM     17  H   UNL     1      34.242   9.336 123.168 -0.41 -0.00    +0.000 HD
DOCKED: ENDBRANCH  10  13
DOCKED: ENDBRANCH   4  11
DOCKED: ENDBRANCH   3   7
DOCKED: ENDBRANCH   1   3
DOCKED: BRANCH   1  17
DOCKED: ATOM     18  C   UNL     1      37.813  17.700 119.626 -0.07 -0.00    +0.000 C 
DOCKED: BRANCH  17  18
DOCKED: ATOM     19  C   UNL     1      36.697  17.087 118.777 -0.13 -0.00    +0.000 C 
DOCKED: BRANCH  18  19
DOCKED: ATOM     20  O   UNL     1      35.580  16.819 119.579 -0.20 -0.00    +0.000 OA
DOCKED: ATOM     21  H   UNL     1      35.537  17.467 120.299 -0.01 -0.00    +0.000 HD
DOCKED: ENDBRANCH  18  19
DOCKED: ENDBRANCH  17  18
DOCKED: ENDBRANCH   1  17
DOCKED: BRANCH   1  21
DOCKED: ATOM     22  C   UNL     1      37.965  18.121 122.055 -0.11 -0.00    +0.000 C 
DOCKED: BRANCH  21  22
DOCKED: ATOM     23  C   UNL     1      36.686  18.963 122.128 -0.17 -0.00    +0.000 C 
DOCKED: BRANCH  22  23
DOCKED: ATOM     24  C   UNL     1      35.973  18.744 123.431 -0.20 -0.00    +0.000 A 
DOCKED: ATOM     25  C   UNL     1      35.583  19.729 124.331 -0.17 -0.00    +0.000 A 
DOCKED: ATOM     26  N   UNL     1      34.847  19.193 125.330 -0.22 -0.00    +0.000 N 
DOCKED: ATOM     27  C   UNL     1      34.755  17.879 125.060 -0.32 -0.00    +0.000 A 
DOCKED: ATOM     28  C   UNL     1      35.427  17.566 123.906 -0.30 -0.00    +0.000 A 
DOCKED: ATOM     29  C   UNL     1      35.448  16.266 123.399 -0.38 -0.00    +0.000 A 
DOCKED: ATOM     30  C   UNL     1      34.755  15.272 124.113 -0.53 -0.00    +0.000 A 
DOCKED: ATOM     31  C   UNL     1      34.064  15.594 125.301 -0.38 -0.00    +0.000 A 
DOCKED: ATOM     32  C   UNL     1      34.057  16.914 125.786 -0.39 -0.00    +0.000 A 
DOCKED: ATOM     33  H   UNL     1      34.457  19.667 126.100 -0.00 -0.00    +0.000 HD
DOCKED: ATOM     34  CM  UNL     1      35.301  18.641 124.441 -0.20 -0.00    +0.000 AC
DOCKED: ATOM     35  CM  UNL     1      34.751  16.582 124.594 -0.16 -0.00    +0.000 AC
DOCKED: ENDBRANCH  22  23
DOCKED: ENDBRANCH  21  22
DOCKED: ENDBRANCH   1  21
DOCKED: TORSDOF 10DOCKED: TER
DOCKED: ENDMDL
________________________________________________________________________________


	BEGINNING GENETIC ALGORITHM DOCKING 83 of 100
Run: 83 Seed: 1840124217 1803354632 [ Run 83 of 100 GA/GALS ]
Beginning LAMARCKIAN GENETIC ALGORITHM (LGA), with a maximum of 2500000 energy evaluations.

Final-Value: -16.970


	FINAL GENETIC ALGORITHM DOCKED STATE
	_______________________________________________


Detailed state:  trans 36.411 18.467 123.565 quatxyzw 0.078049 -0.269771 -0.928346 0.243528 center 0.288 0.007 -0.056 ntor 10 141.9734 -83.6577 96.9364 164.8798 -179.5432 174.2247 -7.8672 179.6903 20.1790 -163.9313
State:	 36.411  18.467 123.565   0.080 -0.278 -0.957 151.810    141.97  -83.66   96.94  164.88 -179.54  174.22   -7.87  179.69   20.18 -163.93

DOCKED: MODEL       83
DOCKED: USER    Run = 83
DOCKED: USER    DPF = ligand_dock.biased.dpf
DOCKED: USER  
DOCKED: USER    Estimated Free Energy of Binding    =  -11.13 kcal/mol  [=(1)+(2)+(3)-(4)]
DOCKED: USER    Estimated Inhibition Constant, Ki   =    6.91 nM (nanomolar)  [Temperature = 298.15 K]
DOCKED: USER    
DOCKED: USER    (1) Final Intermolecular Energy     =  -14.12 kcal/mol
DOCKED: USER        vdW + Hbond + desolv Energy     =  -14.12 kcal/mol
DOCKED: USER        Electrostatic Energy            =   +0.00 kcal/mol
DOCKED: USER    (2) Final Total Internal Energy     =   -2.85 kcal/mol
DOCKED: USER    (3) Torsional Free Energy           =   +2.98 kcal/mol
DOCKED: USER    (4) Unbound System's Energy  [=(2)] =   -2.85 kcal/mol
DOCKED: USER    
DOCKED: USER    
DOCKED: USER    NEWDPF move ligand.dum.pdbqt
DOCKED: USER    NEWDPF about 0.288000 0.007000 -0.056000
DOCKED: USER    NEWDPF tran0 36.411167 18.466958 123.564900
DOCKED: USER    NEWDPF quaternion0 0.078049 -0.269771 -0.928346 0.243528
DOCKED: USER    NEWDPF axisangle0 0.080472 -0.278145 -0.957162 151.810281
DOCKED: USER    NEWDPF quat0 0.080472 -0.278145 -0.957162 151.810281
DOCKED: USER    NEWDPF dihe0 141.97 -83.66 96.94 164.88 -179.54 174.22 -7.87 179.69 20.18 -163.93 
DOCKED: USER  keepresnum = 1 
DOCKED: USER  
DOCKED: REMARK  Name = 
DOCKED: REMARK  10 active torsions:
DOCKED: REMARK  status: ('A' for Active; 'I' for Inactive)
DOCKED: REMARK    1  A    between atoms: C_2  and  C_5
DOCKED: REMARK    2  A    between atoms: C_6  and  C_7
DOCKED: REMARK    3  A    between atoms: C_10  and  C_11
DOCKED: REMARK    4  A    between atoms: C_11  and  N_12
DOCKED: REMARK    5  A    between atoms: N_12  and  C_13
DOCKED: REMARK    6  A    between atoms: N_12  and  C_16
DOCKED: REMARK    7  A    between atoms: C_13  and  C_14
DOCKED: REMARK    8  A    between atoms: C_14  and  O_15
DOCKED: REMARK    9  A    between atoms: C_16  and  C_17
DOCKED: REMARK   10  A    between atoms: C_17  and  C_18
DOCKED: REMARK                            x       y       z     vdW  Elec       q    Type
DOCKED: REMARK                         _______ _______ _______ _____ _____    ______ ____
DOCKED: USER                              x       y       z     vdW  Elec       q    Type
DOCKED: USER                           _______ _______ _______ _____ _____    ______ ____
DOCKED: ROOT
DOCKED: ATOM      1  N   UNL     1      37.692  18.159 123.784 -0.17 -0.00    +0.000 N 
DOCKED: ATOM      2  H   UNL     1      38.322  17.379 123.969 -0.01 -0.00    +0.000 HD
DOCKED: ENDROOT
DOCKED: BRANCH   1   3
DOCKED: ATOM      3  C   UNL     1      36.535  17.521 123.104 -0.24 -0.00    +0.000 C 
DOCKED: BRANCH   3   7
DOCKED: ATOM      4  C   UNL     1      36.618  13.180 123.212 -0.54 -0.00    +0.000 A 
DOCKED: ATOM      5  C   UNL     1      37.257  13.882 122.178 -0.41 -0.00    +0.000 A 
DOCKED: ATOM      6  C   UNL     1      37.232  15.279 122.145 -0.29 -0.00    +0.000 A 
DOCKED: ATOM      7  C   UNL     1      36.544  16.004 123.130 -0.32 -0.00    +0.000 A 
DOCKED: ATOM      8  C   UNL     1      35.915  15.305 124.173 -0.39 -0.00    +0.000 A 
DOCKED: ATOM      9  C   UNL     1      35.939  13.907 124.208 -0.39 -0.00    +0.000 A 
DOCKED: ATOM     10  CM  UNL     1      36.585  14.592 123.174 +0.00 -0.00    +0.000 AC
DOCKED: BRANCH   4  11
DOCKED: ATOM     11  C   UNL     1      36.920  10.970 122.098 -0.58 -0.00    +0.000 C 
DOCKED: ATOM     12  C   UNL     1      36.664  11.696 123.196 -0.69 -0.00    +0.000 C 
DOCKED: BRANCH  10  13
DOCKED: ATOM     13  O   UNL     1      36.882   8.832 121.049 -2.65 -0.00    +0.000 OA
DOCKED: ATOM     14  C   UNL     1      36.946   9.494 122.121 -0.64 -0.00    +0.000 C 
DOCKED: ATOM     15  N   UNL     1      37.043   8.806 123.370 -0.64 -0.00    +0.000 N 
DOCKED: ATOM     16  O   UNL     1      37.068   7.453 123.408 -2.49 -0.00    +0.000 OA
DOCKED: ATOM     17  H   UNL     1      37.093   9.320 124.209 -0.59 -0.00    +0.000 HD
DOCKED: ENDBRANCH  10  13
DOCKED: ENDBRANCH   4  11
DOCKED: ENDBRANCH   3   7
DOCKED: ENDBRANCH   1   3
DOCKED: BRANCH   1  17
DOCKED: ATOM     18  C   UNL     1      37.400  18.718 125.124 -0.18 -0.00    +0.000 C 
DOCKED: BRANCH  17  18
DOCKED: ATOM     19  C   UNL     1      38.683  19.073 125.879 -0.18 -0.00    +0.000 C 
DOCKED: BRANCH  18  19
DOCKED: ATOM     20  O   UNL     1      39.727  18.237 125.464 -0.30 -0.00    +0.000 OA
DOCKED: ATOM     21  H   UNL     1      40.103  18.576 124.637 -0.00 -0.00    +0.000 HD
DOCKED: ENDBRANCH  18  19
DOCKED: ENDBRANCH  17  18
DOCKED: ENDBRANCH   1  17
DOCKED: BRANCH   1  21
DOCKED: ATOM     22  C   UNL     1      38.442  19.098 122.917 -0.09 -0.00    +0.000 C 
DOCKED: BRANCH  21  22
DOCKED: ATOM     23  C   UNL     1      39.153  18.338 121.792 -0.08 -0.00    +0.000 C 
DOCKED: BRANCH  22  23
DOCKED: ATOM     24  C   UNL     1      40.272  17.497 122.335 -0.15 -0.00    +0.000 A 
DOCKED: ATOM     25  C   UNL     1      40.188  16.162 122.715 -0.30 -0.00    +0.000 A 
DOCKED: ATOM     26  N   UNL     1      41.412  15.682 123.030 -0.46 -0.00    +0.000 N 
DOCKED: ATOM     27  C   UNL     1      42.270  16.698 122.837 -0.37 -0.00    +0.000 A 
DOCKED: ATOM     28  C   UNL     1      41.613  17.823 122.409 -0.17 -0.00    +0.000 A 
DOCKED: ATOM     29  C   UNL     1      42.296  19.003 122.107 -0.09 -0.00    +0.000 A 
DOCKED: ATOM     30  C   UNL     1      43.695  19.007 122.258 -0.13 -0.00    +0.000 A 
DOCKED: ATOM     31  C   UNL     1      44.371  17.849 122.699 -0.25 -0.00    +0.000 A 
DOCKED: ATOM     32  C   UNL     1      43.656  16.674 122.992 -0.27 -0.00    +0.000 A 
DOCKED: ATOM     33  H   UNL     1      41.631  14.773 123.337 -0.07 +0.00    +0.000 HD
DOCKED: ATOM     34  CM  UNL     1      41.159  16.737 122.676 +0.00 -0.00    +0.000 AC
DOCKED: ATOM     35  CM  UNL     1      42.983  17.842 122.551 +0.00 -0.00    +0.000 AC
DOCKED: ENDBRANCH  22  23
DOCKED: ENDBRANCH  21  22
DOCKED: ENDBRANCH   1  21
DOCKED: TORSDOF 10DOCKED: TER
DOCKED: ENDMDL
________________________________________________________________________________


	BEGINNING GENETIC ALGORITHM DOCKING 84 of 100
Run: 84 Seed: 1392313151 1596658466 [ Run 84 of 100 GA/GALS ]
Beginning LAMARCKIAN GENETIC ALGORITHM (LGA), with a maximum of 2500000 energy evaluations.

Final-Value: -17.507


	FINAL GENETIC ALGORITHM DOCKED STATE
	_______________________________________________


Detailed state:  trans 35.300 18.618 123.526 quatxyzw 0.460847 -0.135402 -0.813662 0.327474 center 0.288 0.007 -0.056 ntor 10 -109.6592 -8.4152 -7.9308 180.0000 138.2224 -110.9356 -179.9319 164.7691 -51.9584 -171.3472
State:	 35.300  18.618 123.526   0.488 -0.143 -0.861 141.769   -109.66   -8.42   -7.93  180.00  138.22 -110.94 -179.93  164.77  -51.96 -171.35

DOCKED: MODEL       84
DOCKED: USER    Run = 84
DOCKED: USER    DPF = ligand_dock.biased.dpf
DOCKED: USER  
DOCKED: USER    Estimated Free Energy of Binding    =  -12.22 kcal/mol  [=(1)+(2)+(3)-(4)]
DOCKED: USER    Estimated Inhibition Constant, Ki   =    1.10 nM (nanomolar)  [Temperature = 298.15 K]
DOCKED: USER    
DOCKED: USER    (1) Final Intermolecular Energy     =  -15.21 kcal/mol
DOCKED: USER        vdW + Hbond + desolv Energy     =  -15.21 kcal/mol
DOCKED: USER        Electrostatic Energy            =   +0.00 kcal/mol
DOCKED: USER    (2) Final Total Internal Energy     =   -2.30 kcal/mol
DOCKED: USER    (3) Torsional Free Energy           =   +2.98 kcal/mol
DOCKED: USER    (4) Unbound System's Energy  [=(2)] =   -2.30 kcal/mol
DOCKED: USER    
DOCKED: USER    
DOCKED: USER    NEWDPF move ligand.dum.pdbqt
DOCKED: USER    NEWDPF about 0.288000 0.007000 -0.056000
DOCKED: USER    NEWDPF tran0 35.300338 18.618018 123.525664
DOCKED: USER    NEWDPF quaternion0 0.460847 -0.135402 -0.813662 0.327474
DOCKED: USER    NEWDPF axisangle0 0.487742 -0.143304 -0.861146 141.768900
DOCKED: USER    NEWDPF quat0 0.487742 -0.143304 -0.861146 141.768900
DOCKED: USER    NEWDPF dihe0 -109.66 -8.42 -7.93 180.00 138.22 -110.94 -179.93 164.77 -51.96 -171.35 
DOCKED: USER  keepresnum = 1 
DOCKED: USER  
DOCKED: REMARK  Name = 
DOCKED: REMARK  10 active torsions:
DOCKED: REMARK  status: ('A' for Active; 'I' for Inactive)
DOCKED: REMARK    1  A    between atoms: C_2  and  C_5
DOCKED: REMARK    2  A    between atoms: C_6  and  C_7
DOCKED: REMARK    3  A    between atoms: C_10  and  C_11
DOCKED: REMARK    4  A    between atoms: C_11  and  N_12
DOCKED: REMARK    5  A    between atoms: N_12  and  C_13
DOCKED: REMARK    6  A    between atoms: N_12  and  C_16
DOCKED: REMARK    7  A    between atoms: C_13  and  C_14
DOCKED: REMARK    8  A    between atoms: C_14  and  O_15
DOCKED: REMARK    9  A    between atoms: C_16  and  C_17
DOCKED: REMARK   10  A    between atoms: C_17  and  C_18
DOCKED: REMARK                            x       y       z     vdW  Elec       q    Type
DOCKED: REMARK                         _______ _______ _______ _____ _____    ______ ____
DOCKED: USER                              x       y       z     vdW  Elec       q    Type
DOCKED: USER                           _______ _______ _______ _____ _____    ______ ____
DOCKED: ROOT
DOCKED: ATOM      1  N   UNL     1      35.969  18.316 124.641 -0.22 -0.00    +0.000 N 
DOCKED: ATOM      2  H   UNL     1      36.252  17.538 125.237 -0.02 -0.00    +0.000 HD
DOCKED: ENDROOT
DOCKED: BRANCH   1   3
DOCKED: ATOM      3  C   UNL     1      35.751  17.682 123.315 -0.30 -0.00    +0.000 C 
DOCKED: BRANCH   3   7
DOCKED: ATOM      4  C   UNL     1      36.330  13.378 123.315 -0.53 -0.00    +0.000 A 
DOCKED: ATOM      5  C   UNL     1      37.313  14.231 122.793 -0.43 -0.00    +0.000 A 
DOCKED: ATOM      6  C   UNL     1      37.128  15.617 122.795 -0.31 -0.00    +0.000 A 
DOCKED: ATOM      7  C   UNL     1      35.942  16.178 123.295 -0.34 -0.00    +0.000 A 
DOCKED: ATOM      8  C   UNL     1      34.962  15.326 123.831 -0.51 -0.00    +0.000 A 
DOCKED: ATOM      9  C   UNL     1      35.145  13.940 123.830 -0.22 -0.00    +0.000 A 
DOCKED: ATOM     10  CM  UNL     1      36.137  14.778 123.310 +0.00 -0.00    +0.000 AC
DOCKED: BRANCH   4  11
DOCKED: ATOM     11  C   UNL     1      36.716  11.209 122.148 -0.63 -0.00    +0.000 C 
DOCKED: ATOM     12  C   UNL     1      36.570  11.913 123.279 -0.69 -0.00    +0.000 C 
DOCKED: BRANCH  10  13
DOCKED: ATOM     13  O   UNL     1      37.052   9.112 121.071 -2.72 -0.00    +0.000 OA
DOCKED: ATOM     14  C   UNL     1      36.942   9.750 122.154 -0.62 -0.00    +0.000 C 
DOCKED: ATOM     15  N   UNL     1      37.037   9.053 123.397 -0.59 -0.00    +0.000 N 
DOCKED: ATOM     16  O   UNL     1      37.245   7.715 123.420 -2.63 -0.00    +0.000 OA
DOCKED: ATOM     17  H   UNL     1      36.951   9.548 124.244 -0.53 -0.00    +0.000 HD
DOCKED: ENDBRANCH  10  13
DOCKED: ENDBRANCH   4  11
DOCKED: ENDBRANCH   3   7
DOCKED: ENDBRANCH   1   3
DOCKED: BRANCH   1  17
DOCKED: ATOM     18  C   UNL     1      34.748  18.847 125.290 -0.28 -0.00    +0.000 C 
DOCKED: BRANCH  17  18
DOCKED: ATOM     19  C   UNL     1      33.739  17.735 125.589 -0.39 -0.00    +0.000 C 
DOCKED: BRANCH  18  19
DOCKED: ATOM     20  O   UNL     1      34.393  16.647 126.183 -0.43 -0.00    +0.000 OA
DOCKED: ATOM     21  H   UNL     1      33.788  15.890 126.224 -0.05 -0.00    +0.000 HD
DOCKED: ENDBRANCH  18  19
DOCKED: ENDBRANCH  17  18
DOCKED: ENDBRANCH   1  17
DOCKED: BRANCH   1  21
DOCKED: ATOM     22  C   UNL     1      37.096  19.278 124.658 -0.16 -0.00    +0.000 C 
DOCKED: BRANCH  21  22
DOCKED: ATOM     23  C   UNL     1      37.899  19.142 125.956 -0.16 -0.00    +0.000 C 
DOCKED: BRANCH  22  23
DOCKED: ATOM     24  C   UNL     1      39.320  18.751 125.669 -0.20 -0.00    +0.000 A 
DOCKED: ATOM     25  C   UNL     1      40.378  18.774 126.572 -0.27 -0.00    +0.000 A 
DOCKED: ATOM     26  N   UNL     1      41.485  18.231 126.017 -0.30 -0.00    +0.000 N 
DOCKED: ATOM     27  C   UNL     1      41.131  17.851 124.777 -0.31 -0.00    +0.000 A 
DOCKED: ATOM     28  C   UNL     1      39.815  18.148 124.528 -0.23 -0.00    +0.000 A 
DOCKED: ATOM     29  C   UNL     1      39.205  17.818 123.317 -0.17 -0.00    +0.000 A 
DOCKED: ATOM     30  C   UNL     1      39.986  17.167 122.345 -0.17 -0.00    +0.000 A 
DOCKED: ATOM     31  C   UNL     1      41.340  16.861 122.601 -0.28 -0.00    +0.000 A 
DOCKED: ATOM     32  C   UNL     1      41.927  17.203 123.833 -0.27 -0.00    +0.000 A 
DOCKED: ATOM     33  H   UNL     1      42.371  18.133 126.435 -0.26 -0.00    +0.000 HD
DOCKED: ATOM     34  CM  UNL     1      40.460  18.347 125.529 +0.00 -0.00    +0.000 AC
DOCKED: ATOM     35  CM  UNL     1      40.567  17.509 123.567 +0.00 -0.00    +0.000 AC
DOCKED: ENDBRANCH  22  23
DOCKED: ENDBRANCH  21  22
DOCKED: ENDBRANCH   1  21
DOCKED: TORSDOF 10DOCKED: TER
DOCKED: ENDMDL
________________________________________________________________________________


	BEGINNING GENETIC ALGORITHM DOCKING 85 of 100
Run: 85 Seed: 1462018342 435309239 [ Run 85 of 100 GA/GALS ]
Beginning LAMARCKIAN GENETIC ALGORITHM (LGA), with a maximum of 2500000 energy evaluations.

Final-Value: -15.862


	FINAL GENETIC ALGORITHM DOCKED STATE
	_______________________________________________


Detailed state:  trans 39.095 16.958 120.465 quatxyzw -0.871922 0.086354 0.101016 -0.471266 center 0.288 0.007 -0.056 ntor 10 -13.1613 -31.6373 46.2180 169.7086 128.6003 -126.3019 170.9705 -164.9006 -92.3896 164.0953
State:	 39.095  16.958 120.465  -0.989  0.098  0.115 -123.767    -13.16  -31.64   46.22  169.71  128.60 -126.30  170.97 -164.90  -92.39  164.10

DOCKED: MODEL       85
DOCKED: USER    Run = 85
DOCKED: USER    DPF = ligand_dock.biased.dpf
DOCKED: USER  
DOCKED: USER    Estimated Free Energy of Binding    =   -9.91 kcal/mol  [=(1)+(2)+(3)-(4)]
DOCKED: USER    Estimated Inhibition Constant, Ki   =   54.25 nM (nanomolar)  [Temperature = 298.15 K]
DOCKED: USER    
DOCKED: USER    (1) Final Intermolecular Energy     =  -12.90 kcal/mol
DOCKED: USER        vdW + Hbond + desolv Energy     =  -12.90 kcal/mol
DOCKED: USER        Electrostatic Energy            =   +0.00 kcal/mol
DOCKED: USER    (2) Final Total Internal Energy     =   -2.97 kcal/mol
DOCKED: USER    (3) Torsional Free Energy           =   +2.98 kcal/mol
DOCKED: USER    (4) Unbound System's Energy  [=(2)] =   -2.97 kcal/mol
DOCKED: USER    
DOCKED: USER    
DOCKED: USER    NEWDPF move ligand.dum.pdbqt
DOCKED: USER    NEWDPF about 0.288000 0.007000 -0.056000
DOCKED: USER    NEWDPF tran0 39.094513 16.957761 120.464881
DOCKED: USER    NEWDPF quaternion0 -0.871922 0.086354 0.101016 -0.471266
DOCKED: USER    NEWDPF axisangle0 -0.988583 0.097908 0.114532 -123.766993
DOCKED: USER    NEWDPF quat0 -0.988583 0.097908 0.114532 -123.766993
DOCKED: USER    NEWDPF dihe0 -13.16 -31.64 46.22 169.71 128.60 -126.30 170.97 -164.90 -92.39 164.10 
DOCKED: USER  keepresnum = 1 
DOCKED: USER  
DOCKED: REMARK  Name = 
DOCKED: REMARK  10 active torsions:
DOCKED: REMARK  status: ('A' for Active; 'I' for Inactive)
DOCKED: REMARK    1  A    between atoms: C_2  and  C_5
DOCKED: REMARK    2  A    between atoms: C_6  and  C_7
DOCKED: REMARK    3  A    between atoms: C_10  and  C_11
DOCKED: REMARK    4  A    between atoms: C_11  and  N_12
DOCKED: REMARK    5  A    between atoms: N_12  and  C_13
DOCKED: REMARK    6  A    between atoms: N_12  and  C_16
DOCKED: REMARK    7  A    between atoms: C_13  and  C_14
DOCKED: REMARK    8  A    between atoms: C_14  and  O_15
DOCKED: REMARK    9  A    between atoms: C_16  and  C_17
DOCKED: REMARK   10  A    between atoms: C_17  and  C_18
DOCKED: REMARK                            x       y       z     vdW  Elec       q    Type
DOCKED: REMARK                         _______ _______ _______ _____ _____    ______ ____
DOCKED: USER                              x       y       z     vdW  Elec       q    Type
DOCKED: USER                           _______ _______ _______ _____ _____    ______ ____
DOCKED: ROOT
DOCKED: ATOM      1  N   UNL     1      37.915  17.196 121.044 -0.10 -0.00    +0.000 N 
DOCKED: ATOM      2  H   UNL     1      36.969  16.829 121.147 +0.00 -0.00    +0.000 HD
DOCKED: ENDROOT
DOCKED: BRANCH   1   3
DOCKED: ATOM      3  C   UNL     1      38.721  15.995 120.702 -0.19 -0.00    +0.000 C 
DOCKED: BRANCH   3   7
DOCKED: ATOM      4  C   UNL     1      36.881  12.249 121.904 -0.50 -0.00    +0.000 A 
DOCKED: ATOM      5  C   UNL     1      37.437  13.112 122.861 -0.50 -0.00    +0.000 A 
DOCKED: ATOM      6  C   UNL     1      38.026  14.318 122.474 -0.41 -0.00    +0.000 A 
DOCKED: ATOM      7  C   UNL     1      38.099  14.676 121.119 -0.30 -0.00    +0.000 A 
DOCKED: ATOM      8  C   UNL     1      37.532  13.820 120.160 -0.35 -0.00    +0.000 A 
DOCKED: ATOM      9  C   UNL     1      36.940  12.613 120.545 -0.42 -0.00    +0.000 A 
DOCKED: ATOM     10  CM  UNL     1      37.486  13.465 121.511 +0.00 -0.00    +0.000 AC
DOCKED: BRANCH   4  11
DOCKED: ATOM     11  C   UNL     1      36.988   9.929 122.811 -0.60 -0.00    +0.000 C 
DOCKED: ATOM     12  C   UNL     1      36.276  10.974 122.365 -0.67 -0.00    +0.000 C 
DOCKED: BRANCH  10  13
DOCKED: ATOM     13  O   UNL     1      37.040   7.638 123.459 -2.63 -0.00    +0.000 OA
DOCKED: ATOM     14  C   UNL     1      36.349   8.673 123.251 -0.60 -0.00    +0.000 C 
DOCKED: ATOM     15  N   UNL     1      34.934   8.627 123.442 -0.57 -0.00    +0.000 N 
DOCKED: ATOM     16  O   UNL     1      34.332   7.483 123.845 -0.76 -0.00    +0.000 OA
DOCKED: ATOM     17  H   UNL     1      34.391   9.433 123.280 -0.43 -0.00    +0.000 HD
DOCKED: ENDBRANCH  10  13
DOCKED: ENDBRANCH   4  11
DOCKED: ENDBRANCH   3   7
DOCKED: ENDBRANCH   1   3
DOCKED: BRANCH   1  17
DOCKED: ATOM     18  C   UNL     1      37.802  18.202 119.964 -0.06 -0.00    +0.000 C 
DOCKED: BRANCH  17  18
DOCKED: ATOM     19  C   UNL     1      36.352  18.373 119.502 -0.12 -0.00    +0.000 C 
DOCKED: BRANCH  18  19
DOCKED: ATOM     20  O   UNL     1      35.478  17.968 120.519 -0.23 -0.00    +0.000 OA
DOCKED: ATOM     21  H   UNL     1      35.486  17.001 120.586 -0.01 -0.00    +0.000 HD
DOCKED: ENDBRANCH  18  19
DOCKED: ENDBRANCH  17  18
DOCKED: ENDBRANCH   1  17
DOCKED: BRANCH   1  21
DOCKED: ATOM     22  C   UNL     1      38.270  17.792 122.354 -0.13 -0.00    +0.000 C 
DOCKED: BRANCH  21  22
DOCKED: ATOM     23  C   UNL     1      37.402  19.024 122.635 -0.12 -0.00    +0.000 C 
DOCKED: BRANCH  22  23
DOCKED: ATOM     24  C   UNL     1      36.426  18.750 123.742 -0.18 -0.00    +0.000 A 
DOCKED: ATOM     25  C   UNL     1      35.886  19.690 124.614 -0.17 -0.00    +0.000 A 
DOCKED: ATOM     26  N   UNL     1      34.941  19.121 125.397 -0.22 -0.00    +0.000 N 
DOCKED: ATOM     27  C   UNL     1      34.868  17.834 125.015 -0.32 -0.00    +0.000 A 
DOCKED: ATOM     28  C   UNL     1      35.757  17.569 124.004 -0.27 -0.00    +0.000 A 
DOCKED: ATOM     29  C   UNL     1      35.844  16.306 123.416 -0.35 -0.00    +0.000 A 
DOCKED: ATOM     30  C   UNL     1      34.987  15.299 123.895 -0.51 -0.00    +0.000 A 
DOCKED: ATOM     31  C   UNL     1      34.072  15.571 124.936 -0.45 -0.00    +0.000 A 
DOCKED: ATOM     32  C   UNL     1      34.005  16.855 125.507 -0.38 -0.00    +0.000 A 
DOCKED: ATOM     33  H   UNL     1      34.413  19.560 126.102 -0.00 -0.00    +0.000 HD
DOCKED: ATOM     34  CM  UNL     1      35.555  18.610 124.581 -0.19 -0.00    +0.000 AC
DOCKED: ATOM     35  CM  UNL     1      34.923  16.573 124.462 -0.15 -0.00    +0.000 AC
DOCKED: ENDBRANCH  22  23
DOCKED: ENDBRANCH  21  22
DOCKED: ENDBRANCH   1  21
DOCKED: TORSDOF 10DOCKED: TER
DOCKED: ENDMDL
________________________________________________________________________________


	BEGINNING GENETIC ALGORITHM DOCKING 86 of 100
Run: 86 Seed: 1737344463 205667740 [ Run 86 of 100 GA/GALS ]
Beginning LAMARCKIAN GENETIC ALGORITHM (LGA), with a maximum of 2500000 energy evaluations.

Final-Value: -16.584


	FINAL GENETIC ALGORITHM DOCKED STATE
	_______________________________________________


Detailed state:  trans 38.730 17.016 121.756 quatxyzw -0.965005 -0.061945 -0.087382 -0.239360 center 0.288 0.007 -0.056 ntor 10 130.6554 -70.7878 37.7715 132.8548 128.7278 1.8482 137.4919 172.8163 -44.1972 -162.3219
State:	 38.730  17.016 121.756  -0.994 -0.064 -0.090 -152.302    130.66  -70.79   37.77  132.85  128.73    1.85  137.49  172.82  -44.20 -162.32

DOCKED: MODEL       86
DOCKED: USER    Run = 86
DOCKED: USER    DPF = ligand_dock.biased.dpf
DOCKED: USER  
DOCKED: USER    Estimated Free Energy of Binding    =  -10.51 kcal/mol  [=(1)+(2)+(3)-(4)]
DOCKED: USER    Estimated Inhibition Constant, Ki   =   19.64 nM (nanomolar)  [Temperature = 298.15 K]
DOCKED: USER    
DOCKED: USER    (1) Final Intermolecular Energy     =  -13.50 kcal/mol
DOCKED: USER        vdW + Hbond + desolv Energy     =  -13.50 kcal/mol
DOCKED: USER        Electrostatic Energy            =   +0.00 kcal/mol
DOCKED: USER    (2) Final Total Internal Energy     =   -3.09 kcal/mol
DOCKED: USER    (3) Torsional Free Energy           =   +2.98 kcal/mol
DOCKED: USER    (4) Unbound System's Energy  [=(2)] =   -3.09 kcal/mol
DOCKED: USER    
DOCKED: USER    
DOCKED: USER    NEWDPF move ligand.dum.pdbqt
DOCKED: USER    NEWDPF about 0.288000 0.007000 -0.056000
DOCKED: USER    NEWDPF tran0 38.729551 17.015578 121.756494
DOCKED: USER    NEWDPF quaternion0 -0.965005 -0.061945 -0.087382 -0.239360
DOCKED: USER    NEWDPF axisangle0 -0.993896 -0.063800 -0.089999 -152.302454
DOCKED: USER    NEWDPF quat0 -0.993896 -0.063800 -0.089999 -152.302454
DOCKED: USER    NEWDPF dihe0 130.66 -70.79 37.77 132.85 128.73 1.85 137.49 172.82 -44.20 -162.32 
DOCKED: USER  keepresnum = 1 
DOCKED: USER  
DOCKED: REMARK  Name = 
DOCKED: REMARK  10 active torsions:
DOCKED: REMARK  status: ('A' for Active; 'I' for Inactive)
DOCKED: REMARK    1  A    between atoms: C_2  and  C_5
DOCKED: REMARK    2  A    between atoms: C_6  and  C_7
DOCKED: REMARK    3  A    between atoms: C_10  and  C_11
DOCKED: REMARK    4  A    between atoms: C_11  and  N_12
DOCKED: REMARK    5  A    between atoms: N_12  and  C_13
DOCKED: REMARK    6  A    between atoms: N_12  and  C_16
DOCKED: REMARK    7  A    between atoms: C_13  and  C_14
DOCKED: REMARK    8  A    between atoms: C_14  and  O_15
DOCKED: REMARK    9  A    between atoms: C_16  and  C_17
DOCKED: REMARK   10  A    between atoms: C_17  and  C_18
DOCKED: REMARK                            x       y       z     vdW  Elec       q    Type
DOCKED: REMARK                         _______ _______ _______ _____ _____    ______ ____
DOCKED: USER                              x       y       z     vdW  Elec       q    Type
DOCKED: USER                           _______ _______ _______ _____ _____    ______ ____
DOCKED: ROOT
DOCKED: ATOM      1  N   UNL     1      37.410  17.183 121.635 -0.13 -0.00    +0.000 N 
DOCKED: ATOM      2  H   UNL     1      36.531  16.677 121.534 -0.00 -0.00    +0.000 HD
DOCKED: ENDROOT
DOCKED: BRANCH   1   3
DOCKED: ATOM      3  C   UNL     1      38.313  16.191 122.276 -0.25 -0.00    +0.000 C 
DOCKED: BRANCH   3   7
DOCKED: ATOM      4  C   UNL     1      36.722  12.150 122.324 -0.54 -0.00    +0.000 A 
DOCKED: ATOM      5  C   UNL     1      36.551  12.999 123.428 -0.56 -0.00    +0.000 A 
DOCKED: ATOM      6  C   UNL     1      37.060  14.300 123.411 -0.43 -0.00    +0.000 A 
DOCKED: ATOM      7  C   UNL     1      37.778  14.773 122.301 -0.36 -0.00    +0.000 A 
DOCKED: ATOM      8  C   UNL     1      37.940  13.929 121.189 -0.36 -0.00    +0.000 A 
DOCKED: ATOM      9  C   UNL     1      37.430  12.627 121.203 -0.47 -0.00    +0.000 A 
DOCKED: ATOM     10  CM  UNL     1      37.246  13.463 122.310 +0.00 -0.00    +0.000 AC
DOCKED: BRANCH   4  11
DOCKED: ATOM     11  C   UNL     1      36.694   9.800 123.156 -0.60 -0.00    +0.000 C 
DOCKED: ATOM     12  C   UNL     1      36.172  10.773 122.395 -0.67 -0.00    +0.000 C 
DOCKED: BRANCH  10  13
DOCKED: ATOM     13  O   UNL     1      36.865   7.427 123.066 -2.26 -0.00    +0.000 OA
DOCKED: ATOM     14  C   UNL     1      36.123   8.439 123.191 -0.68 -0.00    +0.000 C 
DOCKED: ATOM     15  N   UNL     1      34.715   8.266 123.368 -0.62 -0.00    +0.000 N 
DOCKED: ATOM     16  O   UNL     1      34.176   7.024 123.402 -0.77 -0.00    +0.000 OA
DOCKED: ATOM     17  H   UNL     1      34.133   9.054 123.466 -0.46 -0.00    +0.000 HD
DOCKED: ENDBRANCH  10  13
DOCKED: ENDBRANCH   4  11
DOCKED: ENDBRANCH   3   7
DOCKED: ENDBRANCH   1   3
DOCKED: BRANCH   1  17
DOCKED: ATOM     18  C   UNL     1      37.777  17.560 120.251 -0.09 -0.00    +0.000 C 
DOCKED: BRANCH  17  18
DOCKED: ATOM     19  C   UNL     1      36.800  16.973 119.229 -0.14 -0.00    +0.000 C 
DOCKED: BRANCH  18  19
DOCKED: ATOM     20  O   UNL     1      36.044  15.954 119.823 -0.18 -0.00    +0.000 OA
DOCKED: ATOM     21  H   UNL     1      35.424  16.342 120.460 -0.01 -0.00    +0.000 HD
DOCKED: ENDBRANCH  18  19
DOCKED: ENDBRANCH  17  18
DOCKED: ENDBRANCH   1  17
DOCKED: BRANCH   1  21
DOCKED: ATOM     22  C   UNL     1      37.114  18.354 122.494 -0.15 -0.00    +0.000 C 
DOCKED: BRANCH  21  22
DOCKED: ATOM     23  C   UNL     1      35.608  18.636 122.515 -0.25 -0.00    +0.000 C 
DOCKED: BRANCH  22  23
DOCKED: ATOM     24  C   UNL     1      34.891  17.656 123.397 -0.33 -0.00    +0.000 A 
DOCKED: ATOM     25  C   UNL     1      34.536  16.354 123.061 -0.38 -0.00    +0.000 A 
DOCKED: ATOM     26  N   UNL     1      34.026  15.710 124.135 -0.57 -0.00    +0.000 N 
DOCKED: ATOM     27  C   UNL     1      34.071  16.590 125.151 -0.42 -0.00    +0.000 A 
DOCKED: ATOM     28  C   UNL     1      34.597  17.788 124.742 -0.34 -0.00    +0.000 A 
DOCKED: ATOM     29  C   UNL     1      34.777  18.851 125.628 -0.24 -0.00    +0.000 A 
DOCKED: ATOM     30  C   UNL     1      34.399  18.660 126.969 -0.20 -0.00    +0.000 A 
DOCKED: ATOM     31  C   UNL     1      33.857  17.426 127.390 -0.29 -0.00    +0.000 A 
DOCKED: ATOM     32  C   UNL     1      33.690  16.371 126.475 -0.37 -0.00    +0.000 A 
DOCKED: ATOM     33  H   UNL     1      33.689  14.786 124.168 -0.11 -0.00    +0.000 HD
DOCKED: ATOM     34  CM  UNL     1      34.412  16.784 124.099 -0.12 -0.00    +0.000 AC
DOCKED: ATOM     35  CM  UNL     1      34.232  17.614 126.059 -0.17 -0.00    +0.000 AC
DOCKED: ENDBRANCH  22  23
DOCKED: ENDBRANCH  21  22
DOCKED: ENDBRANCH   1  21
DOCKED: TORSDOF 10DOCKED: TER
DOCKED: ENDMDL
________________________________________________________________________________


	BEGINNING GENETIC ALGORITHM DOCKING 87 of 100
Run: 87 Seed: 957387905 456053959 [ Run 87 of 100 GA/GALS ]
Beginning LAMARCKIAN GENETIC ALGORITHM (LGA), with a maximum of 2500000 energy evaluations.

Final-Value: -17.308


	FINAL GENETIC ALGORITHM DOCKED STATE
	_______________________________________________


Detailed state:  trans 36.993 18.440 122.091 quatxyzw 0.957560 0.123174 -0.162065 0.204062 center 0.288 0.007 -0.056 ntor 10 10.7858 -75.4237 71.2858 143.8090 -12.5042 -179.8509 -21.2943 -130.4618 39.3196 -150.4245
State:	 36.993  18.440 122.091   0.978  0.126 -0.166 156.451     10.79  -75.42   71.29  143.81  -12.50 -179.85  -21.29 -130.46   39.32 -150.42

DOCKED: MODEL       87
DOCKED: USER    Run = 87
DOCKED: USER    DPF = ligand_dock.biased.dpf
DOCKED: USER  
DOCKED: USER    Estimated Free Energy of Binding    =  -11.65 kcal/mol  [=(1)+(2)+(3)-(4)]
DOCKED: USER    Estimated Inhibition Constant, Ki   =    2.90 nM (nanomolar)  [Temperature = 298.15 K]
DOCKED: USER    
DOCKED: USER    (1) Final Intermolecular Energy     =  -14.63 kcal/mol
DOCKED: USER        vdW + Hbond + desolv Energy     =  -14.63 kcal/mol
DOCKED: USER        Electrostatic Energy            =   +0.00 kcal/mol
DOCKED: USER    (2) Final Total Internal Energy     =   -2.68 kcal/mol
DOCKED: USER    (3) Torsional Free Energy           =   +2.98 kcal/mol
DOCKED: USER    (4) Unbound System's Energy  [=(2)] =   -2.68 kcal/mol
DOCKED: USER    
DOCKED: USER    
DOCKED: USER    NEWDPF move ligand.dum.pdbqt
DOCKED: USER    NEWDPF about 0.288000 0.007000 -0.056000
DOCKED: USER    NEWDPF tran0 36.992735 18.440318 122.090799
DOCKED: USER    NEWDPF quaternion0 0.957560 0.123174 -0.162065 0.204062
DOCKED: USER    NEWDPF axisangle0 0.978143 0.125821 -0.165548 156.450789
DOCKED: USER    NEWDPF quat0 0.978143 0.125821 -0.165548 156.450789
DOCKED: USER    NEWDPF dihe0 10.79 -75.42 71.29 143.81 -12.50 -179.85 -21.29 -130.46 39.32 -150.42 
DOCKED: USER  keepresnum = 1 
DOCKED: USER  
DOCKED: REMARK  Name = 
DOCKED: REMARK  10 active torsions:
DOCKED: REMARK  status: ('A' for Active; 'I' for Inactive)
DOCKED: REMARK    1  A    between atoms: C_2  and  C_5
DOCKED: REMARK    2  A    between atoms: C_6  and  C_7
DOCKED: REMARK    3  A    between atoms: C_10  and  C_11
DOCKED: REMARK    4  A    between atoms: C_11  and  N_12
DOCKED: REMARK    5  A    between atoms: N_12  and  C_13
DOCKED: REMARK    6  A    between atoms: N_12  and  C_16
DOCKED: REMARK    7  A    between atoms: C_13  and  C_14
DOCKED: REMARK    8  A    between atoms: C_14  and  O_15
DOCKED: REMARK    9  A    between atoms: C_16  and  C_17
DOCKED: REMARK   10  A    between atoms: C_17  and  C_18
DOCKED: REMARK                            x       y       z     vdW  Elec       q    Type
DOCKED: REMARK                         _______ _______ _______ _____ _____    ______ ____
DOCKED: USER                              x       y       z     vdW  Elec       q    Type
DOCKED: USER                           _______ _______ _______ _____ _____    ______ ____
DOCKED: ROOT
DOCKED: ATOM      1  N   UNL     1      35.748  18.318 122.559 -0.22 -0.00    +0.000 N 
DOCKED: ATOM      2  H   UNL     1      35.063  17.637 122.885 -0.01 -0.00    +0.000 HD
DOCKED: ENDROOT
DOCKED: BRANCH   1   3
DOCKED: ATOM      3  C   UNL     1      37.051  17.639 122.783 -0.20 -0.00    +0.000 C 
DOCKED: BRANCH   3   7
DOCKED: ATOM      4  C   UNL     1      36.798  13.305 122.869 -0.50 -0.00    +0.000 A 
DOCKED: ATOM      5  C   UNL     1      35.792  14.092 123.450 -0.46 -0.00    +0.000 A 
DOCKED: ATOM      6  C   UNL     1      35.872  15.486 123.420 -0.41 -0.00    +0.000 A 
DOCKED: ATOM      7  C   UNL     1      36.975  16.126 122.832 -0.27 -0.00    +0.000 A 
DOCKED: ATOM      8  C   UNL     1      37.977  15.341 122.239 -0.30 -0.00    +0.000 A 
DOCKED: ATOM      9  C   UNL     1      37.899  13.945 122.267 -0.42 -0.00    +0.000 A 
DOCKED: ATOM     10  CM  UNL     1      36.885  14.715 122.846 +0.00 -0.00    +0.000 AC
DOCKED: BRANCH   4  11
DOCKED: ATOM     11  C   UNL     1      37.108  10.996 121.980 -0.48 -0.00    +0.000 C 
DOCKED: ATOM     12  C   UNL     1      36.672  11.827 122.938 -0.67 -0.00    +0.000 C 
DOCKED: BRANCH  10  13
DOCKED: ATOM     13  O   UNL     1      36.690   8.841 121.059 -2.61 -0.00    +0.000 OA
DOCKED: ATOM     14  C   UNL     1      36.955   9.532 122.081 -0.64 -0.00    +0.000 C 
DOCKED: ATOM     15  N   UNL     1      37.106   8.889 123.348 -0.62 -0.00    +0.000 N 
DOCKED: ATOM     16  O   UNL     1      36.968   7.546 123.458 -2.52 -0.00    +0.000 OA
DOCKED: ATOM     17  H   UNL     1      37.312   9.425 124.148 -0.59 -0.00    +0.000 HD
DOCKED: ENDBRANCH  10  13
DOCKED: ENDBRANCH   4  11
DOCKED: ENDBRANCH   3   7
DOCKED: ENDBRANCH   1   3
DOCKED: BRANCH   1  17
DOCKED: ATOM     18  C   UNL     1      35.395  18.543 121.139 -0.26 -0.00    +0.000 C 
DOCKED: BRANCH  17  18
DOCKED: ATOM     19  C   UNL     1      33.899  18.331 120.889 -0.32 -0.00    +0.000 C 
DOCKED: BRANCH  18  19
DOCKED: ATOM     20  O   UNL     1      33.352  17.549 121.914 -0.45 -0.00    +0.000 OA
DOCKED: ATOM     21  H   UNL     1      33.901  16.761 122.048 -0.04 -0.00    +0.000 HD
DOCKED: ENDBRANCH  18  19
DOCKED: ENDBRANCH  17  18
DOCKED: ENDBRANCH   1  17
DOCKED: BRANCH   1  21
DOCKED: ATOM     22  C   UNL     1      35.559  19.525 123.399 -0.12 -0.00    +0.000 C 
DOCKED: BRANCH  21  22
DOCKED: ATOM     23  C   UNL     1      35.902  19.220 124.861 -0.21 -0.00    +0.000 C 
DOCKED: BRANCH  22  23
DOCKED: ATOM     24  C   UNL     1      34.743  18.569 125.559 -0.26 -0.00    +0.000 A 
DOCKED: ATOM     25  C   UNL     1      34.580  17.206 125.787 -0.27 -0.00    +0.000 A 
DOCKED: ATOM     26  N   UNL     1      33.492  16.983 126.560 -0.42 -0.00    +0.000 N 
DOCKED: ATOM     27  C   UNL     1      32.977  18.194 126.834 -0.26 -0.00    +0.000 A 
DOCKED: ATOM     28  C   UNL     1      33.714  19.188 126.244 -0.24 -0.00    +0.000 A 
DOCKED: ATOM     29  C   UNL     1      33.395  20.537 126.413 -0.17 -0.00    +0.000 A 
DOCKED: ATOM     30  C   UNL     1      32.282  20.853 127.212 -0.18 -0.00    +0.000 A 
DOCKED: ATOM     31  C   UNL     1      31.522  19.829 127.819 -0.20 -0.00    +0.000 A 
DOCKED: ATOM     32  C   UNL     1      31.870  18.478 127.634 -0.18 -0.00    +0.000 A 
DOCKED: ATOM     33  H   UNL     1      33.148  16.111 126.860 -0.07 -0.00    +0.000 HD
DOCKED: ATOM     34  CM  UNL     1      33.888  17.994 126.209 -0.09 -0.00    +0.000 AC
DOCKED: ATOM     35  CM  UNL     1      32.627  19.513 127.025 +0.00 -0.00    +0.000 AC
DOCKED: ENDBRANCH  22  23
DOCKED: ENDBRANCH  21  22
DOCKED: ENDBRANCH   1  21
DOCKED: TORSDOF 10DOCKED: TER
DOCKED: ENDMDL
________________________________________________________________________________


	BEGINNING GENETIC ALGORITHM DOCKING 88 of 100
Run: 88 Seed: 593701806 932172267 [ Run 88 of 100 GA/GALS ]
Beginning LAMARCKIAN GENETIC ALGORITHM (LGA), with a maximum of 2500000 energy evaluations.

Final-Value: -15.752


	FINAL GENETIC ALGORITHM DOCKED STATE
	_______________________________________________


Detailed state:  trans 39.280 16.480 121.277 quatxyzw -0.494039 -0.273195 -0.769761 0.297924 center 0.288 0.007 -0.056 ntor 10 -99.9463 133.3273 -25.9736 138.1240 -38.2871 -117.2814 168.8062 -145.2893 -76.9608 -154.5971
State:	 39.280  16.480 121.277  -0.518 -0.286 -0.806 145.334    -99.95  133.33  -25.97  138.12  -38.29 -117.28  168.81 -145.29  -76.96 -154.60

DOCKED: MODEL       88
DOCKED: USER    Run = 88
DOCKED: USER    DPF = ligand_dock.biased.dpf
DOCKED: USER  
DOCKED: USER    Estimated Free Energy of Binding    =  -11.08 kcal/mol  [=(1)+(2)+(3)-(4)]
DOCKED: USER    Estimated Inhibition Constant, Ki   =    7.52 nM (nanomolar)  [Temperature = 298.15 K]
DOCKED: USER    
DOCKED: USER    (1) Final Intermolecular Energy     =  -14.07 kcal/mol
DOCKED: USER        vdW + Hbond + desolv Energy     =  -14.07 kcal/mol
DOCKED: USER        Electrostatic Energy            =   +0.00 kcal/mol
DOCKED: USER    (2) Final Total Internal Energy     =   -1.69 kcal/mol
DOCKED: USER    (3) Torsional Free Energy           =   +2.98 kcal/mol
DOCKED: USER    (4) Unbound System's Energy  [=(2)] =   -1.69 kcal/mol
DOCKED: USER    
DOCKED: USER    
DOCKED: USER    NEWDPF move ligand.dum.pdbqt
DOCKED: USER    NEWDPF about 0.288000 0.007000 -0.056000
DOCKED: USER    NEWDPF tran0 39.279941 16.479757 121.277266
DOCKED: USER    NEWDPF quaternion0 -0.494039 -0.273195 -0.769761 0.297924
DOCKED: USER    NEWDPF axisangle0 -0.517540 -0.286191 -0.806379 145.334045
DOCKED: USER    NEWDPF quat0 -0.517540 -0.286191 -0.806379 145.334045
DOCKED: USER    NEWDPF dihe0 -99.95 133.33 -25.97 138.12 -38.29 -117.28 168.81 -145.29 -76.96 -154.60 
DOCKED: USER  keepresnum = 1 
DOCKED: USER  
DOCKED: REMARK  Name = 
DOCKED: REMARK  10 active torsions:
DOCKED: REMARK  status: ('A' for Active; 'I' for Inactive)
DOCKED: REMARK    1  A    between atoms: C_2  and  C_5
DOCKED: REMARK    2  A    between atoms: C_6  and  C_7
DOCKED: REMARK    3  A    between atoms: C_10  and  C_11
DOCKED: REMARK    4  A    between atoms: C_11  and  N_12
DOCKED: REMARK    5  A    between atoms: N_12  and  C_13
DOCKED: REMARK    6  A    between atoms: N_12  and  C_16
DOCKED: REMARK    7  A    between atoms: C_13  and  C_14
DOCKED: REMARK    8  A    between atoms: C_14  and  O_15
DOCKED: REMARK    9  A    between atoms: C_16  and  C_17
DOCKED: REMARK   10  A    between atoms: C_17  and  C_18
DOCKED: REMARK                            x       y       z     vdW  Elec       q    Type
DOCKED: REMARK                         _______ _______ _______ _____ _____    ______ ____
DOCKED: USER                              x       y       z     vdW  Elec       q    Type
DOCKED: USER                           _______ _______ _______ _____ _____    ______ ____
DOCKED: ROOT
DOCKED: ATOM      1  N   UNL     1      39.773  15.738 120.282 -0.18 -0.00    +0.000 N 
DOCKED: ATOM      2  H   UNL     1      39.763  14.800 119.883 -0.06 -0.00    +0.000 HD
DOCKED: ENDROOT
DOCKED: BRANCH   1   3
DOCKED: ATOM      3  C   UNL     1      38.492  15.814 121.033 -0.22 -0.00    +0.000 C 
DOCKED: BRANCH   3   7
DOCKED: ATOM      4  C   UNL     1      36.772  11.939 121.976 -0.52 -0.00    +0.000 A 
DOCKED: ATOM      5  C   UNL     1      37.121  12.265 120.657 -0.46 -0.00    +0.000 A 
DOCKED: ATOM      6  C   UNL     1      37.678  13.510 120.354 -0.39 -0.00    +0.000 A 
DOCKED: ATOM      7  C   UNL     1      37.871  14.470 121.360 -0.33 -0.00    +0.000 A 
DOCKED: ATOM      8  C   UNL     1      37.534  14.143 122.683 -0.43 -0.00    +0.000 A 
DOCKED: ATOM      9  C   UNL     1      36.978  12.897 122.989 -0.54 -0.00    +0.000 A 
DOCKED: ATOM     10  CM  UNL     1      37.326  13.203 121.669 +0.00 -0.00    +0.000 AC
DOCKED: BRANCH   4  11
DOCKED: ATOM     11  C   UNL     1      36.710   9.705 123.079 -0.67 -0.00    +0.000 C 
DOCKED: ATOM     12  C   UNL     1      36.175  10.607 122.245 -0.64 -0.00    +0.000 C 
DOCKED: BRANCH  10  13
DOCKED: ATOM     13  O   UNL     1      36.796   7.341 123.356 -2.26 -0.00    +0.000 OA
DOCKED: ATOM     14  C   UNL     1      36.090   8.385 123.312 -0.62 -0.00    +0.000 C 
DOCKED: ATOM     15  N   UNL     1      34.675   8.288 123.488 -0.60 -0.00    +0.000 N 
DOCKED: ATOM     16  O   UNL     1      34.090   7.085 123.702 -0.79 -0.00    +0.000 OA
DOCKED: ATOM     17  H   UNL     1      34.120   9.102 123.453 -0.48 -0.00    +0.000 HD
DOCKED: ENDBRANCH  10  13
DOCKED: ENDBRANCH   4  11
DOCKED: ENDBRANCH   3   7
DOCKED: ENDBRANCH   1   3
DOCKED: BRANCH   1  17
DOCKED: ATOM     18  C   UNL     1      40.993  15.764 121.122 -0.26 -0.00    +0.000 C 
DOCKED: BRANCH  17  18
DOCKED: ATOM     19  C   UNL     1      40.860  14.843 122.339 -0.51 -0.00    +0.000 C 
DOCKED: BRANCH  18  19
DOCKED: ATOM     20  O   UNL     1      41.947  15.034 123.201 -1.07 +0.00    +0.000 OA
DOCKED: ATOM     21  H   UNL     1      42.035  14.265 123.785 -0.12 +0.00    +0.000 HD
DOCKED: ENDBRANCH  18  19
DOCKED: ENDBRANCH  17  18
DOCKED: ENDBRANCH   1  17
DOCKED: BRANCH   1  21
DOCKED: ATOM     22  C   UNL     1      39.842  16.673 119.135 -0.12 -0.00    +0.000 C 
DOCKED: BRANCH  21  22
DOCKED: ATOM     23  C   UNL     1      40.993  16.288 118.198 -0.15 -0.00    +0.000 C 
DOCKED: BRANCH  22  23
DOCKED: ATOM     24  C   UNL     1      40.470  15.693 116.923 -0.20 -0.00    +0.000 A 
DOCKED: ATOM     25  C   UNL     1      41.167  15.570 115.726 -0.27 -0.00    +0.000 A 
DOCKED: ATOM     26  N   UNL     1      40.442  14.867 114.826 -0.30 -0.00    +0.000 N 
DOCKED: ATOM     27  C   UNL     1      39.300  14.531 115.451 -0.34 -0.00    +0.000 A 
DOCKED: ATOM     28  C   UNL     1      39.280  15.014 116.735 -0.19 -0.00    +0.000 A 
DOCKED: ATOM     29  C   UNL     1      38.211  14.765 117.596 -0.20 -0.00    +0.000 A 
DOCKED: ATOM     30  C   UNL     1      37.138  13.998 117.106 -0.33 -0.00    +0.000 A 
DOCKED: ATOM     31  C   UNL     1      37.158  13.501 115.784 -0.34 -0.00    +0.000 A 
DOCKED: ATOM     32  C   UNL     1      38.252  13.765 114.940 -0.39 -0.00    +0.000 A 
DOCKED: ATOM     33  H   UNL     1      40.698  14.646 113.902 -0.09 -0.00    +0.000 HD
DOCKED: ATOM     34  CM  UNL     1      40.142  15.126 115.897 +0.00 -0.00    +0.000 AC
DOCKED: ATOM     35  CM  UNL     1      38.223  14.263 116.269 +0.00 -0.00    +0.000 AC
DOCKED: ENDBRANCH  22  23
DOCKED: ENDBRANCH  21  22
DOCKED: ENDBRANCH   1  21
DOCKED: TORSDOF 10DOCKED: TER
DOCKED: ENDMDL
________________________________________________________________________________


	BEGINNING GENETIC ALGORITHM DOCKING 89 of 100
Run: 89 Seed: 2130216314 361075609 [ Run 89 of 100 GA/GALS ]
Beginning LAMARCKIAN GENETIC ALGORITHM (LGA), with a maximum of 2500000 energy evaluations.

Final-Value: -16.575


	FINAL GENETIC ALGORITHM DOCKED STATE
	_______________________________________________


Detailed state:  trans 39.106 16.935 121.779 quatxyzw -0.357350 -0.428025 -0.765012 0.322261 center 0.288 0.007 -0.056 ntor 10 -134.4340 -98.8594 44.0498 -160.3423 65.8088 142.1048 147.1970 45.2798 -127.8674 -173.2489
State:	 39.106  16.935 121.779  -0.377 -0.452 -0.808 142.401   -134.43  -98.86   44.05 -160.34   65.81  142.10  147.20   45.28 -127.87 -173.25

DOCKED: MODEL       89
DOCKED: USER    Run = 89
DOCKED: USER    DPF = ligand_dock.biased.dpf
DOCKED: USER  
DOCKED: USER    Estimated Free Energy of Binding    =  -11.17 kcal/mol  [=(1)+(2)+(3)-(4)]
DOCKED: USER    Estimated Inhibition Constant, Ki   =    6.52 nM (nanomolar)  [Temperature = 298.15 K]
DOCKED: USER    
DOCKED: USER    (1) Final Intermolecular Energy     =  -14.15 kcal/mol
DOCKED: USER        vdW + Hbond + desolv Energy     =  -14.15 kcal/mol
DOCKED: USER        Electrostatic Energy            =   +0.00 kcal/mol
DOCKED: USER    (2) Final Total Internal Energy     =   -2.43 kcal/mol
DOCKED: USER    (3) Torsional Free Energy           =   +2.98 kcal/mol
DOCKED: USER    (4) Unbound System's Energy  [=(2)] =   -2.43 kcal/mol
DOCKED: USER    
DOCKED: USER    
DOCKED: USER    NEWDPF move ligand.dum.pdbqt
DOCKED: USER    NEWDPF about 0.288000 0.007000 -0.056000
DOCKED: USER    NEWDPF tran0 39.105964 16.935154 121.779288
DOCKED: USER    NEWDPF quaternion0 -0.357350 -0.428025 -0.765012 0.322261
DOCKED: USER    NEWDPF axisangle0 -0.377488 -0.452146 -0.808125 142.400620
DOCKED: USER    NEWDPF quat0 -0.377488 -0.452146 -0.808125 142.400620
DOCKED: USER    NEWDPF dihe0 -134.43 -98.86 44.05 -160.34 65.81 142.10 147.20 45.28 -127.87 -173.25 
DOCKED: USER  keepresnum = 1 
DOCKED: USER  
DOCKED: REMARK  Name = 
DOCKED: REMARK  10 active torsions:
DOCKED: REMARK  status: ('A' for Active; 'I' for Inactive)
DOCKED: REMARK    1  A    between atoms: C_2  and  C_5
DOCKED: REMARK    2  A    between atoms: C_6  and  C_7
DOCKED: REMARK    3  A    between atoms: C_10  and  C_11
DOCKED: REMARK    4  A    between atoms: C_11  and  N_12
DOCKED: REMARK    5  A    between atoms: N_12  and  C_13
DOCKED: REMARK    6  A    between atoms: N_12  and  C_16
DOCKED: REMARK    7  A    between atoms: C_13  and  C_14
DOCKED: REMARK    8  A    between atoms: C_14  and  O_15
DOCKED: REMARK    9  A    between atoms: C_16  and  C_17
DOCKED: REMARK   10  A    between atoms: C_17  and  C_18
DOCKED: REMARK                            x       y       z     vdW  Elec       q    Type
DOCKED: REMARK                         _______ _______ _______ _____ _____    ______ ____
DOCKED: USER                              x       y       z     vdW  Elec       q    Type
DOCKED: USER                           _______ _______ _______ _____ _____    ______ ____
DOCKED: ROOT
DOCKED: ATOM      1  N   UNL     1      39.862  16.027 121.158 -0.20 -0.00    +0.000 N 
DOCKED: ATOM      2  H   UNL     1      40.066  15.028 121.113 -0.01 -0.00    +0.000 HD
DOCKED: ENDROOT
DOCKED: BRANCH   1   3
DOCKED: ATOM      3  C   UNL     1      38.484  16.079 121.713 -0.23 -0.00    +0.000 C 
DOCKED: BRANCH   3   7
DOCKED: ATOM      4  C   UNL     1      36.691  12.221 122.587 -0.55 -0.00    +0.000 A 
DOCKED: ATOM      5  C   UNL     1      36.547  13.295 123.478 -0.54 -0.00    +0.000 A 
DOCKED: ATOM      6  C   UNL     1      37.122  14.537 123.196 -0.41 -0.00    +0.000 A 
DOCKED: ATOM      7  C   UNL     1      37.878  14.726 122.028 -0.34 -0.00    +0.000 A 
DOCKED: ATOM      8  C   UNL     1      38.013  13.656 121.128 -0.38 -0.00    +0.000 A 
DOCKED: ATOM      9  C   UNL     1      37.438  12.413 121.408 -0.46 -0.00    +0.000 A 
DOCKED: ATOM     10  CM  UNL     1      37.281  13.475 122.305 +0.00 -0.00    +0.000 AC
DOCKED: BRANCH   4  11
DOCKED: ATOM     11  C   UNL     1      36.694   9.739 122.813 -0.70 -0.00    +0.000 C 
DOCKED: ATOM     12  C   UNL     1      36.071  10.919 122.938 -0.69 -0.00    +0.000 C 
DOCKED: BRANCH  10  13
DOCKED: ATOM     13  O   UNL     1      36.724   7.423 123.368 -2.28 -0.00    +0.000 OA
DOCKED: ATOM     14  C   UNL     1      36.039   8.463 123.163 -0.69 -0.00    +0.000 C 
DOCKED: ATOM     15  N   UNL     1      34.615   8.404 123.270 -0.61 -0.00    +0.000 N 
DOCKED: ATOM     16  O   UNL     1      33.999   7.241 123.591 -0.76 -0.00    +0.000 OA
DOCKED: ATOM     17  H   UNL     1      34.078   9.214 123.110 -0.45 -0.00    +0.000 HD
DOCKED: ENDBRANCH  10  13
DOCKED: ENDBRANCH   4  11
DOCKED: ENDBRANCH   3   7
DOCKED: ENDBRANCH   1   3
DOCKED: BRANCH   1  17
DOCKED: ATOM     18  C   UNL     1      40.915  16.576 122.043 -0.27 -0.00    +0.000 C 
DOCKED: BRANCH  17  18
DOCKED: ATOM     19  C   UNL     1      41.892  15.489 122.498 -0.51 -0.00    +0.000 C 
DOCKED: BRANCH  18  19
DOCKED: ATOM     20  O   UNL     1      41.185  14.339 122.872 -1.06 +0.00    +0.000 OA
DOCKED: ATOM     21  H   UNL     1      41.797  13.589 122.936 -0.08 -0.00    +0.000 HD
DOCKED: ENDBRANCH  18  19
DOCKED: ENDBRANCH  17  18
DOCKED: ENDBRANCH   1  17
DOCKED: BRANCH   1  21
DOCKED: ATOM     22  C   UNL     1      39.958  16.528 119.766 -0.13 -0.00    +0.000 C 
DOCKED: BRANCH  21  22
DOCKED: ATOM     23  C   UNL     1      41.285  17.264 119.552 -0.10 -0.00    +0.000 C 
DOCKED: BRANCH  22  23
DOCKED: ATOM     24  C   UNL     1      42.376  16.303 119.177 -0.15 -0.00    +0.000 A 
DOCKED: ATOM     25  C   UNL     1      42.398  15.480 118.056 -0.12 -0.00    +0.000 A 
DOCKED: ATOM     26  N   UNL     1      43.589  14.846 117.957 -0.34 -0.00    +0.000 N 
DOCKED: ATOM     27  C   UNL     1      44.325  15.275 118.998 -0.31 -0.00    +0.000 A 
DOCKED: ATOM     28  C   UNL     1      43.621  16.169 119.764 -0.20 -0.00    +0.000 A 
DOCKED: ATOM     29  C   UNL     1      44.186  16.780 120.883 -0.20 -0.00    +0.000 A 
DOCKED: ATOM     30  C   UNL     1      45.514  16.451 121.211 -0.24 +0.00    +0.000 A 
DOCKED: ATOM     31  C   UNL     1      46.238  15.530 120.423 -0.25 +0.00    +0.000 A 
DOCKED: ATOM     32  C   UNL     1      45.643  14.932 119.297 -0.37 +0.00    +0.000 A 
DOCKED: ATOM     33  H   UNL     1      43.862  14.202 117.265 -0.51 -0.00    +0.000 HD
DOCKED: ATOM     34  CM  UNL     1      43.273  15.591 118.763 +0.00 -0.00    +0.000 AC
DOCKED: ATOM     35  CM  UNL     1      44.921  15.856 120.096 +0.00 +0.00    +0.000 AC
DOCKED: ENDBRANCH  22  23
DOCKED: ENDBRANCH  21  22
DOCKED: ENDBRANCH   1  21
DOCKED: TORSDOF 10DOCKED: TER
DOCKED: ENDMDL
________________________________________________________________________________


	BEGINNING GENETIC ALGORITHM DOCKING 90 of 100
Run: 90 Seed: 692548409 469829690 [ Run 90 of 100 GA/GALS ]
Beginning LAMARCKIAN GENETIC ALGORITHM (LGA), with a maximum of 2500000 energy evaluations.

Final-Value: -16.495


	FINAL GENETIC ALGORITHM DOCKED STATE
	_______________________________________________


Detailed state:  trans 36.661 17.075 123.075 quatxyzw 0.797513 -0.601942 0.002014 -0.040425 center 0.288 0.007 -0.056 ntor 10 -104.7018 -79.9684 97.7183 -31.1340 179.7338 104.1121 -84.6302 116.5566 -178.0357 -18.6784
State:	 36.661  17.075 123.075   0.798 -0.602  0.002 -175.366   -104.70  -79.97   97.72  -31.13  179.73  104.11  -84.63  116.56 -178.04  -18.68

DOCKED: MODEL       90
DOCKED: USER    Run = 90
DOCKED: USER    DPF = ligand_dock.biased.dpf
DOCKED: USER  
DOCKED: USER    Estimated Free Energy of Binding    =  -11.69 kcal/mol  [=(1)+(2)+(3)-(4)]
DOCKED: USER    Estimated Inhibition Constant, Ki   =    2.70 nM (nanomolar)  [Temperature = 298.15 K]
DOCKED: USER    
DOCKED: USER    (1) Final Intermolecular Energy     =  -14.67 kcal/mol
DOCKED: USER        vdW + Hbond + desolv Energy     =  -14.67 kcal/mol
DOCKED: USER        Electrostatic Energy            =   +0.00 kcal/mol
DOCKED: USER    (2) Final Total Internal Energy     =   -1.82 kcal/mol
DOCKED: USER    (3) Torsional Free Energy           =   +2.98 kcal/mol
DOCKED: USER    (4) Unbound System's Energy  [=(2)] =   -1.82 kcal/mol
DOCKED: USER    
DOCKED: USER    
DOCKED: USER    NEWDPF move ligand.dum.pdbqt
DOCKED: USER    NEWDPF about 0.288000 0.007000 -0.056000
DOCKED: USER    NEWDPF tran0 36.661226 17.075238 123.074823
DOCKED: USER    NEWDPF quaternion0 0.797513 -0.601942 0.002014 -0.040425
DOCKED: USER    NEWDPF axisangle0 0.798165 -0.602435 0.002015 -175.366385
DOCKED: USER    NEWDPF quat0 0.798165 -0.602435 0.002015 -175.366385
DOCKED: USER    NEWDPF dihe0 -104.70 -79.97 97.72 -31.13 179.73 104.11 -84.63 116.56 -178.04 -18.68 
DOCKED: USER  keepresnum = 1 
DOCKED: USER  
DOCKED: REMARK  Name = 
DOCKED: REMARK  10 active torsions:
DOCKED: REMARK  status: ('A' for Active; 'I' for Inactive)
DOCKED: REMARK    1  A    between atoms: C_2  and  C_5
DOCKED: REMARK    2  A    between atoms: C_6  and  C_7
DOCKED: REMARK    3  A    between atoms: C_10  and  C_11
DOCKED: REMARK    4  A    between atoms: C_11  and  N_12
DOCKED: REMARK    5  A    between atoms: N_12  and  C_13
DOCKED: REMARK    6  A    between atoms: N_12  and  C_16
DOCKED: REMARK    7  A    between atoms: C_13  and  C_14
DOCKED: REMARK    8  A    between atoms: C_14  and  O_15
DOCKED: REMARK    9  A    between atoms: C_16  and  C_17
DOCKED: REMARK   10  A    between atoms: C_17  and  C_18
DOCKED: REMARK                            x       y       z     vdW  Elec       q    Type
DOCKED: REMARK                         _______ _______ _______ _____ _____    ______ ____
DOCKED: USER                              x       y       z     vdW  Elec       q    Type
DOCKED: USER                           _______ _______ _______ _____ _____    ______ ____
DOCKED: ROOT
DOCKED: ATOM      1  N   UNL     1      36.596  18.406 122.987 -0.16 -0.00    +0.000 N 
DOCKED: ATOM      2  H   UNL     1      36.021  19.212 123.233 -0.00 -0.00    +0.000 HD
DOCKED: ENDROOT
DOCKED: BRANCH   1   3
DOCKED: ATOM      3  C   UNL     1      36.196  17.374 123.979 -0.29 -0.00    +0.000 C 
DOCKED: BRANCH   3   7
DOCKED: ATOM      4  C   UNL     1      36.797  13.286 122.640 -0.48 -0.00    +0.000 A 
DOCKED: ATOM      5  C   UNL     1      35.778  13.597 123.552 -0.47 -0.00    +0.000 A 
DOCKED: ATOM      6  C   UNL     1      35.582  14.913 123.981 -0.48 -0.00    +0.000 A 
DOCKED: ATOM      7  C   UNL     1      36.421  15.944 123.529 -0.34 -0.00    +0.000 A 
DOCKED: ATOM      8  C   UNL     1      37.435  15.638 122.605 -0.29 -0.00    +0.000 A 
DOCKED: ATOM      9  C   UNL     1      37.631  14.322 122.175 -0.38 -0.00    +0.000 A 
DOCKED: ATOM     10  CM  UNL     1      36.607  14.616 123.080 +0.00 -0.00    +0.000 AC
DOCKED: BRANCH   4  11
DOCKED: ATOM     11  C   UNL     1      36.517  10.826 122.930 -0.69 -0.00    +0.000 C 
DOCKED: ATOM     12  C   UNL     1      36.971  11.872 122.224 -0.60 -0.00    +0.000 C 
DOCKED: BRANCH  10  13
DOCKED: ATOM     13  O   UNL     1      36.751   9.146 121.259 -2.60 -0.00    +0.000 OA
DOCKED: ATOM     14  C   UNL     1      36.719   9.433 122.487 -0.71 -0.00    +0.000 C 
DOCKED: ATOM     15  N   UNL     1      36.878   8.397 123.459 -0.68 -0.00    +0.000 N 
DOCKED: ATOM     16  O   UNL     1      37.064   7.113 123.069 -2.07 -0.00    +0.000 OA
DOCKED: ATOM     17  H   UNL     1      36.854   8.617 124.419 -0.43 -0.00    +0.000 HD
DOCKED: ENDBRANCH  10  13
DOCKED: ENDBRANCH   4  11
DOCKED: ENDBRANCH   3   7
DOCKED: ENDBRANCH   1   3
DOCKED: BRANCH   1  17
DOCKED: ATOM     18  C   UNL     1      36.223  18.106 121.586 -0.21 -0.00    +0.000 C 
DOCKED: BRANCH  17  18
DOCKED: ATOM     19  C   UNL     1      36.404  19.326 120.680 -0.15 -0.00    +0.000 C 
DOCKED: BRANCH  18  19
DOCKED: ATOM     20  O   UNL     1      36.314  20.500 121.438 -0.64 -0.00    +0.000 OA
DOCKED: ATOM     21  H   UNL     1      36.191  21.259 120.847 -0.06 +0.00    +0.000 HD
DOCKED: ENDBRANCH  18  19
DOCKED: ENDBRANCH  17  18
DOCKED: ENDBRANCH   1  17
DOCKED: BRANCH   1  21
DOCKED: ATOM     22  C   UNL     1      38.004  18.847 123.128 -0.12 -0.00    +0.000 C 
DOCKED: BRANCH  21  22
DOCKED: ATOM     23  C   UNL     1      38.914  18.043 122.193 -0.11 -0.00    +0.000 C 
DOCKED: BRANCH  22  23
DOCKED: ATOM     24  C   UNL     1      40.261  17.820 122.817 -0.16 -0.00    +0.000 A 
DOCKED: ATOM     25  C   UNL     1      40.555  17.853 124.176 -0.27 -0.00    +0.000 A 
DOCKED: ATOM     26  N   UNL     1      41.835  17.477 124.393 -0.31 -0.00    +0.000 N 
DOCKED: ATOM     27  C   UNL     1      42.348  17.191 123.184 -0.34 -0.00    +0.000 A 
DOCKED: ATOM     28  C   UNL     1      41.417  17.385 122.196 -0.19 -0.00    +0.000 A 
DOCKED: ATOM     29  C   UNL     1      41.704  17.121 120.855 -0.13 -0.00    +0.000 A 
DOCKED: ATOM     30  C   UNL     1      42.990  16.647 120.540 -0.18 -0.00    +0.000 A 
DOCKED: ATOM     31  C   UNL     1      43.949  16.448 121.558 -0.26 -0.00    +0.000 A 
DOCKED: ATOM     32  C   UNL     1      43.630  16.719 122.901 -0.31 -0.00    +0.000 A 
DOCKED: ATOM     33  H   UNL     1      42.298  17.423 125.260 -0.56 -0.00    +0.000 HD
DOCKED: ATOM     34  CM  UNL     1      41.301  17.542 123.387 +0.00 -0.00    +0.000 AC
DOCKED: ATOM     35  CM  UNL     1      42.673  16.919 121.872 +0.00 -0.00    +0.000 AC
DOCKED: ENDBRANCH  22  23
DOCKED: ENDBRANCH  21  22
DOCKED: ENDBRANCH   1  21
DOCKED: TORSDOF 10DOCKED: TER
DOCKED: ENDMDL
________________________________________________________________________________


	BEGINNING GENETIC ALGORITHM DOCKING 91 of 100
Run: 91 Seed: 345358249 652022418 [ Run 91 of 100 GA/GALS ]
Beginning LAMARCKIAN GENETIC ALGORITHM (LGA), with a maximum of 2500000 energy evaluations.

Final-Value: -16.262


	FINAL GENETIC ALGORITHM DOCKED STATE
	_______________________________________________


Detailed state:  trans 38.634 16.959 121.736 quatxyzw 0.991893 0.021398 0.125127 -0.005836 center 0.288 0.007 -0.056 ntor 10 128.7160 -6.3845 31.1991 -121.2679 1.8264 -3.3837 107.1636 179.8085 -28.2453 -140.7089
State:	 38.634  16.959 121.736   0.992  0.021  0.125 -179.331    128.72   -6.38   31.20 -121.27    1.83   -3.38  107.16  179.81  -28.25 -140.71

DOCKED: MODEL       91
DOCKED: USER    Run = 91
DOCKED: USER    DPF = ligand_dock.biased.dpf
DOCKED: USER  
DOCKED: USER    Estimated Free Energy of Binding    =  -10.21 kcal/mol  [=(1)+(2)+(3)-(4)]
DOCKED: USER    Estimated Inhibition Constant, Ki   =   32.81 nM (nanomolar)  [Temperature = 298.15 K]
DOCKED: USER    
DOCKED: USER    (1) Final Intermolecular Energy     =  -13.19 kcal/mol
DOCKED: USER        vdW + Hbond + desolv Energy     =  -13.19 kcal/mol
DOCKED: USER        Electrostatic Energy            =   +0.00 kcal/mol
DOCKED: USER    (2) Final Total Internal Energy     =   -3.07 kcal/mol
DOCKED: USER    (3) Torsional Free Energy           =   +2.98 kcal/mol
DOCKED: USER    (4) Unbound System's Energy  [=(2)] =   -3.07 kcal/mol
DOCKED: USER    
DOCKED: USER    
DOCKED: USER    NEWDPF move ligand.dum.pdbqt
DOCKED: USER    NEWDPF about 0.288000 0.007000 -0.056000
DOCKED: USER    NEWDPF tran0 38.634298 16.958845 121.735753
DOCKED: USER    NEWDPF quaternion0 0.991893 0.021398 0.125127 -0.005836
DOCKED: USER    NEWDPF axisangle0 0.991910 0.021398 0.125129 -179.331272
DOCKED: USER    NEWDPF quat0 0.991910 0.021398 0.125129 -179.331272
DOCKED: USER    NEWDPF dihe0 128.72 -6.38 31.20 -121.27 1.83 -3.38 107.16 179.81 -28.25 -140.71 
DOCKED: USER  keepresnum = 1 
DOCKED: USER  
DOCKED: REMARK  Name = 
DOCKED: REMARK  10 active torsions:
DOCKED: REMARK  status: ('A' for Active; 'I' for Inactive)
DOCKED: REMARK    1  A    between atoms: C_2  and  C_5
DOCKED: REMARK    2  A    between atoms: C_6  and  C_7
DOCKED: REMARK    3  A    between atoms: C_10  and  C_11
DOCKED: REMARK    4  A    between atoms: C_11  and  N_12
DOCKED: REMARK    5  A    between atoms: N_12  and  C_13
DOCKED: REMARK    6  A    between atoms: N_12  and  C_16
DOCKED: REMARK    7  A    between atoms: C_13  and  C_14
DOCKED: REMARK    8  A    between atoms: C_14  and  O_15
DOCKED: REMARK    9  A    between atoms: C_16  and  C_17
DOCKED: REMARK   10  A    between atoms: C_17  and  C_18
DOCKED: REMARK                            x       y       z     vdW  Elec       q    Type
DOCKED: REMARK                         _______ _______ _______ _____ _____    ______ ____
DOCKED: USER                              x       y       z     vdW  Elec       q    Type
DOCKED: USER                           _______ _______ _______ _____ _____    ______ ____
DOCKED: ROOT
DOCKED: ATOM      1  N   UNL     1      37.364  17.206 121.407 -0.12 -0.00    +0.000 N 
DOCKED: ATOM      2  H   UNL     1      36.421  16.820 121.450 -0.00 -0.00    +0.000 HD
DOCKED: ENDROOT
DOCKED: BRANCH   1   3
DOCKED: ATOM      3  C   UNL     1      38.072  16.527 122.523 -0.24 -0.00    +0.000 C 
DOCKED: BRANCH   3   7
DOCKED: ATOM      4  C   UNL     1      36.722  12.460 123.234 -0.59 -0.00    +0.000 A 
DOCKED: ATOM      5  C   UNL     1      36.087  13.544 123.859 -0.49 -0.00    +0.000 A 
DOCKED: ATOM      6  C   UNL     1      36.520  14.853 123.628 -0.40 -0.00    +0.000 A 
DOCKED: ATOM      7  C   UNL     1      37.616  15.105 122.789 -0.35 -0.00    +0.000 A 
DOCKED: ATOM      8  C   UNL     1      38.245  14.023 122.151 -0.40 -0.00    +0.000 A 
DOCKED: ATOM      9  C   UNL     1      37.813  12.713 122.380 -0.28 -0.00    +0.000 A 
DOCKED: ATOM     10  CM  UNL     1      37.166  13.783 123.007 +0.00 -0.00    +0.000 AC
DOCKED: BRANCH   4  11
DOCKED: ATOM     11  C   UNL     1      36.488  10.028 122.742 -0.69 -0.00    +0.000 C 
DOCKED: ATOM     12  C   UNL     1      36.231  11.089 123.520 -0.67 -0.00    +0.000 C 
DOCKED: BRANCH  10  13
DOCKED: ATOM     13  O   UNL     1      36.762   7.707 123.201 -2.40 -0.00    +0.000 OA
DOCKED: ATOM     14  C   UNL     1      35.973   8.680 123.056 -0.71 -0.00    +0.000 C 
DOCKED: ATOM     15  N   UNL     1      34.565   8.474 123.196 -0.61 -0.00    +0.000 N 
DOCKED: ATOM     16  O   UNL     1      34.077   7.244 123.483 -0.77 -0.00    +0.000 OA
DOCKED: ATOM     17  H   UNL     1      33.946   9.232 123.083 -0.48 -0.00    +0.000 HD
DOCKED: ENDBRANCH  10  13
DOCKED: ENDBRANCH   4  11
DOCKED: ENDBRANCH   3   7
DOCKED: ENDBRANCH   1   3
DOCKED: BRANCH   1  17
DOCKED: ATOM     18  C   UNL     1      37.844  16.850 120.052 -0.12 -0.00    +0.000 C 
DOCKED: BRANCH  17  18
DOCKED: ATOM     19  C   UNL     1      36.910  15.847 119.368 -0.19 -0.00    +0.000 C 
DOCKED: BRANCH  18  19
DOCKED: ATOM     20  O   UNL     1      35.583  16.281 119.480 -0.11 -0.00    +0.000 OA
DOCKED: ATOM     21  H   UNL     1      35.457  17.078 118.943 -0.01 -0.00    +0.000 HD
DOCKED: ENDBRANCH  18  19
DOCKED: ENDBRANCH  17  18
DOCKED: ENDBRANCH   1  17
DOCKED: BRANCH   1  21
DOCKED: ATOM     22  C   UNL     1      37.219  18.668 121.602 -0.12 -0.00    +0.000 C 
DOCKED: BRANCH  21  22
DOCKED: ATOM     23  C   UNL     1      35.739  19.049 121.720 -0.20 -0.00    +0.000 C 
DOCKED: BRANCH  22  23
DOCKED: ATOM     24  C   UNL     1      35.018  18.120 122.653 -0.28 -0.00    +0.000 A 
DOCKED: ATOM     25  C   UNL     1      34.467  16.886 122.322 -0.27 -0.00    +0.000 A 
DOCKED: ATOM     26  N   UNL     1      34.015  16.258 123.430 -0.43 -0.00    +0.000 N 
DOCKED: ATOM     27  C   UNL     1      34.290  17.077 124.460 -0.41 -0.00    +0.000 A 
DOCKED: ATOM     28  C   UNL     1      34.906  18.223 124.027 -0.29 -0.00    +0.000 A 
DOCKED: ATOM     29  C   UNL     1      35.321  19.215 124.917 -0.21 -0.00    +0.000 A 
DOCKED: ATOM     30  C   UNL     1      35.086  19.006 126.288 -0.19 -0.00    +0.000 A 
DOCKED: ATOM     31  C   UNL     1      34.451  17.827 126.734 -0.24 -0.00    +0.000 A 
DOCKED: ATOM     32  C   UNL     1      34.047  16.843 125.814 -0.38 -0.00    +0.000 A 
DOCKED: ATOM     33  H   UNL     1      33.574  15.379 123.475 -0.07 -0.00    +0.000 HD
DOCKED: ATOM     34  CM  UNL     1      34.523  17.279 123.380 -0.06 -0.00    +0.000 AC
DOCKED: ATOM     35  CM  UNL     1      34.683  18.032 125.373 -0.41 -0.00    +0.000 AC
DOCKED: ENDBRANCH  22  23
DOCKED: ENDBRANCH  21  22
DOCKED: ENDBRANCH   1  21
DOCKED: TORSDOF 10DOCKED: TER
DOCKED: ENDMDL
________________________________________________________________________________


	BEGINNING GENETIC ALGORITHM DOCKING 92 of 100
Run: 92 Seed: 2093201068 1780673068 [ Run 92 of 100 GA/GALS ]
Beginning LAMARCKIAN GENETIC ALGORITHM (LGA), with a maximum of 2500000 energy evaluations.

Final-Value: -16.843


	FINAL GENETIC ALGORITHM DOCKED STATE
	_______________________________________________


Detailed state:  trans 36.239 18.796 123.564 quatxyzw 0.379826 -0.234521 -0.804840 0.391107 center 0.288 0.007 -0.056 ntor 10 -117.7203 -14.3898 54.4012 171.9959 131.8892 153.2343 -154.6013 -166.6547 -17.4068 -180.0000
State:	 36.239  18.796 123.564   0.413 -0.255 -0.874 133.953   -117.72  -14.39   54.40  172.00  131.89  153.23 -154.60 -166.65  -17.41 -180.00

DOCKED: MODEL       92
DOCKED: USER    Run = 92
DOCKED: USER    DPF = ligand_dock.biased.dpf
DOCKED: USER  
DOCKED: USER    Estimated Free Energy of Binding    =  -11.41 kcal/mol  [=(1)+(2)+(3)-(4)]
DOCKED: USER    Estimated Inhibition Constant, Ki   =    4.33 nM (nanomolar)  [Temperature = 298.15 K]
DOCKED: USER    
DOCKED: USER    (1) Final Intermolecular Energy     =  -14.39 kcal/mol
DOCKED: USER        vdW + Hbond + desolv Energy     =  -14.39 kcal/mol
DOCKED: USER        Electrostatic Energy            =   +0.00 kcal/mol
DOCKED: USER    (2) Final Total Internal Energy     =   -2.45 kcal/mol
DOCKED: USER    (3) Torsional Free Energy           =   +2.98 kcal/mol
DOCKED: USER    (4) Unbound System's Energy  [=(2)] =   -2.45 kcal/mol
DOCKED: USER    
DOCKED: USER    
DOCKED: USER    NEWDPF move ligand.dum.pdbqt
DOCKED: USER    NEWDPF about 0.288000 0.007000 -0.056000
DOCKED: USER    NEWDPF tran0 36.238869 18.795787 123.563727
DOCKED: USER    NEWDPF quaternion0 0.379826 -0.234521 -0.804840 0.391107
DOCKED: USER    NEWDPF axisangle0 0.412699 -0.254818 -0.874498 133.953191
DOCKED: USER    NEWDPF quat0 0.412699 -0.254818 -0.874498 133.953191
DOCKED: USER    NEWDPF dihe0 -117.72 -14.39 54.40 172.00 131.89 153.23 -154.60 -166.65 -17.41 -180.00 
DOCKED: USER  keepresnum = 1 
DOCKED: USER  
DOCKED: REMARK  Name = 
DOCKED: REMARK  10 active torsions:
DOCKED: REMARK  status: ('A' for Active; 'I' for Inactive)
DOCKED: REMARK    1  A    between atoms: C_2  and  C_5
DOCKED: REMARK    2  A    between atoms: C_6  and  C_7
DOCKED: REMARK    3  A    between atoms: C_10  and  C_11
DOCKED: REMARK    4  A    between atoms: C_11  and  N_12
DOCKED: REMARK    5  A    between atoms: N_12  and  C_13
DOCKED: REMARK    6  A    between atoms: N_12  and  C_16
DOCKED: REMARK    7  A    between atoms: C_13  and  C_14
DOCKED: REMARK    8  A    between atoms: C_14  and  O_15
DOCKED: REMARK    9  A    between atoms: C_16  and  C_17
DOCKED: REMARK   10  A    between atoms: C_17  and  C_18
DOCKED: REMARK                            x       y       z     vdW  Elec       q    Type
DOCKED: REMARK                         _______ _______ _______ _____ _____    ______ ____
DOCKED: USER                              x       y       z     vdW  Elec       q    Type
DOCKED: USER                           _______ _______ _______ _____ _____    ______ ____
DOCKED: ROOT
DOCKED: ATOM      1  N   UNL     1      37.012  18.388 124.573 -0.18 -0.00    +0.000 N 
DOCKED: ATOM      2  H   UNL     1      37.220  17.586 125.167 -0.02 -0.00    +0.000 HD
DOCKED: ENDROOT
DOCKED: BRANCH   1   3
DOCKED: ATOM      3  C   UNL     1      36.432  17.776 123.349 -0.24 -0.00    +0.000 C 
DOCKED: BRANCH   3   7
DOCKED: ATOM      4  C   UNL     1      36.576  13.435 123.323 -0.52 -0.00    +0.000 A 
DOCKED: ATOM      5  C   UNL     1      37.738  14.191 123.105 -0.43 -0.00    +0.000 A 
DOCKED: ATOM      6  C   UNL     1      37.692  15.587 123.116 -0.31 -0.00    +0.000 A 
DOCKED: ATOM      7  C   UNL     1      36.477  16.261 123.317 -0.31 -0.00    +0.000 A 
DOCKED: ATOM      8  C   UNL     1      35.315  15.507 123.549 -0.44 -0.00    +0.000 A 
DOCKED: ATOM      9  C   UNL     1      35.358  14.110 123.539 -0.35 -0.00    +0.000 A 
DOCKED: ATOM     10  CM  UNL     1      36.527  14.848 123.325 +0.00 -0.00    +0.000 AC
DOCKED: BRANCH   4  11
DOCKED: ATOM     11  C   UNL     1      36.921  11.248 122.178 -0.59 -0.00    +0.000 C 
DOCKED: ATOM     12  C   UNL     1      36.675  11.954 123.291 -0.69 -0.00    +0.000 C 
DOCKED: BRANCH  10  13
DOCKED: ATOM     13  O   UNL     1      37.060   9.128 121.103 -2.73 -0.00    +0.000 OA
DOCKED: ATOM     14  C   UNL     1      37.002   9.774 122.185 -0.60 -0.00    +0.000 C 
DOCKED: ATOM     15  N   UNL     1      37.011   9.071 123.429 -0.58 -0.00    +0.000 N 
DOCKED: ATOM     16  O   UNL     1      37.084   7.719 123.453 -2.69 -0.00    +0.000 OA
DOCKED: ATOM     17  H   UNL     1      36.965   9.573 124.276 -0.52 -0.00    +0.000 HD
DOCKED: ENDBRANCH  10  13
DOCKED: ENDBRANCH   4  11
DOCKED: ENDBRANCH   3   7
DOCKED: ENDBRANCH   1   3
DOCKED: BRANCH   1  17
DOCKED: ATOM     18  C   UNL     1      36.067  19.200 125.374 -0.19 -0.00    +0.000 C 
DOCKED: BRANCH  17  18
DOCKED: ATOM     19  C   UNL     1      36.005  18.723 126.828 -0.15 -0.00    +0.000 C 
DOCKED: BRANCH  18  19
DOCKED: ATOM     20  O   UNL     1      37.290  18.396 127.277 -0.07 -0.00    +0.000 OA
DOCKED: ATOM     21  H   UNL     1      37.240  18.064 128.187 -0.01 -0.00    +0.000 HD
DOCKED: ENDBRANCH  18  19
DOCKED: ENDBRANCH  17  18
DOCKED: ENDBRANCH   1  17
DOCKED: BRANCH   1  21
DOCKED: ATOM     22  C   UNL     1      38.305  19.072 124.337 -0.14 -0.00    +0.000 C 
DOCKED: BRANCH  21  22
DOCKED: ATOM     23  C   UNL     1      39.464  18.232 124.885 -0.25 -0.00    +0.000 C 
DOCKED: BRANCH  22  23
DOCKED: ATOM     24  C   UNL     1      40.677  18.355 124.009 -0.22 -0.00    +0.000 A 
DOCKED: ATOM     25  C   UNL     1      41.497  19.472 123.890 -0.13 -0.00    +0.000 A 
DOCKED: ATOM     26  N   UNL     1      42.571  19.190 123.119 -0.15 -0.00    +0.000 N 
DOCKED: ATOM     27  C   UNL     1      42.444  17.900 122.762 -0.23 -0.00    +0.000 A 
DOCKED: ATOM     28  C   UNL     1      41.302  17.354 123.288 -0.29 -0.00    +0.000 A 
DOCKED: ATOM     29  C   UNL     1      40.968  16.014 123.085 -0.33 -0.00    +0.000 A 
DOCKED: ATOM     30  C   UNL     1      41.844  15.229 122.314 -0.46 -0.00    +0.000 A 
DOCKED: ATOM     31  C   UNL     1      43.020  15.792 121.771 -0.27 -0.00    +0.000 A 
DOCKED: ATOM     32  C   UNL     1      43.332  17.145 121.996 -0.26 -0.00    +0.000 A 
DOCKED: ATOM     33  H   UNL     1      43.299  19.804 122.869 -0.02 -0.00    +0.000 HD
DOCKED: ATOM     34  CM  UNL     1      41.727  18.478 123.404 +0.00 -0.00    +0.000 AC
DOCKED: ATOM     35  CM  UNL     1      42.152  16.573 122.536 +0.00 -0.00    +0.000 AC
DOCKED: ENDBRANCH  22  23
DOCKED: ENDBRANCH  21  22
DOCKED: ENDBRANCH   1  21
DOCKED: TORSDOF 10DOCKED: TER
DOCKED: ENDMDL
________________________________________________________________________________


	BEGINNING GENETIC ALGORITHM DOCKING 93 of 100
Run: 93 Seed: 74073455 1849232590 [ Run 93 of 100 GA/GALS ]
Beginning LAMARCKIAN GENETIC ALGORITHM (LGA), with a maximum of 2500000 energy evaluations.

Final-Value: -16.229


	FINAL GENETIC ALGORITHM DOCKED STATE
	_______________________________________________


Detailed state:  trans 36.261 16.850 123.407 quatxyzw -0.359947 0.049467 0.636359 0.680469 center 0.288 0.007 -0.056 ntor 10 -169.2311 118.5009 175.0031 -141.4797 -116.9056 173.9211 -173.8249 -62.2646 44.0945 -21.0646
State:	 36.261  16.850 123.407  -0.491  0.068  0.868 94.239   -169.23  118.50  175.00 -141.48 -116.91  173.92 -173.82  -62.26   44.09  -21.06

DOCKED: MODEL       93
DOCKED: USER    Run = 93
DOCKED: USER    DPF = ligand_dock.biased.dpf
DOCKED: USER  
DOCKED: USER    Estimated Free Energy of Binding    =  -11.22 kcal/mol  [=(1)+(2)+(3)-(4)]
DOCKED: USER    Estimated Inhibition Constant, Ki   =    6.01 nM (nanomolar)  [Temperature = 298.15 K]
DOCKED: USER    
DOCKED: USER    (1) Final Intermolecular Energy     =  -14.20 kcal/mol
DOCKED: USER        vdW + Hbond + desolv Energy     =  -14.20 kcal/mol
DOCKED: USER        Electrostatic Energy            =   +0.00 kcal/mol
DOCKED: USER    (2) Final Total Internal Energy     =   -2.03 kcal/mol
DOCKED: USER    (3) Torsional Free Energy           =   +2.98 kcal/mol
DOCKED: USER    (4) Unbound System's Energy  [=(2)] =   -2.03 kcal/mol
DOCKED: USER    
DOCKED: USER    
DOCKED: USER    NEWDPF move ligand.dum.pdbqt
DOCKED: USER    NEWDPF about 0.288000 0.007000 -0.056000
DOCKED: USER    NEWDPF tran0 36.260609 16.850122 123.407057
DOCKED: USER    NEWDPF quaternion0 -0.359947 0.049467 0.636359 0.680469
DOCKED: USER    NEWDPF axisangle0 -0.491209 0.067506 0.868422 94.239330
DOCKED: USER    NEWDPF quat0 -0.491209 0.067506 0.868422 94.239330
DOCKED: USER    NEWDPF dihe0 -169.23 118.50 175.00 -141.48 -116.91 173.92 -173.82 -62.26 44.09 -21.06 
DOCKED: USER  keepresnum = 1 
DOCKED: USER  
DOCKED: REMARK  Name = 
DOCKED: REMARK  10 active torsions:
DOCKED: REMARK  status: ('A' for Active; 'I' for Inactive)
DOCKED: REMARK    1  A    between atoms: C_2  and  C_5
DOCKED: REMARK    2  A    between atoms: C_6  and  C_7
DOCKED: REMARK    3  A    between atoms: C_10  and  C_11
DOCKED: REMARK    4  A    between atoms: C_11  and  N_12
DOCKED: REMARK    5  A    between atoms: N_12  and  C_13
DOCKED: REMARK    6  A    between atoms: N_12  and  C_16
DOCKED: REMARK    7  A    between atoms: C_13  and  C_14
DOCKED: REMARK    8  A    between atoms: C_14  and  O_15
DOCKED: REMARK    9  A    between atoms: C_16  and  C_17
DOCKED: REMARK   10  A    between atoms: C_17  and  C_18
DOCKED: REMARK                            x       y       z     vdW  Elec       q    Type
DOCKED: REMARK                         _______ _______ _______ _____ _____    ______ ____
DOCKED: USER                              x       y       z     vdW  Elec       q    Type
DOCKED: USER                           _______ _______ _______ _____ _____    ______ ____
DOCKED: ROOT
DOCKED: ATOM      1  N   UNL     1      35.766  18.043 123.747 -0.24 -0.00    +0.000 N 
DOCKED: ATOM      2  H   UNL     1      36.028  18.964 124.098 -0.00 -0.00    +0.000 HD
DOCKED: ENDROOT
DOCKED: BRANCH   1   3
DOCKED: ATOM      3  C   UNL     1      37.016  17.537 123.122 -0.22 -0.00    +0.000 C 
DOCKED: BRANCH   3   7
DOCKED: ATOM      4  C   UNL     1      37.379  13.212 122.978 -0.51 -0.00    +0.000 A 
DOCKED: ATOM      5  C   UNL     1      36.118  13.825 122.940 -0.34 -0.00    +0.000 A 
DOCKED: ATOM      6  C   UNL     1      36.001  15.217 122.983 -0.34 -0.00    +0.000 A 
DOCKED: ATOM      7  C   UNL     1      37.142  16.026 123.095 -0.29 -0.00    +0.000 A 
DOCKED: ATOM      8  C   UNL     1      38.407  15.415 123.120 -0.25 -0.00    +0.000 A 
DOCKED: ATOM      9  C   UNL     1      38.526  14.023 123.076 -0.35 -0.00    +0.000 A 
DOCKED: ATOM     10  CM  UNL     1      37.261  14.619 123.032 +0.00 -0.00    +0.000 AC
DOCKED: BRANCH   4  11
DOCKED: ATOM     11  C   UNL     1      36.696  10.967 122.135 -0.63 -0.00    +0.000 C 
DOCKED: ATOM     12  C   UNL     1      37.449  11.729 122.941 -0.40 -0.00    +0.000 C 
DOCKED: BRANCH  10  13
DOCKED: ATOM     13  O   UNL     1      36.686   8.843 121.059 -2.61 -0.00    +0.000 OA
DOCKED: ATOM     14  C   UNL     1      36.788   9.494 122.135 -0.68 -0.00    +0.000 C 
DOCKED: ATOM     15  N   UNL     1      36.992   8.797 123.365 -0.64 -0.00    +0.000 N 
DOCKED: ATOM     16  O   UNL     1      37.078   7.445 123.382 -2.47 -0.00    +0.000 OA
DOCKED: ATOM     17  H   UNL     1      37.071   9.302 124.207 -0.59 -0.00    +0.000 HD
DOCKED: ENDBRANCH  10  13
DOCKED: ENDBRANCH   4  11
DOCKED: ENDBRANCH   3   7
DOCKED: ENDBRANCH   1   3
DOCKED: BRANCH   1  17
DOCKED: ATOM     18  C   UNL     1      35.327  17.304 124.954 -0.34 -0.00    +0.000 C 
DOCKED: BRANCH  17  18
DOCKED: ATOM     19  C   UNL     1      33.997  16.582 124.720 -0.42 -0.00    +0.000 C 
DOCKED: BRANCH  18  19
DOCKED: ATOM     20  O   UNL     1      33.692  15.777 125.825 -0.88 -0.00    +0.000 OA
DOCKED: ATOM     21  H   UNL     1      32.780  15.947 126.107 -0.17 -0.00    +0.000 HD
DOCKED: ENDBRANCH  18  19
DOCKED: ENDBRANCH  17  18
DOCKED: ENDBRANCH   1  17
DOCKED: BRANCH   1  21
DOCKED: ATOM     22  C   UNL     1      34.669  18.269 122.777 -0.24 -0.00    +0.000 C 
DOCKED: BRANCH  21  22
DOCKED: ATOM     23  C   UNL     1      35.200  18.966 121.520 -0.21 -0.00    +0.000 C 
DOCKED: BRANCH  22  23
DOCKED: ATOM     24  C   UNL     1      34.855  18.182 120.286 -0.25 -0.00    +0.000 A 
DOCKED: ATOM     25  C   UNL     1      33.727  18.352 119.492 -0.26 -0.00    +0.000 A 
DOCKED: ATOM     26  N   UNL     1      33.802  17.572 118.389 -0.15 -0.00    +0.000 N 
DOCKED: ATOM     27  C   UNL     1      34.976  16.923 118.474 +0.01 -0.00    +0.000 A 
DOCKED: ATOM     28  C   UNL     1      35.651  17.271 119.616 -0.14 -0.00    +0.000 A 
DOCKED: ATOM     29  C   UNL     1      36.913  16.752 119.910 -0.13 -0.00    +0.000 A 
DOCKED: ATOM     30  C   UNL     1      37.481  15.850 118.993 -0.16 -0.00    +0.000 A 
DOCKED: ATOM     31  C   UNL     1      36.787  15.491 117.817 -0.18 -0.00    +0.000 A 
DOCKED: ATOM     32  C   UNL     1      35.518  16.033 117.546 -0.16 -0.00    +0.000 A 
DOCKED: ATOM     33  H   UNL     1      33.134  17.495 117.671 -0.01 -0.00    +0.000 HD
DOCKED: ATOM     34  CM  UNL     1      34.577  17.658 119.223 +0.00 -0.00    +0.000 AC
DOCKED: ATOM     35  CM  UNL     1      36.220  16.387 118.726 +0.00 -0.00    +0.000 AC
DOCKED: ENDBRANCH  22  23
DOCKED: ENDBRANCH  21  22
DOCKED: ENDBRANCH   1  21
DOCKED: TORSDOF 10DOCKED: TER
DOCKED: ENDMDL
________________________________________________________________________________


	BEGINNING GENETIC ALGORITHM DOCKING 94 of 100
Run: 94 Seed: 1125580954 1053414327 [ Run 94 of 100 GA/GALS ]
Beginning LAMARCKIAN GENETIC ALGORITHM (LGA), with a maximum of 2500000 energy evaluations.

Final-Value: -18.145


	FINAL GENETIC ALGORITHM DOCKED STATE
	_______________________________________________


Detailed state:  trans 35.670 18.727 123.234 quatxyzw 0.402432 -0.353030 -0.729602 0.425558 center 0.288 0.007 -0.056 ntor 10 -38.8559 -30.4556 -6.0295 176.3105 -36.1149 167.7463 -136.8509 1.7376 -19.5929 155.0956
State:	 35.670  18.727 123.234   0.445 -0.390 -0.806 129.628    -38.86  -30.46   -6.03  176.31  -36.11  167.75 -136.85    1.74  -19.59  155.10

DOCKED: MODEL       94
DOCKED: USER    Run = 94
DOCKED: USER    DPF = ligand_dock.biased.dpf
DOCKED: USER  
DOCKED: USER    Estimated Free Energy of Binding    =  -12.55 kcal/mol  [=(1)+(2)+(3)-(4)]
DOCKED: USER    Estimated Inhibition Constant, Ki   =  628.06 pM (picomolar)  [Temperature = 298.15 K]
DOCKED: USER    
DOCKED: USER    (1) Final Intermolecular Energy     =  -15.54 kcal/mol
DOCKED: USER        vdW + Hbond + desolv Energy     =  -15.54 kcal/mol
DOCKED: USER        Electrostatic Energy            =   +0.00 kcal/mol
DOCKED: USER    (2) Final Total Internal Energy     =   -2.61 kcal/mol
DOCKED: USER    (3) Torsional Free Energy           =   +2.98 kcal/mol
DOCKED: USER    (4) Unbound System's Energy  [=(2)] =   -2.61 kcal/mol
DOCKED: USER    
DOCKED: USER    
DOCKED: USER    NEWDPF move ligand.dum.pdbqt
DOCKED: USER    NEWDPF about 0.288000 0.007000 -0.056000
DOCKED: USER    NEWDPF tran0 35.670267 18.726927 123.234138
DOCKED: USER    NEWDPF quaternion0 0.402432 -0.353030 -0.729602 0.425558
DOCKED: USER    NEWDPF axisangle0 0.444710 -0.390118 -0.806251 129.628067
DOCKED: USER    NEWDPF quat0 0.444710 -0.390118 -0.806251 129.628067
DOCKED: USER    NEWDPF dihe0 -38.86 -30.46 -6.03 176.31 -36.11 167.75 -136.85 1.74 -19.59 155.10 
DOCKED: USER  keepresnum = 1 
DOCKED: USER  
DOCKED: REMARK  Name = 
DOCKED: REMARK  10 active torsions:
DOCKED: REMARK  status: ('A' for Active; 'I' for Inactive)
DOCKED: REMARK    1  A    between atoms: C_2  and  C_5
DOCKED: REMARK    2  A    between atoms: C_6  and  C_7
DOCKED: REMARK    3  A    between atoms: C_10  and  C_11
DOCKED: REMARK    4  A    between atoms: C_11  and  N_12
DOCKED: REMARK    5  A    between atoms: N_12  and  C_13
DOCKED: REMARK    6  A    between atoms: N_12  and  C_16
DOCKED: REMARK    7  A    between atoms: C_13  and  C_14
DOCKED: REMARK    8  A    between atoms: C_14  and  O_15
DOCKED: REMARK    9  A    between atoms: C_16  and  C_17
DOCKED: REMARK   10  A    between atoms: C_17  and  C_18
DOCKED: REMARK                            x       y       z     vdW  Elec       q    Type
DOCKED: REMARK                         _______ _______ _______ _____ _____    ______ ____
DOCKED: USER                              x       y       z     vdW  Elec       q    Type
DOCKED: USER                           _______ _______ _______ _____ _____    ______ ____
DOCKED: ROOT
DOCKED: ATOM      1  N   UNL     1      36.354  18.408 124.336 -0.20 -0.00    +0.000 N 
DOCKED: ATOM      2  H   UNL     1      36.406  17.730 125.095 -0.01 -0.00    +0.000 HD
DOCKED: ENDROOT
DOCKED: BRANCH   1   3
DOCKED: ATOM      3  C   UNL     1      35.662  17.667 123.250 -0.30 -0.00    +0.000 C 
DOCKED: BRANCH   3   7
DOCKED: ATOM      4  C   UNL     1      36.368  13.383 123.165 -0.51 -0.00    +0.000 A 
DOCKED: ATOM      5  C   UNL     1      35.253  13.911 123.832 -0.30 -0.00    +0.000 A 
DOCKED: ATOM      6  C   UNL     1      35.024  15.289 123.857 -0.51 -0.00    +0.000 A 
DOCKED: ATOM      7  C   UNL     1      35.922  16.173 123.239 -0.34 -0.00    +0.000 A 
DOCKED: ATOM      8  C   UNL     1      37.032  15.647 122.559 -0.29 -0.00    +0.000 A 
DOCKED: ATOM      9  C   UNL     1      37.263  14.268 122.532 -0.41 -0.00    +0.000 A 
DOCKED: ATOM     10  CM  UNL     1      36.143  14.778 123.197 +0.00 -0.00    +0.000 AC
DOCKED: BRANCH   4  11
DOCKED: ATOM     11  C   UNL     1      36.678  11.165 122.068 -0.63 -0.00    +0.000 C 
DOCKED: ATOM     12  C   UNL     1      36.573  11.912 123.177 -0.68 -0.00    +0.000 C 
DOCKED: BRANCH  10  13
DOCKED: ATOM     13  O   UNL     1      36.874   9.015 121.065 -2.66 -0.00    +0.000 OA
DOCKED: ATOM     14  C   UNL     1      36.871   9.703 122.122 -0.64 -0.00    +0.000 C 
DOCKED: ATOM     15  N   UNL     1      37.055   9.058 123.384 -0.60 -0.00    +0.000 N 
DOCKED: ATOM     16  O   UNL     1      37.233   7.717 123.451 -2.65 -0.00    +0.000 OA
DOCKED: ATOM     17  H   UNL     1      37.054   9.593 124.212 -0.58 -0.00    +0.000 HD
DOCKED: ENDBRANCH  10  13
DOCKED: ENDBRANCH   4  11
DOCKED: ENDBRANCH   3   7
DOCKED: ENDBRANCH   1   3
DOCKED: BRANCH   1  17
DOCKED: ATOM     18  C   UNL     1      35.588  19.539 124.909 -0.21 -0.00    +0.000 C 
DOCKED: BRANCH  17  18
DOCKED: ATOM     19  C   UNL     1      34.315  19.060 125.612 -0.28 -0.00    +0.000 C 
DOCKED: BRANCH  18  19
DOCKED: ATOM     20  O   UNL     1      34.468  17.727 126.016 -0.36 -0.00    +0.000 OA
DOCKED: ATOM     21  H   UNL     1      34.037  17.143 125.373 -0.01 -0.00    +0.000 HD
DOCKED: ENDBRANCH  18  19
DOCKED: ENDBRANCH  17  18
DOCKED: ENDBRANCH   1  17
DOCKED: BRANCH   1  21
DOCKED: ATOM     22  C   UNL     1      37.754  18.767 124.008 -0.16 -0.00    +0.000 C 
DOCKED: BRANCH  21  22
DOCKED: ATOM     23  C   UNL     1      38.731  17.898 124.808 -0.16 -0.00    +0.000 C 
DOCKED: BRANCH  22  23
DOCKED: ATOM     24  C   UNL     1      40.101  17.929 124.194 -0.25 -0.00    +0.000 A 
DOCKED: ATOM     25  C   UNL     1      41.093  18.873 124.441 -0.21 -0.00    +0.000 A 
DOCKED: ATOM     26  N   UNL     1      42.244  18.522 123.826 -0.16 -0.00    +0.000 N 
DOCKED: ATOM     27  C   UNL     1      41.993  17.356 123.205 -0.31 -0.00    +0.000 A 
DOCKED: ATOM     28  C   UNL     1      40.696  16.958 123.410 -0.27 -0.00    +0.000 A 
DOCKED: ATOM     29  C   UNL     1      40.206  15.759 122.892 -0.23 -0.00    +0.000 A 
DOCKED: ATOM     30  C   UNL     1      41.088  14.958 122.144 -0.41 -0.00    +0.000 A 
DOCKED: ATOM     31  C   UNL     1      42.423  15.367 121.933 -0.33 -0.00    +0.000 A 
DOCKED: ATOM     32  C   UNL     1      42.890  16.580 122.471 -0.36 -0.00    +0.000 A 
DOCKED: ATOM     33  H   UNL     1      43.094  19.018 123.831 -0.50 -0.00    +0.000 HD
DOCKED: ATOM     34  CM  UNL     1      41.259  17.946 123.816 +0.00 -0.00    +0.000 AC
DOCKED: ATOM     35  CM  UNL     1      41.549  16.163 122.676 +0.00 -0.00    +0.000 AC
DOCKED: ENDBRANCH  22  23
DOCKED: ENDBRANCH  21  22
DOCKED: ENDBRANCH   1  21
DOCKED: TORSDOF 10DOCKED: TER
DOCKED: ENDMDL
________________________________________________________________________________


	BEGINNING GENETIC ALGORITHM DOCKING 95 of 100
Run: 95 Seed: 128773142 684219507 [ Run 95 of 100 GA/GALS ]
Beginning LAMARCKIAN GENETIC ALGORITHM (LGA), with a maximum of 2500000 energy evaluations.

Final-Value: -16.019


	FINAL GENETIC ALGORITHM DOCKED STATE
	_______________________________________________


Detailed state:  trans 39.089 16.965 122.767 quatxyzw -0.452539 -0.281639 -0.809439 0.246368 center 0.288 0.007 -0.056 ntor 10 -33.5378 -92.9875 41.6027 144.1854 111.2668 145.3944 164.8894 60.9437 -16.4136 -165.8282
State:	 39.089  16.965 122.767  -0.467 -0.291 -0.835 151.475    -33.54  -92.99   41.60  144.19  111.27  145.39  164.89   60.94  -16.41 -165.83

DOCKED: MODEL       95
DOCKED: USER    Run = 95
DOCKED: USER    DPF = ligand_dock.biased.dpf
DOCKED: USER  
DOCKED: USER    Estimated Free Energy of Binding    =  -10.12 kcal/mol  [=(1)+(2)+(3)-(4)]
DOCKED: USER    Estimated Inhibition Constant, Ki   =   38.33 nM (nanomolar)  [Temperature = 298.15 K]
DOCKED: USER    
DOCKED: USER    (1) Final Intermolecular Energy     =  -13.10 kcal/mol
DOCKED: USER        vdW + Hbond + desolv Energy     =  -13.10 kcal/mol
DOCKED: USER        Electrostatic Energy            =   +0.00 kcal/mol
DOCKED: USER    (2) Final Total Internal Energy     =   -2.92 kcal/mol
DOCKED: USER    (3) Torsional Free Energy           =   +2.98 kcal/mol
DOCKED: USER    (4) Unbound System's Energy  [=(2)] =   -2.92 kcal/mol
DOCKED: USER    
DOCKED: USER    
DOCKED: USER    NEWDPF move ligand.dum.pdbqt
DOCKED: USER    NEWDPF about 0.288000 0.007000 -0.056000
DOCKED: USER    NEWDPF tran0 39.088787 16.965322 122.766898
DOCKED: USER    NEWDPF quaternion0 -0.452539 -0.281639 -0.809439 0.246368
DOCKED: USER    NEWDPF axisangle0 -0.466931 -0.290596 -0.835182 151.474595
DOCKED: USER    NEWDPF quat0 -0.466931 -0.290596 -0.835182 151.474595
DOCKED: USER    NEWDPF dihe0 -33.54 -92.99 41.60 144.19 111.27 145.39 164.89 60.94 -16.41 -165.83 
DOCKED: USER  keepresnum = 1 
DOCKED: USER  
DOCKED: REMARK  Name = 
DOCKED: REMARK  10 active torsions:
DOCKED: REMARK  status: ('A' for Active; 'I' for Inactive)
DOCKED: REMARK    1  A    between atoms: C_2  and  C_5
DOCKED: REMARK    2  A    between atoms: C_6  and  C_7
DOCKED: REMARK    3  A    between atoms: C_10  and  C_11
DOCKED: REMARK    4  A    between atoms: C_11  and  N_12
DOCKED: REMARK    5  A    between atoms: N_12  and  C_13
DOCKED: REMARK    6  A    between atoms: N_12  and  C_16
DOCKED: REMARK    7  A    between atoms: C_13  and  C_14
DOCKED: REMARK    8  A    between atoms: C_14  and  O_15
DOCKED: REMARK    9  A    between atoms: C_16  and  C_17
DOCKED: REMARK   10  A    between atoms: C_17  and  C_18
DOCKED: REMARK                            x       y       z     vdW  Elec       q    Type
DOCKED: REMARK                         _______ _______ _______ _____ _____    ______ ____
DOCKED: USER                              x       y       z     vdW  Elec       q    Type
DOCKED: USER                           _______ _______ _______ _____ _____    ______ ____
DOCKED: ROOT
DOCKED: ATOM      1  N   UNL     1      39.743  16.335 121.788 -0.19 -0.00    +0.000 N 
DOCKED: ATOM      2  H   UNL     1      39.886  15.420 121.361 -0.00 -0.00    +0.000 HD
DOCKED: ENDROOT
DOCKED: BRANCH   1   3
DOCKED: ATOM      3  C   UNL     1      38.416  16.211 122.446 -0.26 -0.00    +0.000 C 
DOCKED: BRANCH   3   7
DOCKED: ATOM      4  C   UNL     1      36.714  12.216 122.414 -0.54 -0.00    +0.000 A 
DOCKED: ATOM      5  C   UNL     1      36.369  13.132 123.419 -0.55 -0.00    +0.000 A 
DOCKED: ATOM      6  C   UNL     1      36.914  14.419 123.428 -0.42 -0.00    +0.000 A 
DOCKED: ATOM      7  C   UNL     1      37.840  14.809 122.447 -0.36 -0.00    +0.000 A 
DOCKED: ATOM      8  C   UNL     1      38.177  13.898 121.432 -0.37 -0.00    +0.000 A 
DOCKED: ATOM      9  C   UNL     1      37.632  12.611 121.421 -0.42 -0.00    +0.000 A 
DOCKED: ATOM     10  CM  UNL     1      37.274  13.514 122.427 +0.00 -0.00    +0.000 AC
DOCKED: BRANCH   4  11
DOCKED: ATOM     11  C   UNL     1      36.664   9.821 123.105 -0.65 -0.00    +0.000 C 
DOCKED: ATOM     12  C   UNL     1      36.115  10.858 122.455 -0.67 -0.00    +0.000 C 
DOCKED: BRANCH  10  13
DOCKED: ATOM     13  O   UNL     1      36.754   7.442 123.070 -2.22 -0.00    +0.000 OA
DOCKED: ATOM     14  C   UNL     1      36.042   8.482 123.113 -0.71 -0.00    +0.000 C 
DOCKED: ATOM     15  N   UNL     1      34.619   8.362 123.169 -0.62 -0.00    +0.000 N 
DOCKED: ATOM     16  O   UNL     1      34.033   7.141 123.178 -0.75 -0.00    +0.000 OA
DOCKED: ATOM     17  H   UNL     1      34.060   9.172 123.203 -0.46 -0.00    +0.000 HD
DOCKED: ENDBRANCH  10  13
DOCKED: ENDBRANCH   4  11
DOCKED: ENDBRANCH   3   7
DOCKED: ENDBRANCH   1   3
DOCKED: BRANCH   1  17
DOCKED: ATOM     18  C   UNL     1      40.889  16.489 122.714 -0.34 -0.00    +0.000 C 
DOCKED: BRANCH  17  18
DOCKED: ATOM     19  C   UNL     1      41.803  15.261 122.691 -0.55 -0.00    +0.000 C 
DOCKED: BRANCH  18  19
DOCKED: ATOM     20  O   UNL     1      41.032  14.096 122.577 -1.07 +0.00    +0.000 OA
DOCKED: ATOM     21  H   UNL     1      40.854  13.740 123.461 -0.08 -0.00    +0.000 HD
DOCKED: ENDBRANCH  18  19
DOCKED: ENDBRANCH  17  18
DOCKED: ENDBRANCH   1  17
DOCKED: BRANCH   1  21
DOCKED: ATOM     22  C   UNL     1      39.763  17.316 120.677 -0.10 -0.00    +0.000 C 
DOCKED: BRANCH  21  22
DOCKED: ATOM     23  C   UNL     1      39.760  16.595 119.325 -0.12 -0.00    +0.000 C 
DOCKED: BRANCH  22  23
DOCKED: ATOM     24  C   UNL     1      38.403  16.656 118.687 -0.09 -0.00    +0.000 A 
DOCKED: ATOM     25  C   UNL     1      37.744  17.806 118.264 -0.04 -0.00    +0.000 A 
DOCKED: ATOM     26  N   UNL     1      36.602  17.485 117.614 -0.07 -0.00    +0.000 N 
DOCKED: ATOM     27  C   UNL     1      36.543  16.142 117.609 -0.13 -0.00    +0.000 A 
DOCKED: ATOM     28  C   UNL     1      37.626  15.599 118.252 -0.16 -0.00    +0.000 A 
DOCKED: ATOM     29  C   UNL     1      37.806  14.218 118.348 -0.27 -0.00    +0.000 A 
DOCKED: ATOM     30  C   UNL     1      36.834  13.387 117.762 -0.35 -0.00    +0.000 A 
DOCKED: ATOM     31  C   UNL     1      35.718  13.946 117.101 -0.31 -0.00    +0.000 A 
DOCKED: ATOM     32  C   UNL     1      35.566  15.342 117.017 -0.21 -0.00    +0.000 A 
DOCKED: ATOM     33  H   UNL     1      35.947  18.107 117.223 +0.00 -0.00    +0.000 HD
DOCKED: ATOM     34  CM  UNL     1      37.359  16.761 118.070 +0.00 -0.00    +0.000 AC
DOCKED: ATOM     35  CM  UNL     1      36.682  14.773 117.682 +0.00 -0.00    +0.000 AC
DOCKED: ENDBRANCH  22  23
DOCKED: ENDBRANCH  21  22
DOCKED: ENDBRANCH   1  21
DOCKED: TORSDOF 10DOCKED: TER
DOCKED: ENDMDL
________________________________________________________________________________


	BEGINNING GENETIC ALGORITHM DOCKING 96 of 100
Run: 96 Seed: 1388740703 912274516 [ Run 96 of 100 GA/GALS ]
Beginning LAMARCKIAN GENETIC ALGORITHM (LGA), with a maximum of 2500000 energy evaluations.

Final-Value: -17.043


	FINAL GENETIC ALGORITHM DOCKED STATE
	_______________________________________________


Detailed state:  trans 37.502 18.248 124.070 quatxyzw 0.342786 0.297703 0.882535 -0.122483 center 0.288 0.007 -0.056 ntor 10 120.5379 -102.5412 63.6514 -178.6859 144.8055 -52.3145 120.4893 -101.4296 -56.1619 -163.4560
State:	 37.502  18.248 124.070   0.345  0.300  0.889 -165.929    120.54 -102.54   63.65 -178.69  144.81  -52.31  120.49 -101.43  -56.16 -163.46

DOCKED: MODEL       96
DOCKED: USER    Run = 96
DOCKED: USER    DPF = ligand_dock.biased.dpf
DOCKED: USER  
DOCKED: USER    Estimated Free Energy of Binding    =  -10.28 kcal/mol  [=(1)+(2)+(3)-(4)]
DOCKED: USER    Estimated Inhibition Constant, Ki   =   29.25 nM (nanomolar)  [Temperature = 298.15 K]
DOCKED: USER    
DOCKED: USER    (1) Final Intermolecular Energy     =  -13.26 kcal/mol
DOCKED: USER        vdW + Hbond + desolv Energy     =  -13.26 kcal/mol
DOCKED: USER        Electrostatic Energy            =   +0.00 kcal/mol
DOCKED: USER    (2) Final Total Internal Energy     =   -3.78 kcal/mol
DOCKED: USER    (3) Torsional Free Energy           =   +2.98 kcal/mol
DOCKED: USER    (4) Unbound System's Energy  [=(2)] =   -3.78 kcal/mol
DOCKED: USER    
DOCKED: USER    
DOCKED: USER    NEWDPF move ligand.dum.pdbqt
DOCKED: USER    NEWDPF about 0.288000 0.007000 -0.056000
DOCKED: USER    NEWDPF tran0 37.502154 18.248197 124.070140
DOCKED: USER    NEWDPF quaternion0 0.342786 0.297703 0.882535 -0.122483
DOCKED: USER    NEWDPF axisangle0 0.345387 0.299962 0.889231 -165.929171
DOCKED: USER    NEWDPF quat0 0.345387 0.299962 0.889231 -165.929171
DOCKED: USER    NEWDPF dihe0 120.54 -102.54 63.65 -178.69 144.81 -52.31 120.49 -101.43 -56.16 -163.46 
DOCKED: USER  keepresnum = 1 
DOCKED: USER  
DOCKED: REMARK  Name = 
DOCKED: REMARK  10 active torsions:
DOCKED: REMARK  status: ('A' for Active; 'I' for Inactive)
DOCKED: REMARK    1  A    between atoms: C_2  and  C_5
DOCKED: REMARK    2  A    between atoms: C_6  and  C_7
DOCKED: REMARK    3  A    between atoms: C_10  and  C_11
DOCKED: REMARK    4  A    between atoms: C_11  and  N_12
DOCKED: REMARK    5  A    between atoms: N_12  and  C_13
DOCKED: REMARK    6  A    between atoms: N_12  and  C_16
DOCKED: REMARK    7  A    between atoms: C_13  and  C_14
DOCKED: REMARK    8  A    between atoms: C_14  and  O_15
DOCKED: REMARK    9  A    between atoms: C_16  and  C_17
DOCKED: REMARK   10  A    between atoms: C_17  and  C_18
DOCKED: REMARK                            x       y       z     vdW  Elec       q    Type
DOCKED: REMARK                         _______ _______ _______ _____ _____    ______ ____
DOCKED: USER                              x       y       z     vdW  Elec       q    Type
DOCKED: USER                           _______ _______ _______ _____ _____    ______ ____
DOCKED: ROOT
DOCKED: ATOM      1  N   UNL     1      38.462  17.944 123.193 -0.15 -0.00    +0.000 N 
DOCKED: ATOM      2  H   UNL     1      38.948  17.161 122.756 +0.00 -0.00    +0.000 HD
DOCKED: ENDROOT
DOCKED: BRANCH   1   3
DOCKED: ATOM      3  C   UNL     1      37.157  17.362 123.603 -0.25 -0.00    +0.000 C 
DOCKED: BRANCH   3   7
DOCKED: ATOM      4  C   UNL     1      36.960  13.031 123.340 -0.54 -0.00    +0.000 A 
DOCKED: ATOM      5  C   UNL     1      38.050  13.731 122.802 -0.44 -0.00    +0.000 A 
DOCKED: ATOM      6  C   UNL     1      38.115  15.124 122.889 -0.34 -0.00    +0.000 A 
DOCKED: ATOM      7  C   UNL     1      37.077  15.852 123.491 -0.30 -0.00    +0.000 A 
DOCKED: ATOM      8  C   UNL     1      35.990  15.153 124.043 -0.40 -0.00    +0.000 A 
DOCKED: ATOM      9  C   UNL     1      35.924  13.758 123.958 -0.46 -0.00    +0.000 A 
DOCKED: ATOM     10  CM  UNL     1      37.020  14.441 123.420 +0.00 -0.00    +0.000 AC
DOCKED: BRANCH   4  11
DOCKED: ATOM     11  C   UNL     1      37.019  10.903 122.042 -0.55 -0.00    +0.000 C 
DOCKED: ATOM     12  C   UNL     1      36.933  11.552 123.213 -0.67 -0.00    +0.000 C 
DOCKED: BRANCH  10  13
DOCKED: ATOM     13  O   UNL     1      37.061   8.849 120.840 -2.72 -0.00    +0.000 OA
DOCKED: ATOM     14  C   UNL     1      36.977   9.430 121.956 -0.64 -0.00    +0.000 C 
DOCKED: ATOM     15  N   UNL     1      36.839   8.654 123.148 -0.69 -0.00    +0.000 N 
DOCKED: ATOM     16  O   UNL     1      36.799   7.302 123.086 -2.16 -0.00    +0.000 OA
DOCKED: ATOM     17  H   UNL     1      36.773   9.105 124.021 -0.47 -0.00    +0.000 HD
DOCKED: ENDBRANCH  10  13
DOCKED: ENDBRANCH   4  11
DOCKED: ENDBRANCH   3   7
DOCKED: ENDBRANCH   1   3
DOCKED: BRANCH   1  17
DOCKED: ATOM     18  C   UNL     1      39.347  18.345 124.311 -0.21 -0.00    +0.000 C 
DOCKED: BRANCH  17  18
DOCKED: ATOM     19  C   UNL     1      40.785  17.869 124.091 -0.31 -0.00    +0.000 C 
DOCKED: BRANCH  18  19
DOCKED: ATOM     20  O   UNL     1      40.788  16.520 123.713 -0.59 -0.00    +0.000 OA
DOCKED: ATOM     21  H   UNL     1      40.290  16.415 122.887 -0.01 -0.00    +0.000 HD
DOCKED: ENDBRANCH  18  19
DOCKED: ENDBRANCH  17  18
DOCKED: ENDBRANCH   1  17
DOCKED: BRANCH   1  21
DOCKED: ATOM     22  C   UNL     1      38.342  18.989 122.149 -0.08 -0.00    +0.000 C 
DOCKED: BRANCH  21  22
DOCKED: ATOM     23  C   UNL     1      39.525  18.916 121.178 -0.04 -0.00    +0.000 C 
DOCKED: BRANCH  22  23
DOCKED: ATOM     24  C   UNL     1      39.588  17.573 120.510 -0.06 -0.00    +0.000 A 
DOCKED: ATOM     25  C   UNL     1      40.725  16.788 120.346 -0.12 -0.00    +0.000 A 
DOCKED: ATOM     26  N   UNL     1      40.397  15.584 119.824 -0.16 -0.00    +0.000 N 
DOCKED: ATOM     27  C   UNL     1      39.062  15.596 119.672 -0.16 -0.00    +0.000 A 
DOCKED: ATOM     28  C   UNL     1      38.530  16.792 120.083 -0.09 -0.00    +0.000 A 
DOCKED: ATOM     29  C   UNL     1      37.156  17.033 120.053 -0.12 -0.00    +0.000 A 
DOCKED: ATOM     30  C   UNL     1      36.319  16.005 119.582 -0.12 -0.00    +0.000 A 
DOCKED: ATOM     31  C   UNL     1      36.866  14.774 119.159 -0.23 -0.00    +0.000 A 
DOCKED: ATOM     32  C   UNL     1      38.256  14.559 119.204 -0.19 -0.00    +0.000 A 
DOCKED: ATOM     33  H   UNL     1      41.011  14.848 119.601 +0.00 -0.00    +0.000 HD
DOCKED: ATOM     34  CM  UNL     1      39.684  16.438 120.079 +0.00 -0.00    +0.000 AC
DOCKED: ATOM     35  CM  UNL     1      37.699  15.794 119.625 +0.00 -0.00    +0.000 AC
DOCKED: ENDBRANCH  22  23
DOCKED: ENDBRANCH  21  22
DOCKED: ENDBRANCH   1  21
DOCKED: TORSDOF 10DOCKED: TER
DOCKED: ENDMDL
________________________________________________________________________________


	BEGINNING GENETIC ALGORITHM DOCKING 97 of 100
Run: 97 Seed: 2144817904 327478664 [ Run 97 of 100 GA/GALS ]
Beginning LAMARCKIAN GENETIC ALGORITHM (LGA), with a maximum of 2500000 energy evaluations.

Final-Value: -15.742


	FINAL GENETIC ALGORITHM DOCKED STATE
	_______________________________________________


Detailed state:  trans 35.136 18.220 124.192 quatxyzw -0.355928 -0.018023 0.929199 -0.097870 center 0.288 0.007 -0.056 ntor 10 -112.8759 -159.2224 -99.9763 -177.3489 122.8199 -154.4418 -152.1170 174.8798 120.1258 -134.3027
State:	 35.136  18.220 124.192  -0.358 -0.018  0.934 -168.767   -112.88 -159.22  -99.98 -177.35  122.82 -154.44 -152.12  174.88  120.13 -134.30

DOCKED: MODEL       97
DOCKED: USER    Run = 97
DOCKED: USER    DPF = ligand_dock.biased.dpf
DOCKED: USER  
DOCKED: USER    Estimated Free Energy of Binding    =  -11.04 kcal/mol  [=(1)+(2)+(3)-(4)]
DOCKED: USER    Estimated Inhibition Constant, Ki   =    8.02 nM (nanomolar)  [Temperature = 298.15 K]
DOCKED: USER    
DOCKED: USER    (1) Final Intermolecular Energy     =  -14.03 kcal/mol
DOCKED: USER        vdW + Hbond + desolv Energy     =  -14.03 kcal/mol
DOCKED: USER        Electrostatic Energy            =   +0.00 kcal/mol
DOCKED: USER    (2) Final Total Internal Energy     =   -1.71 kcal/mol
DOCKED: USER    (3) Torsional Free Energy           =   +2.98 kcal/mol
DOCKED: USER    (4) Unbound System's Energy  [=(2)] =   -1.71 kcal/mol
DOCKED: USER    
DOCKED: USER    
DOCKED: USER    NEWDPF move ligand.dum.pdbqt
DOCKED: USER    NEWDPF about 0.288000 0.007000 -0.056000
DOCKED: USER    NEWDPF tran0 35.135536 18.219826 124.191787
DOCKED: USER    NEWDPF quaternion0 -0.355928 -0.018023 0.929199 -0.097870
DOCKED: USER    NEWDPF axisangle0 -0.357645 -0.018110 0.933682 -168.766892
DOCKED: USER    NEWDPF quat0 -0.357645 -0.018110 0.933682 -168.766892
DOCKED: USER    NEWDPF dihe0 -112.88 -159.22 -99.98 -177.35 122.82 -154.44 -152.12 174.88 120.13 -134.30 
DOCKED: USER  keepresnum = 1 
DOCKED: USER  
DOCKED: REMARK  Name = 
DOCKED: REMARK  10 active torsions:
DOCKED: REMARK  status: ('A' for Active; 'I' for Inactive)
DOCKED: REMARK    1  A    between atoms: C_2  and  C_5
DOCKED: REMARK    2  A    between atoms: C_6  and  C_7
DOCKED: REMARK    3  A    between atoms: C_10  and  C_11
DOCKED: REMARK    4  A    between atoms: C_11  and  N_12
DOCKED: REMARK    5  A    between atoms: N_12  and  C_13
DOCKED: REMARK    6  A    between atoms: N_12  and  C_16
DOCKED: REMARK    7  A    between atoms: C_13  and  C_14
DOCKED: REMARK    8  A    between atoms: C_14  and  O_15
DOCKED: REMARK    9  A    between atoms: C_16  and  C_17
DOCKED: REMARK   10  A    between atoms: C_17  and  C_18
DOCKED: REMARK                            x       y       z     vdW  Elec       q    Type
DOCKED: REMARK                         _______ _______ _______ _____ _____    ______ ____
DOCKED: USER                              x       y       z     vdW  Elec       q    Type
DOCKED: USER                           _______ _______ _______ _____ _____    ______ ____
DOCKED: ROOT
DOCKED: ATOM      1  N   UNL     1      36.132  18.266 125.079 -0.22 -0.00    +0.000 N 
DOCKED: ATOM      2  H   UNL     1      36.923  17.736 125.444 -0.02 -0.00    +0.000 HD
DOCKED: ENDROOT
DOCKED: BRANCH   1   3
DOCKED: ATOM      3  C   UNL     1      35.930  17.702 123.719 -0.29 -0.00    +0.000 C 
DOCKED: BRANCH   3   7
DOCKED: ATOM      4  C   UNL     1      36.446  13.394 123.515 -0.53 -0.00    +0.000 A 
DOCKED: ATOM      5  C   UNL     1      37.522  14.257 123.254 -0.40 -0.00    +0.000 A 
DOCKED: ATOM      6  C   UNL     1      37.356  15.642 123.322 -0.31 -0.00    +0.000 A 
DOCKED: ATOM      7  C   UNL     1      36.104  16.198 123.626 -0.34 -0.00    +0.000 A 
DOCKED: ATOM      8  C   UNL     1      35.028  15.338 123.900 -0.51 -0.00    +0.000 A 
DOCKED: ATOM      9  C   UNL     1      35.192  13.951 123.833 -0.30 -0.00    +0.000 A 
DOCKED: ATOM     10  CM  UNL     1      36.275  14.796 123.575 +0.00 -0.00    +0.000 AC
DOCKED: BRANCH   4  11
DOCKED: ATOM     11  C   UNL     1      36.729  11.260 122.259 -0.63 -0.00    +0.000 C 
DOCKED: ATOM     12  C   UNL     1      36.670  11.930 123.419 -0.69 -0.00    +0.000 C 
DOCKED: BRANCH  10  13
DOCKED: ATOM     13  O   UNL     1      37.019   9.201 121.098 -2.72 -0.00    +0.000 OA
DOCKED: ATOM     14  C   UNL     1      36.943   9.800 122.205 -0.62 -0.00    +0.000 C 
DOCKED: ATOM     15  N   UNL     1      37.064   9.056 123.420 -0.59 -0.00    +0.000 N 
DOCKED: ATOM     16  O   UNL     1      37.261   7.717 123.388 -2.61 -0.00    +0.000 OA
DOCKED: ATOM     17  H   UNL     1      37.005   9.521 124.286 -0.53 -0.00    +0.000 HD
DOCKED: ENDBRANCH  10  13
DOCKED: ENDBRANCH   4  11
DOCKED: ENDBRANCH   3   7
DOCKED: ENDBRANCH   1   3
DOCKED: BRANCH   1  17
DOCKED: ATOM     18  C   UNL     1      35.037  17.994 126.038 -0.25 -0.00    +0.000 C 
DOCKED: BRANCH  17  18
DOCKED: ATOM     19  C   UNL     1      33.687  17.857 125.329 -0.38 -0.00    +0.000 C 
DOCKED: BRANCH  18  19
DOCKED: ATOM     20  O   UNL     1      32.925  19.015 125.528 -0.32 -0.00    +0.000 OA
DOCKED: ATOM     21  H   UNL     1      32.033  18.880 125.170 -0.33 -0.00    +0.000 HD
DOCKED: ENDBRANCH  18  19
DOCKED: ENDBRANCH  17  18
DOCKED: ENDBRANCH   1  17
DOCKED: BRANCH   1  21
DOCKED: ATOM     22  C   UNL     1      36.555  19.686 125.074 -0.16 -0.00    +0.000 C 
DOCKED: BRANCH  21  22
DOCKED: ATOM     23  C   UNL     1      35.943  20.424 123.879 -0.17 -0.00    +0.000 C 
DOCKED: BRANCH  22  23
DOCKED: ATOM     24  C   UNL     1      35.650  21.855 124.225 -0.14 -0.00    +0.000 A 
DOCKED: ATOM     25  C   UNL     1      36.118  22.977 123.549 -0.13 -0.00    +0.000 A 
DOCKED: ATOM     26  N   UNL     1      35.551  24.100 124.047 -0.11 -0.00    +0.000 N 
DOCKED: ATOM     27  C   UNL     1      34.718  23.694 125.021 -0.14 -0.00    +0.000 A 
DOCKED: ATOM     28  C   UNL     1      34.747  22.330 125.158 -0.15 -0.00    +0.000 A 
DOCKED: ATOM     29  C   UNL     1      33.940  21.667 126.084 -0.16 -0.00    +0.000 A 
DOCKED: ATOM     30  C   UNL     1      33.086  22.446 126.885 -0.13 -0.00    +0.000 A 
DOCKED: ATOM     31  C   UNL     1      33.056  23.851 126.745 -0.09 -0.00    +0.000 A 
DOCKED: ATOM     32  C   UNL     1      33.878  24.490 125.800 -0.09 -0.00    +0.000 A 
DOCKED: ATOM     33  H   UNL     1      35.715  25.026 123.756 -0.00 -0.00    +0.000 HD
DOCKED: ATOM     34  CM  UNL     1      35.363  23.027 124.388 +0.00 -0.00    +0.000 AC
DOCKED: ATOM     35  CM  UNL     1      33.905  23.080 125.948 +0.00 -0.00    +0.000 AC
DOCKED: ENDBRANCH  22  23
DOCKED: ENDBRANCH  21  22
DOCKED: ENDBRANCH   1  21
DOCKED: TORSDOF 10DOCKED: TER
DOCKED: ENDMDL
________________________________________________________________________________


	BEGINNING GENETIC ALGORITHM DOCKING 98 of 100
Run: 98 Seed: 1957909245 1053634192 [ Run 98 of 100 GA/GALS ]
Beginning LAMARCKIAN GENETIC ALGORITHM (LGA), with a maximum of 2500000 energy evaluations.

Final-Value: -15.317


	FINAL GENETIC ALGORITHM DOCKED STATE
	_______________________________________________


Detailed state:  trans 36.649 17.143 122.024 quatxyzw -0.103792 -0.002124 -0.483886 -0.868952 center 0.288 0.007 -0.056 ntor 10 142.2484 -148.1960 178.6135 -18.0041 55.1474 43.7962 138.9362 30.6112 -34.7110 29.4266
State:	 36.649  17.143 122.024  -0.210 -0.004 -0.978 -59.326    142.25 -148.20  178.61  -18.00   55.15   43.80  138.94   30.61  -34.71   29.43

DOCKED: MODEL       98
DOCKED: USER    Run = 98
DOCKED: USER    DPF = ligand_dock.biased.dpf
DOCKED: USER  
DOCKED: USER    Estimated Free Energy of Binding    =  -10.60 kcal/mol  [=(1)+(2)+(3)-(4)]
DOCKED: USER    Estimated Inhibition Constant, Ki   =   17.00 nM (nanomolar)  [Temperature = 298.15 K]
DOCKED: USER    
DOCKED: USER    (1) Final Intermolecular Energy     =  -13.58 kcal/mol
DOCKED: USER        vdW + Hbond + desolv Energy     =  -13.58 kcal/mol
DOCKED: USER        Electrostatic Energy            =   +0.00 kcal/mol
DOCKED: USER    (2) Final Total Internal Energy     =   -1.73 kcal/mol
DOCKED: USER    (3) Torsional Free Energy           =   +2.98 kcal/mol
DOCKED: USER    (4) Unbound System's Energy  [=(2)] =   -1.73 kcal/mol
DOCKED: USER    
DOCKED: USER    
DOCKED: USER    NEWDPF move ligand.dum.pdbqt
DOCKED: USER    NEWDPF about 0.288000 0.007000 -0.056000
DOCKED: USER    NEWDPF tran0 36.648882 17.142781 122.023530
DOCKED: USER    NEWDPF quaternion0 -0.103792 -0.002124 -0.483886 -0.868952
DOCKED: USER    NEWDPF axisangle0 -0.209724 -0.004292 -0.977751 -59.325840
DOCKED: USER    NEWDPF quat0 -0.209724 -0.004292 -0.977751 -59.325840
DOCKED: USER    NEWDPF dihe0 142.25 -148.20 178.61 -18.00 55.15 43.80 138.94 30.61 -34.71 29.43 
DOCKED: USER  keepresnum = 1 
DOCKED: USER  
DOCKED: REMARK  Name = 
DOCKED: REMARK  10 active torsions:
DOCKED: REMARK  status: ('A' for Active; 'I' for Inactive)
DOCKED: REMARK    1  A    between atoms: C_2  and  C_5
DOCKED: REMARK    2  A    between atoms: C_6  and  C_7
DOCKED: REMARK    3  A    between atoms: C_10  and  C_11
DOCKED: REMARK    4  A    between atoms: C_11  and  N_12
DOCKED: REMARK    5  A    between atoms: N_12  and  C_13
DOCKED: REMARK    6  A    between atoms: N_12  and  C_16
DOCKED: REMARK    7  A    between atoms: C_13  and  C_14
DOCKED: REMARK    8  A    between atoms: C_14  and  O_15
DOCKED: REMARK    9  A    between atoms: C_16  and  C_17
DOCKED: REMARK   10  A    between atoms: C_17  and  C_18
DOCKED: REMARK                            x       y       z     vdW  Elec       q    Type
DOCKED: REMARK                         _______ _______ _______ _____ _____    ______ ____
DOCKED: USER                              x       y       z     vdW  Elec       q    Type
DOCKED: USER                           _______ _______ _______ _____ _____    ______ ____
DOCKED: ROOT
DOCKED: ATOM      1  N   UNL     1      35.701  18.080 121.944 -0.23 -0.00    +0.000 N 
DOCKED: ATOM      2  H   UNL     1      35.479  18.980 121.519 -0.01 -0.00    +0.000 HD
DOCKED: ENDROOT
DOCKED: BRANCH   1   3
DOCKED: ATOM      3  C   UNL     1      36.721  17.503 121.029 -0.16 -0.00    +0.000 C 
DOCKED: BRANCH   3   7
DOCKED: ATOM      4  C   UNL     1      37.101  13.179 121.155 -0.41 -0.00    +0.000 A 
DOCKED: ATOM      5  C   UNL     1      36.814  13.836 119.950 -0.18 -0.00    +0.000 A 
DOCKED: ATOM      6  C   UNL     1      36.694  15.228 119.909 -0.13 -0.00    +0.000 A 
DOCKED: ATOM      7  C   UNL     1      36.832  15.992 121.079 -0.18 -0.00    +0.000 A 
DOCKED: ATOM      8  C   UNL     1      37.132  15.337 122.284 -0.30 -0.00    +0.000 A 
DOCKED: ATOM      9  C   UNL     1      37.253  13.945 122.328 -0.42 -0.00    +0.000 A 
DOCKED: ATOM     10  CM  UNL     1      36.971  14.586 121.117 +0.00 -0.00    +0.000 AC
DOCKED: BRANCH   4  11
DOCKED: ATOM     11  C   UNL     1      36.822  10.918 122.169 -0.61 -0.00    +0.000 C 
DOCKED: ATOM     12  C   UNL     1      37.207  11.698 121.148 -0.50 -0.00    +0.000 C 
DOCKED: BRANCH  10  13
DOCKED: ATOM     13  O   UNL     1      37.087   8.845 121.028 -2.68 -0.00    +0.000 OA
DOCKED: ATOM     14  C   UNL     1      36.953   9.449 122.128 -0.65 -0.00    +0.000 C 
DOCKED: ATOM     15  N   UNL     1      36.927   8.700 123.345 -0.65 -0.00    +0.000 N 
DOCKED: ATOM     16  O   UNL     1      37.046   7.351 123.324 -2.39 -0.00    +0.000 OA
DOCKED: ATOM     17  H   UNL     1      36.822   9.168 124.206 -0.52 -0.00    +0.000 HD
DOCKED: ENDBRANCH  10  13
DOCKED: ENDBRANCH   4  11
DOCKED: ENDBRANCH   3   7
DOCKED: ENDBRANCH   1   3
DOCKED: BRANCH   1  17
DOCKED: ATOM     18  C   UNL     1      36.197  18.427 123.295 -0.22 -0.00    +0.000 C 
DOCKED: BRANCH  17  18
DOCKED: ATOM     19  C   UNL     1      35.614  17.500 124.365 -0.33 -0.00    +0.000 C 
DOCKED: BRANCH  18  19
DOCKED: ATOM     20  O   UNL     1      34.458  18.072 124.913 -0.38 -0.00    +0.000 OA
DOCKED: ATOM     21  H   UNL     1      33.703  17.893 124.332 -0.03 -0.00    +0.000 HD
DOCKED: ENDBRANCH  18  19
DOCKED: ENDBRANCH  17  18
DOCKED: ENDBRANCH   1  17
DOCKED: BRANCH   1  21
DOCKED: ATOM     22  C   UNL     1      34.433  17.314 121.973 -0.35 -0.00    +0.000 C 
DOCKED: BRANCH  21  22
DOCKED: ATOM     23  C   UNL     1      33.254  18.214 121.586 -0.04 -0.00    +0.000 C 
DOCKED: BRANCH  22  23
DOCKED: ATOM     24  C   UNL     1      33.201  18.419 120.100 -0.33 -0.00    +0.000 A 
DOCKED: ATOM     25  C   UNL     1      34.291  18.571 119.250 -0.23 -0.00    +0.000 A 
DOCKED: ATOM     26  N   UNL     1      33.886  18.599 117.960 -0.14 -0.00    +0.000 N 
DOCKED: ATOM     27  C   UNL     1      32.551  18.449 117.987 -0.19 -0.00    +0.000 A 
DOCKED: ATOM     28  C   UNL     1      32.094  18.332 119.275 -0.36 -0.00    +0.000 A 
DOCKED: ATOM     29  C   UNL     1      30.742  18.134 119.559 -0.40 -0.00    +0.000 A 
DOCKED: ATOM     30  C   UNL     1      29.848  18.057 118.476 -0.33 -0.00    +0.000 A 
DOCKED: ATOM     31  C   UNL     1      30.318  18.178 117.150 -0.16 -0.00    +0.000 A 
DOCKED: ATOM     32  C   UNL     1      31.687  18.375 116.894 -0.12 -0.00    +0.000 A 
DOCKED: ATOM     33  H   UNL     1      34.453  18.707 117.163 +0.00 -0.00    +0.000 HD
DOCKED: ATOM     34  CM  UNL     1      33.227  18.478 118.884 +0.00 -0.00    +0.000 AC
DOCKED: ATOM     35  CM  UNL     1      31.207  18.255 118.224 +0.00 -0.00    +0.000 AC
DOCKED: ENDBRANCH  22  23
DOCKED: ENDBRANCH  21  22
DOCKED: ENDBRANCH   1  21
DOCKED: TORSDOF 10DOCKED: TER
DOCKED: ENDMDL
________________________________________________________________________________


	BEGINNING GENETIC ALGORITHM DOCKING 99 of 100
Run: 99 Seed: 614516170 1956925574 [ Run 99 of 100 GA/GALS ]
Beginning LAMARCKIAN GENETIC ALGORITHM (LGA), with a maximum of 2500000 energy evaluations.

Final-Value: -16.732


	FINAL GENETIC ALGORITHM DOCKED STATE
	_______________________________________________


Detailed state:  trans 37.526 15.613 121.747 quatxyzw 0.210057 -0.228589 0.849430 0.426722 center 0.288 0.007 -0.056 ntor 10 10.4221 -175.7273 -2.2823 -16.8862 -71.4633 -43.3370 -178.5383 -52.3034 97.7137 -30.2534
State:	 37.526  15.613 121.747   0.232 -0.253  0.939 129.481     10.42 -175.73   -2.28  -16.89  -71.46  -43.34 -178.54  -52.30   97.71  -30.25

DOCKED: MODEL       99
DOCKED: USER    Run = 99
DOCKED: USER    DPF = ligand_dock.biased.dpf
DOCKED: USER  
DOCKED: USER    Estimated Free Energy of Binding    =  -11.86 kcal/mol  [=(1)+(2)+(3)-(4)]
DOCKED: USER    Estimated Inhibition Constant, Ki   =    2.02 nM (nanomolar)  [Temperature = 298.15 K]
DOCKED: USER    
DOCKED: USER    (1) Final Intermolecular Energy     =  -14.84 kcal/mol
DOCKED: USER        vdW + Hbond + desolv Energy     =  -14.84 kcal/mol
DOCKED: USER        Electrostatic Energy            =   +0.00 kcal/mol
DOCKED: USER    (2) Final Total Internal Energy     =   -1.89 kcal/mol
DOCKED: USER    (3) Torsional Free Energy           =   +2.98 kcal/mol
DOCKED: USER    (4) Unbound System's Energy  [=(2)] =   -1.89 kcal/mol
DOCKED: USER    
DOCKED: USER    
DOCKED: USER    NEWDPF move ligand.dum.pdbqt
DOCKED: USER    NEWDPF about 0.288000 0.007000 -0.056000
DOCKED: USER    NEWDPF tran0 37.526278 15.612501 121.747159
DOCKED: USER    NEWDPF quaternion0 0.210057 -0.228589 0.849430 0.426722
DOCKED: USER    NEWDPF axisangle0 0.232265 -0.252756 0.939237 129.480562
DOCKED: USER    NEWDPF quat0 0.232265 -0.252756 0.939237 129.480562
DOCKED: USER    NEWDPF dihe0 10.42 -175.73 -2.28 -16.89 -71.46 -43.34 -178.54 -52.30 97.71 -30.25 
DOCKED: USER  keepresnum = 1 
DOCKED: USER  
DOCKED: REMARK  Name = 
DOCKED: REMARK  10 active torsions:
DOCKED: REMARK  status: ('A' for Active; 'I' for Inactive)
DOCKED: REMARK    1  A    between atoms: C_2  and  C_5
DOCKED: REMARK    2  A    between atoms: C_6  and  C_7
DOCKED: REMARK    3  A    between atoms: C_10  and  C_11
DOCKED: REMARK    4  A    between atoms: C_11  and  N_12
DOCKED: REMARK    5  A    between atoms: N_12  and  C_13
DOCKED: REMARK    6  A    between atoms: N_12  and  C_16
DOCKED: REMARK    7  A    between atoms: C_13  and  C_14
DOCKED: REMARK    8  A    between atoms: C_14  and  O_15
DOCKED: REMARK    9  A    between atoms: C_16  and  C_17
DOCKED: REMARK   10  A    between atoms: C_17  and  C_18
DOCKED: REMARK                            x       y       z     vdW  Elec       q    Type
DOCKED: REMARK                         _______ _______ _______ _____ _____    ______ ____
DOCKED: USER                              x       y       z     vdW  Elec       q    Type
DOCKED: USER                           _______ _______ _______ _____ _____    ______ ____
DOCKED: ROOT
DOCKED: ATOM      1  N   UNL     1      38.047  16.842 121.711 -0.14 -0.00    +0.000 N 
DOCKED: ATOM      2  H   UNL     1      38.618  17.468 121.144 +0.01 -0.00    +0.000 HD
DOCKED: ENDROOT
DOCKED: BRANCH   1   3
DOCKED: ATOM      3  C   UNL     1      37.496  15.879 120.722 -0.21 -0.00    +0.000 C 
DOCKED: BRANCH   3   7
DOCKED: ATOM      4  C   UNL     1      37.064  11.802 122.156 -0.52 -0.00    +0.000 A 
DOCKED: ATOM      5  C   UNL     1      36.759  12.889 122.988 -0.54 -0.00    +0.000 A 
DOCKED: ATOM      6  C   UNL     1      36.895  14.201 122.526 -0.40 -0.00    +0.000 A 
DOCKED: ATOM      7  C   UNL     1      37.368  14.455 121.229 -0.30 -0.00    +0.000 A 
DOCKED: ATOM      8  C   UNL     1      37.662  13.369 120.389 -0.40 -0.00    +0.000 A 
DOCKED: ATOM      9  C   UNL     1      37.526  12.056 120.850 -0.43 -0.00    +0.000 A 
DOCKED: ATOM     10  CM  UNL     1      37.212  13.129 121.690 +0.00 -0.00    +0.000 AC
DOCKED: BRANCH   4  11
DOCKED: ATOM     11  C   UNL     1      35.770   9.730 122.652 -0.68 -0.00    +0.000 C 
DOCKED: ATOM     12  C   UNL     1      36.913  10.428 122.698 -0.62 -0.00    +0.000 C 
DOCKED: BRANCH  10  13
DOCKED: ATOM     13  O   UNL     1      36.689   7.682 123.445 -2.45 -0.00    +0.000 OA
DOCKED: ATOM     14  C   UNL     1      35.658   8.369 123.212 -0.65 -0.00    +0.000 C 
DOCKED: ATOM     15  N   UNL     1      34.367   7.822 123.491 -0.66 -0.00    +0.000 N 
DOCKED: ATOM     16  O   UNL     1      34.247   6.574 124.004 -0.82 -0.00    +0.000 OA
DOCKED: ATOM     17  H   UNL     1      33.559   8.355 123.309 -0.20 -0.00    +0.000 HD
DOCKED: ENDBRANCH  10  13
DOCKED: ENDBRANCH   4  11
DOCKED: ENDBRANCH   3   7
DOCKED: ENDBRANCH   1   3
DOCKED: BRANCH   1  17
DOCKED: ATOM     18  C   UNL     1      38.998  16.261 122.686 -0.28 -0.00    +0.000 C 
DOCKED: BRANCH  17  18
DOCKED: ATOM     19  C   UNL     1      40.306  15.834 122.014 -0.33 -0.00    +0.000 C 
DOCKED: BRANCH  18  19
DOCKED: ATOM     20  O   UNL     1      40.518  14.464 122.213 -1.08 -0.00    +0.000 OA
DOCKED: ATOM     21  H   UNL     1      40.412  14.254 123.153 -0.05 -0.00    +0.000 HD
DOCKED: ENDBRANCH  18  19
DOCKED: ENDBRANCH  17  18
DOCKED: ENDBRANCH   1  17
DOCKED: BRANCH   1  21
DOCKED: ATOM     22  C   UNL     1      37.013  17.691 122.348 -0.18 -0.00    +0.000 C 
DOCKED: BRANCH  21  22
DOCKED: ATOM     23  C   UNL     1      35.610  17.183 121.997 -0.28 -0.00    +0.000 C 
DOCKED: BRANCH  22  23
DOCKED: ATOM     24  C   UNL     1      34.849  16.812 123.236 -0.38 -0.00    +0.000 A 
DOCKED: ATOM     25  C   UNL     1      34.254  15.583 123.499 -0.41 -0.00    +0.000 A 
DOCKED: ATOM     26  N   UNL     1      33.770  15.551 124.762 -0.51 -0.00    +0.000 N 
DOCKED: ATOM     27  C   UNL     1      34.069  16.745 125.303 -0.41 -0.00    +0.000 A 
DOCKED: ATOM     28  C   UNL     1      34.731  17.542 124.404 -0.35 -0.00    +0.000 A 
DOCKED: ATOM     29  C   UNL     1      35.177  18.820 124.746 -0.24 -0.00    +0.000 A 
DOCKED: ATOM     30  C   UNL     1      34.924  19.276 126.052 -0.19 -0.00    +0.000 A 
DOCKED: ATOM     31  C   UNL     1      34.242  18.456 126.977 -0.22 -0.00    +0.000 A 
DOCKED: ATOM     32  C   UNL     1      33.808  17.171 126.606 -0.35 -0.00    +0.000 A 
DOCKED: ATOM     33  H   UNL     1      33.296  14.807 125.197 -0.18 -0.00    +0.000 HD
DOCKED: ATOM     34  CM  UNL     1      34.317  16.418 124.258 -0.07 -0.00    +0.000 AC
DOCKED: ATOM     35  CM  UNL     1      34.492  18.001 125.681 -0.31 -0.00    +0.000 AC
DOCKED: ENDBRANCH  22  23
DOCKED: ENDBRANCH  21  22
DOCKED: ENDBRANCH   1  21
DOCKED: TORSDOF 10DOCKED: TER
DOCKED: ENDMDL
________________________________________________________________________________


	BEGINNING GENETIC ALGORITHM DOCKING 100 of 100
Run: 100 Seed: 1309294594 1172474223 [ Run 100 of 100 GA/GALS ]
Beginning LAMARCKIAN GENETIC ALGORITHM (LGA), with a maximum of 2500000 energy evaluations.

Final-Value: -17.887


	FINAL GENETIC ALGORITHM DOCKED STATE
	_______________________________________________


Detailed state:  trans 36.299 18.568 123.667 quatxyzw 0.685434 -0.019436 -0.572879 0.449012 center 0.288 0.007 -0.056 ntor 10 59.5266 -117.0398 76.4255 154.2783 170.8032 -131.5804 -56.1061 114.8668 109.5546 -172.5409
State:	 36.299  18.568 123.667   0.767 -0.022 -0.641 126.639     59.53 -117.04   76.43  154.28  170.80 -131.58  -56.11  114.87  109.55 -172.54

DOCKED: MODEL      100
DOCKED: USER    Run = 100
DOCKED: USER    DPF = ligand_dock.biased.dpf
DOCKED: USER  
DOCKED: USER    Estimated Free Energy of Binding    =  -12.77 kcal/mol  [=(1)+(2)+(3)-(4)]
DOCKED: USER    Estimated Inhibition Constant, Ki   =  438.43 pM (picomolar)  [Temperature = 298.15 K]
DOCKED: USER    
DOCKED: USER    (1) Final Intermolecular Energy     =  -15.75 kcal/mol
DOCKED: USER        vdW + Hbond + desolv Energy     =  -15.75 kcal/mol
DOCKED: USER        Electrostatic Energy            =   +0.00 kcal/mol
DOCKED: USER    (2) Final Total Internal Energy     =   -2.14 kcal/mol
DOCKED: USER    (3) Torsional Free Energy           =   +2.98 kcal/mol
DOCKED: USER    (4) Unbound System's Energy  [=(2)] =   -2.14 kcal/mol
DOCKED: USER    
DOCKED: USER    
DOCKED: USER    NEWDPF move ligand.dum.pdbqt
DOCKED: USER    NEWDPF about 0.288000 0.007000 -0.056000
DOCKED: USER    NEWDPF tran0 36.299051 18.567552 123.667089
DOCKED: USER    NEWDPF quaternion0 0.685434 -0.019436 -0.572879 0.449012
DOCKED: USER    NEWDPF axisangle0 0.767112 -0.021752 -0.641144 126.639336
DOCKED: USER    NEWDPF quat0 0.767112 -0.021752 -0.641144 126.639336
DOCKED: USER    NEWDPF dihe0 59.53 -117.04 76.43 154.28 170.80 -131.58 -56.11 114.87 109.55 -172.54 
DOCKED: USER  keepresnum = 1 
DOCKED: USER  
DOCKED: REMARK  Name = 
DOCKED: REMARK  10 active torsions:
DOCKED: REMARK  status: ('A' for Active; 'I' for Inactive)
DOCKED: REMARK    1  A    between atoms: C_2  and  C_5
DOCKED: REMARK    2  A    between atoms: C_6  and  C_7
DOCKED: REMARK    3  A    between atoms: C_10  and  C_11
DOCKED: REMARK    4  A    between atoms: C_11  and  N_12
DOCKED: REMARK    5  A    between atoms: N_12  and  C_13
DOCKED: REMARK    6  A    between atoms: N_12  and  C_16
DOCKED: REMARK    7  A    between atoms: C_13  and  C_14
DOCKED: REMARK    8  A    between atoms: C_14  and  O_15
DOCKED: REMARK    9  A    between atoms: C_16  and  C_17
DOCKED: REMARK   10  A    between atoms: C_17  and  C_18
DOCKED: REMARK                            x       y       z     vdW  Elec       q    Type
DOCKED: REMARK                         _______ _______ _______ _____ _____    ______ ____
DOCKED: USER                              x       y       z     vdW  Elec       q    Type
DOCKED: USER                           _______ _______ _______ _____ _____    ______ ____
DOCKED: ROOT
DOCKED: ATOM      1  N   UNL     1      36.018  18.116 124.892 -0.23 -0.00    +0.000 N 
DOCKED: ATOM      2  H   UNL     1      35.724  17.286 125.407 -0.02 -0.00    +0.000 HD
DOCKED: ENDROOT
DOCKED: BRANCH   1   3
DOCKED: ATOM      3  C   UNL     1      36.636  17.562 123.659 -0.25 -0.00    +0.000 C 
DOCKED: BRANCH   3   7
DOCKED: ATOM      4  C   UNL     1      36.571  13.226 123.420 -0.54 -0.00    +0.000 A 
DOCKED: ATOM      5  C   UNL     1      37.571  13.964 122.769 -0.44 -0.00    +0.000 A 
DOCKED: ATOM      6  C   UNL     1      37.594  15.359 122.848 -0.33 -0.00    +0.000 A 
DOCKED: ATOM      7  C   UNL     1      36.599  16.050 123.557 -0.32 -0.00    +0.000 A 
DOCKED: ATOM      8  C   UNL     1      35.604  15.314 124.221 -0.43 -0.00    +0.000 A 
DOCKED: ATOM      9  C   UNL     1      35.580  13.918 124.144 -0.36 -0.00    +0.000 A 
DOCKED: ATOM     10  CM  UNL     1      36.587  14.638 123.493 +0.00 -0.00    +0.000 AC
DOCKED: BRANCH   4  11
DOCKED: ATOM     11  C   UNL     1      37.060  11.093 122.227 -0.56 -0.00    +0.000 C 
DOCKED: ATOM     12  C   UNL     1      36.585  11.747 123.297 -0.69 -0.00    +0.000 C 
DOCKED: BRANCH  10  13
DOCKED: ATOM     13  O   UNL     1      37.005   9.043 121.017 -2.70 -0.00    +0.000 OA
DOCKED: ATOM     14  C   UNL     1      37.046   9.619 122.138 -0.60 -0.00    +0.000 C 
DOCKED: ATOM     15  N   UNL     1      37.079   8.837 123.333 -0.64 -0.00    +0.000 N 
DOCKED: ATOM     16  O   UNL     1      37.066   7.484 123.268 -2.46 -0.00    +0.000 OA
DOCKED: ATOM     17  H   UNL     1      37.111   9.283 124.211 -0.59 -0.00    +0.000 HD
DOCKED: ENDBRANCH  10  13
DOCKED: ENDBRANCH   4  11
DOCKED: ENDBRANCH   3   7
DOCKED: ENDBRANCH   1   3
DOCKED: BRANCH   1  17
DOCKED: ATOM     18  C   UNL     1      34.764  18.875 124.677 -0.26 -0.00    +0.000 C 
DOCKED: BRANCH  17  18
DOCKED: ATOM     19  C   UNL     1      33.799  18.716 125.855 -0.33 -0.00    +0.000 C 
DOCKED: BRANCH  18  19
DOCKED: ATOM     20  O   UNL     1      33.429  17.371 125.989 -0.46 -0.00    +0.000 OA
DOCKED: ATOM     21  H   UNL     1      33.861  16.847 125.297 -0.02 -0.00    +0.000 HD
DOCKED: ENDBRANCH  18  19
DOCKED: ENDBRANCH  17  18
DOCKED: ENDBRANCH   1  17
DOCKED: BRANCH   1  21
DOCKED: ATOM     22  C   UNL     1      36.979  18.825 125.768 -0.17 -0.00    +0.000 C 
DOCKED: BRANCH  21  22
DOCKED: ATOM     23  C   UNL     1      38.205  19.274 124.966 -0.15 -0.00    +0.000 C 
DOCKED: BRANCH  22  23
DOCKED: ATOM     24  C   UNL     1      39.451  18.607 125.472 -0.21 -0.00    +0.000 A 
DOCKED: ATOM     25  C   UNL     1      40.553  18.235 124.710 -0.27 -0.00    +0.000 A 
DOCKED: ATOM     26  N   UNL     1      41.549  17.783 125.505 -0.28 -0.00    +0.000 N 
DOCKED: ATOM     27  C   UNL     1      41.091  17.882 126.765 -0.34 -0.00    +0.000 A 
DOCKED: ATOM     28  C   UNL     1      39.815  18.384 126.787 -0.24 -0.00    +0.000 A 
DOCKED: ATOM     29  C   UNL     1      39.136  18.610 127.986 -0.20 -0.00    +0.000 A 
DOCKED: ATOM     30  C   UNL     1      39.802  18.304 129.186 -0.26 -0.00    +0.000 A 
DOCKED: ATOM     31  C   UNL     1      41.116  17.786 129.163 -0.41 -0.00    +0.000 A 
DOCKED: ATOM     32  C   UNL     1      41.777  17.572 127.940 -0.40 -0.00    +0.000 A 
DOCKED: ATOM     33  H   UNL     1      42.431  17.450 125.221 -0.58 -0.00    +0.000 HD
DOCKED: ATOM     34  CM  UNL     1      40.526  18.166 125.837 +0.00 -0.00    +0.000 AC
DOCKED: ATOM     35  CM  UNL     1      40.456  18.089 127.971 +0.00 -0.00    +0.000 AC
DOCKED: ENDBRANCH  22  23
DOCKED: ENDBRANCH  21  22
DOCKED: ENDBRANCH   1  21
DOCKED: TORSDOF 10DOCKED: TER
DOCKED: ENDMDL
________________________________________________________________________________

DPF> analysis                             # perform a ranked cluster analysis


		CLUSTER ANALYSIS OF CONFORMATIONS
		_________________________________

Number of conformations = 100

RMSD cluster analysis will be performed using the ligand atoms only (35 / 35 total atoms).

Outputting structurally similar clusters, ranked in order of increasing energy.


________________________________________________________________________________

Number of distinct conformational clusters found = 22,  out of 100 runs,
Using an rmsd-tolerance of 2.0 A


	CLUSTERING HISTOGRAM
	____________________

________________________________________________________________________________
     |           |     |           |     |                                    
Clus | Lowest    | Run | Mean      | Num | Histogram                          
-ter | Binding   |     | Binding   | in  |                                    
Rank | Energy    |     | Energy    | Clus|    5    10   15   20   25   30   35
_____|___________|_____|___________|_____|____:____|____:____|____:____|____:___
   1 |    -13.15 |   4 |    -11.48 |  10 |##########
   2 |    -12.88 |  15 |    -11.61 |   6 |######
   3 |    -12.77 | 100 |    -11.88 |  19 |###################
   4 |    -12.64 |  21 |    -11.62 |   4 |####
   5 |    -11.92 |  72 |    -10.73 |  16 |################
   6 |    -11.92 |  39 |    -11.07 |   9 |#########
   7 |    -11.79 |  52 |    -10.62 |   3 |###
   8 |    -11.72 |  81 |    -11.72 |   1 |#
   9 |    -11.69 |  48 |    -10.98 |   8 |########
  10 |    -11.50 |  23 |    -11.50 |   1 |#
  11 |    -11.42 |  71 |    -11.37 |   2 |##
  12 |    -11.38 |  35 |    -11.27 |   2 |##
  13 |    -11.34 |  59 |    -11.04 |   4 |####
  14 |    -11.27 |  41 |    -10.96 |   5 |#####
  15 |    -11.24 |  32 |    -10.81 |   3 |###
  16 |    -11.17 |  89 |    -11.17 |   1 |#
  17 |    -11.04 |  97 |    -11.04 |   1 |#
  18 |    -11.03 |  40 |    -11.03 |   1 |#
  19 |    -10.89 |  62 |    -10.89 |   1 |#
  20 |    -10.28 |  96 |    -10.28 |   1 |#
  21 |    -10.12 |  95 |    -10.12 |   1 |#
  22 |     -9.75 |   6 |     -9.75 |   1 |#
_____|___________|_____|___________|_____|______________________________________


Number of multi-member conformational clusters found = 13, out of 100 runs.

	RMSD TABLE
	__________

_____________________________________________________________________
     |      |      |           |         |                 |
Rank | Sub- | Run  | Binding   | Cluster | Reference       | Grep
     | Rank |      | Energy    | RMSD    | RMSD            | Pattern
_____|______|______|___________|_________|_________________|___________
   1      1      4      -13.15      0.00    125.77           RANKING
   1      2     65      -12.74      0.38    125.69           RANKING
   1      3     42      -12.06      1.74    125.11           RANKING
   1      4     10      -11.91      1.16    125.21           RANKING
   1      5     93      -11.22      1.94    125.61           RANKING
   1      6     51      -11.14      1.89    124.63           RANKING
   1      7     36      -11.03      1.26    125.13           RANKING
   1      8     98      -10.60      1.68    124.53           RANKING
   1      9     64      -10.56      1.82    125.35           RANKING
   1     10     25      -10.40      1.82    124.86           RANKING
   2      1     15      -12.88      0.00    127.88           RANKING
   2      2     99      -11.86      1.91    126.95           RANKING
   2      3     26      -11.58      0.81    127.83           RANKING
   2      4     66      -11.40      1.69    127.77           RANKING
   2      5     45      -11.34      1.73    127.30           RANKING
   2      6     54      -10.62      1.74    127.88           RANKING
   3      1    100      -12.77      0.00    129.17           RANKING
   3      2     94      -12.55      1.71    127.87           RANKING
   3      3     73      -12.48      1.67    127.64           RANKING
   3      4     49      -12.41      1.45    127.98           RANKING
   3      5     84      -12.22      1.10    128.36           RANKING
   3      6     17      -12.18      1.71    127.93           RANKING
   3      7     29      -12.02      0.94    129.13           RANKING
   3      8     46      -12.01      1.44    127.83           RANKING
   3      9     14      -11.98      1.13    129.22           RANKING
   3     10     75      -11.95      1.10    128.53           RANKING
   3     11     69      -11.82      1.08    128.75           RANKING
   3     12     55      -11.75      1.78    128.62           RANKING
   3     13     38      -11.74      1.44    129.41           RANKING
   3     14      2      -11.72      1.88    127.85           RANKING
   3     15     56      -11.63      1.98    127.26           RANKING
   3     16     34      -11.56      1.15    129.75           RANKING
   3     17     79      -11.21      1.91    128.58           RANKING
   3     18     24      -10.98      1.80    129.37           RANKING
   3     19     60      -10.76      1.52    128.11           RANKING
   4      1     21      -12.64      0.00    128.80           RANKING
   4      2     87      -11.65      1.95    127.68           RANKING
   4      3     67      -11.13      1.74    128.06           RANKING
   4      4      8      -11.06      1.57    128.02           RANKING
   5      1     72      -11.92      0.00    126.79           RANKING
   5      2      3      -11.90      1.15    127.81           RANKING
   5      3     20      -11.49      1.09    126.33           RANKING
   5      4     31      -11.45      1.71    127.79           RANKING
   5      5     43      -11.37      1.51    126.68           RANKING
   5      6      7      -11.04      0.85    126.67           RANKING
   5      7     76      -10.75      1.58    126.71           RANKING
   5      8     58      -10.69      1.86    126.46           RANKING
   5      9     86      -10.51      1.58    126.79           RANKING
   5     10     18      -10.42      1.56    126.86           RANKING
   5     11     91      -10.21      1.82    126.64           RANKING
   5     12     70      -10.14      1.55    126.71           RANKING
   5     13     82      -10.01      1.96    126.60           RANKING
   5     14     19      -10.00      1.78    127.23           RANKING
   5     15     85       -9.91      1.85    126.60           RANKING
   5     16     61       -9.80      1.93    127.38           RANKING
   6      1     39      -11.92      0.00    126.47           RANKING
   6      2     90      -11.69      1.96    127.20           RANKING
   6      3     80      -11.44      0.93    126.52           RANKING
   6      4     28      -11.10      1.98    127.44           RANKING
   6      5     30      -11.02      1.71    127.06           RANKING
   6      6     37      -10.73      1.88    127.33           RANKING
   6      7     50      -10.68      1.71    127.13           RANKING
   6      8     22      -10.52      1.39    126.53           RANKING
   6      9     77      -10.50      1.98    126.94           RANKING
   7      1     52      -11.79      0.00    126.15           RANKING
   7      2     27      -10.06      1.70    125.94           RANKING
   7      3     47      -10.00      1.94    125.39           RANKING
   8      1     81      -11.72      0.00    124.59           RANKING
   9      1     48      -11.69      0.00    127.45           RANKING
   9      2     13      -11.53      0.99    127.44           RANKING
   9      3     92      -11.41      1.37    128.16           RANKING
   9      4     83      -11.13      1.67    127.72           RANKING
   9      5      9      -10.97      1.43    127.40           RANKING
   9      6     78      -10.89      1.80    127.89           RANKING
   9      7     12      -10.73      1.83    126.88           RANKING
   9      8     16       -9.50      1.98    126.10           RANKING
  10      1     23      -11.50      0.00    128.85           RANKING
  11      1     71      -11.42      0.00    124.90           RANKING
  11      2      5      -11.31      1.88    124.74           RANKING
  12      1     35      -11.38      0.00    128.21           RANKING
  12      2     63      -11.16      1.19    128.03           RANKING
  13      1     59      -11.34      0.00    127.36           RANKING
  13      2     57      -11.19      1.01    127.23           RANKING
  13      3     33      -11.10      1.15    127.35           RANKING
  13      4     11      -10.54      1.86    126.50           RANKING
  14      1     41      -11.27      0.00    124.60           RANKING
  14      2     88      -11.08      1.06    124.15           RANKING
  14      3     68      -10.94      1.92    124.50           RANKING
  14      4     44      -10.89      1.26    124.05           RANKING
  14      5     53      -10.63      1.82    124.19           RANKING
  15      1     32      -11.24      0.00    124.92           RANKING
  15      2      1      -10.83      1.60    124.28           RANKING
  15      3     74      -10.35      1.25    124.21           RANKING
  16      1     89      -11.17      0.00    126.05           RANKING
  17      1     97      -11.04      0.00    128.30           RANKING
  18      1     40      -11.03      0.00    126.31           RANKING
  19      1     62      -10.89      0.00    128.92           RANKING
  20      1     96      -10.28      0.00    126.23           RANKING
  21      1     95      -10.12      0.00    124.91           RANKING
  22      1      6       -9.75      0.00    128.39           RANKING
_______________________________________________________________________



	INFORMATION ENTROPY ANALYSIS FOR THIS CLUSTERING
	________________________________________________


Information entropy for this clustering = 0.57  (rmstol = 2.00 Angstrom)

_______________________________________________________________________


	STATISTICAL MECHANICAL ANALYSIS
	_______________________________


Partition function, Q =   101.91            at Temperature, T = 298.15 K
Free energy,        A ~ -2739.69 kcal/mol   at Temperature, T = 298.15 K
Internal energy,    U =   -11.22 kcal/mol   at Temperature, T = 298.15 K
Entropy,            S =     9.15 kcal/mol/K at Temperature, T = 298.15 K

_______________________________________________________________________


	LOWEST ENERGY DOCKED CONFORMATION from EACH CLUSTER
	___________________________________________________



Keeping original residue number (specified in the input PDBQ file) for outputting.

MODEL        4
USER    Run = 4
USER    Cluster Rank = 1
USER    Number of conformations in this cluster = 10
USER  
USER    RMSD from reference structure       = 125.775 A
USER  
USER    Estimated Free Energy of Binding    =  -13.15 kcal/mol  [=(1)+(2)+(3)-(4)]
USER    Estimated Inhibition Constant, Ki   =  228.25 pM (picomolar)  [Temperature = 298.15 K]
USER    
USER    (1) Final Intermolecular Energy     =  -16.14 kcal/mol
USER        vdW + Hbond + desolv Energy     =  -16.14 kcal/mol
USER        Electrostatic Energy            =   +0.00 kcal/mol
USER    (2) Final Total Internal Energy     =   -1.52 kcal/mol
USER    (3) Torsional Free Energy           =   +2.98 kcal/mol
USER    (4) Unbound System's Energy  [=(2)] =   -1.52 kcal/mol
USER    
USER    
USER  
USER    DPF = ligand_dock.biased.dpf
USER    NEWDPF move	ligand.dum.pdbqt
USER    NEWDPF about	0.288000 0.007000 -0.056000
USER    NEWDPF tran0	35.179600 16.920361 124.334524
USER    NEWDPF axisangle0	0.432960 -0.569601 -0.698642 -79.338540
USER    NEWDPF quaternion0	0.276382 -0.363607 -0.445982 -0.769742
USER    NEWDPF dihe0	61.33 -180.00 -68.66 -149.51 -60.46 -131.68 -43.11 -141.04 38.34 27.59 
USER  
USER                              x       y       z    vdW   Elec        q     RMS 
ATOM      1  N   UNL     1      34.592  17.937 123.699 -0.34 -0.00    +0.000    125.775
ATOM      2  H   UNL     1      34.670  18.937 123.513 -0.02 -0.00    +0.000    125.775
ATOM      3  C   UNL     1      35.986  17.528 124.011 -0.30 -0.00    +0.000    125.775
ATOM      4  C   UNL     1      36.750  13.291 123.437 -0.53 -0.00    +0.000    125.775
ATOM      5  C   UNL     1      35.633  13.724 124.167 -0.29 -0.00    +0.000    125.775
ATOM      6  C   UNL     1      35.386  15.087 124.349 -0.43 -0.00    +0.000    125.775
ATOM      7  C   UNL     1      36.266  16.049 123.829 -0.34 -0.00    +0.000    125.775
ATOM      8  C   UNL     1      37.378  15.619 123.087 -0.32 -0.00    +0.000    125.775
ATOM      9  C   UNL     1      37.627  14.255 122.902 -0.43 -0.00    +0.000    125.775
ATOM     10  CM  UNL     1      36.506  14.670 123.629 +0.00 -0.00    +0.000    125.775
ATOM     11  C   UNL     1      36.628  11.137 122.188 -0.64 -0.00    +0.000    125.775
ATOM     12  C   UNL     1      36.975  11.832 123.281 -0.67 -0.00    +0.000    125.775
ATOM     13  O   UNL     1      37.055   9.148 120.950 -2.73 -0.00    +0.000    125.775
ATOM     14  C   UNL     1      36.860   9.684 122.075 -0.64 -0.00    +0.000    125.775
ATOM     15  N   UNL     1      36.861   8.873 123.252 -0.65 -0.00    +0.000    125.775
ATOM     16  O   UNL     1      37.072   7.538 123.166 -2.45 -0.00    +0.000    125.775
ATOM     17  H   UNL     1      36.709   9.287 124.132 -0.48 -0.00    +0.000    125.775
ATOM     18  C   UNL     1      33.645  17.850 124.835 -0.33 -0.00    +0.000    125.775
ATOM     19  C   UNL     1      34.343  17.389 126.117 -0.35 -0.00    +0.000    125.775
ATOM     20  O   UNL     1      33.690  16.263 126.636 -0.96 -0.00    +0.000    125.775
ATOM     21  H   UNL     1      32.953  16.020 126.054 -0.14 -0.00    +0.000    125.775
ATOM     22  C   UNL     1      34.060  17.328 122.457 -0.39 -0.00    +0.000    125.775
ATOM     23  C   UNL     1      35.055  17.505 121.305 -0.29 -0.00    +0.000    125.775
ATOM     24  C   UNL     1      34.599  18.582 120.363 -0.26 -0.00    +0.000    125.775
ATOM     25  C   UNL     1      35.417  19.448 119.645 -0.15 -0.00    +0.000    125.775
ATOM     26  N   UNL     1      34.681  20.198 118.795 -0.14 -0.00    +0.000    125.775
ATOM     27  C   UNL     1      33.406  19.802 118.958 -0.19 -0.00    +0.000    125.775
ATOM     28  C   UNL     1      33.315  18.814 119.905 -0.30 -0.00    +0.000    125.775
ATOM     29  C   UNL     1      32.096  18.216 120.227 -0.42 -0.00    +0.000    125.775
ATOM     30  C   UNL     1      30.947  18.661 119.548 -0.44 -0.00    +0.000    125.775
ATOM     31  C   UNL     1      31.041  19.678 118.573 -0.29 -0.00    +0.000    125.775
ATOM     32  C   UNL     1      32.284  20.260 118.267 -0.20 -0.00    +0.000    125.775
ATOM     33  H   UNL     1      35.010  20.893 118.180 -0.02 -0.00    +0.000    125.775
ATOM     34  CM  UNL     1      34.296  19.395 119.509 +0.00 -0.00    +0.000    125.775
ATOM     35  CM  UNL     1      32.182  19.239 119.247 +0.00 -0.00    +0.000    125.775
TER
ENDMDL
MODEL       15
USER    Run = 15
USER    Cluster Rank = 2
USER    Number of conformations in this cluster = 6
USER  
USER    RMSD from reference structure       = 127.875 A
USER  
USER    Estimated Free Energy of Binding    =  -12.88 kcal/mol  [=(1)+(2)+(3)-(4)]
USER    Estimated Inhibition Constant, Ki   =  361.60 pM (picomolar)  [Temperature = 298.15 K]
USER    
USER    (1) Final Intermolecular Energy     =  -15.86 kcal/mol
USER        vdW + Hbond + desolv Energy     =  -15.86 kcal/mol
USER        Electrostatic Energy            =   +0.00 kcal/mol
USER    (2) Final Total Internal Energy     =   -1.90 kcal/mol
USER    (3) Torsional Free Energy           =   +2.98 kcal/mol
USER    (4) Unbound System's Energy  [=(2)] =   -1.90 kcal/mol
USER    
USER    
USER  
USER    DPF = ligand_dock.biased.dpf
USER    NEWDPF move	ligand.dum.pdbqt
USER    NEWDPF about	0.288000 0.007000 -0.056000
USER    NEWDPF tran0	37.975578 17.083744 123.166349
USER    NEWDPF axisangle0	-0.163245 0.366360 -0.916041 -122.700692
USER    NEWDPF quaternion0	-0.143259 0.321506 -0.803888 -0.479453
USER    NEWDPF dihe0	-85.08 166.82 38.77 177.26 168.42 -43.17 173.71 132.00 78.22 -23.72 
USER  
USER                              x       y       z    vdW   Elec        q     RMS 
ATOM      1  N   UNL     1      38.418  18.307 123.468 -0.14 -0.00    +0.000    127.875
ATOM      2  H   UNL     1      38.966  19.088 123.107 +0.00 -0.00    +0.000    127.875
ATOM      3  C   UNL     1      37.961  17.602 122.242 -0.14 -0.00    +0.000    127.875
ATOM      4  C   UNL     1      37.437  13.321 122.752 -0.49 -0.00    +0.000    127.875
ATOM      5  C   UNL     1      38.086  13.832 121.618 -0.39 -0.00    +0.000    127.875
ATOM      6  C   UNL     1      38.257  15.209 121.455 -0.27 -0.00    +0.000    127.875
ATOM      7  C   UNL     1      37.757  16.109 122.410 -0.24 -0.00    +0.000    127.875
ATOM      8  C   UNL     1      37.119  15.600 123.553 -0.29 -0.00    +0.000    127.875
ATOM      9  C   UNL     1      36.947  14.222 123.718 -0.33 -0.00    +0.000    127.875
ATOM     10  CM  UNL     1      37.601  14.715 122.584 +0.00 -0.00    +0.000    127.875
ATOM     11  C   UNL     1      37.103  11.031 121.826 -0.48 -0.00    +0.000    127.875
ATOM     12  C   UNL     1      37.271  11.851 122.873 -0.54 -0.00    +0.000    127.875
ATOM     13  O   UNL     1      36.699   8.838 120.991 -2.61 -0.00    +0.000    127.875
ATOM     14  C   UNL     1      36.930   9.574 121.989 -0.63 -0.00    +0.000    127.875
ATOM     15  N   UNL     1      37.023   8.990 123.290 -0.63 -0.00    +0.000    127.875
ATOM     16  O   UNL     1      36.867   7.655 123.456 -2.54 -0.00    +0.000    127.875
ATOM     17  H   UNL     1      37.203   9.562 124.071 -0.56 -0.00    +0.000    127.875
ATOM     18  C   UNL     1      39.374  17.547 124.307 -0.21 -0.00    +0.000    127.875
ATOM     19  C   UNL     1      40.781  18.147 124.243 -0.30 -0.00    +0.000    127.875
ATOM     20  O   UNL     1      41.732  17.121 124.156 -0.82 -0.00    +0.000    127.875
ATOM     21  H   UNL     1      42.532  17.381 124.639 -0.60 -0.00    +0.000    127.875
ATOM     22  C   UNL     1      37.313  18.908 124.251 -0.16 -0.00    +0.000    127.875
ATOM     23  C   UNL     1      36.000  18.845 123.463 -0.23 -0.00    +0.000    127.875
ATOM     24  C   UNL     1      35.026  17.908 124.118 -0.31 -0.00    +0.000    127.875
ATOM     25  C   UNL     1      34.401  16.820 123.518 -0.41 -0.00    +0.000    127.875
ATOM     26  N   UNL     1      33.694  16.118 124.432 -0.39 -0.00    +0.000    127.875
ATOM     27  C   UNL     1      33.881  16.744 125.607 -0.35 -0.00    +0.000    127.875
ATOM     28  C   UNL     1      34.692  17.840 125.458 -0.32 -0.00    +0.000    127.875
ATOM     29  C   UNL     1      35.060  18.635 126.544 -0.19 -0.00    +0.000    127.875
ATOM     30  C   UNL     1      34.569  18.279 127.814 -0.17 -0.00    +0.000    127.875
ATOM     31  C   UNL     1      33.734  17.151 127.968 -0.30 -0.00    +0.000    127.875
ATOM     32  C   UNL     1      33.383  16.367 126.854 -0.34 -0.00    +0.000    127.875
ATOM     33  H   UNL     1      33.152  15.312 124.271 -0.21 -0.00    +0.000    127.875
ATOM     34  CM  UNL     1      34.318  17.055 124.621 -0.24 -0.00    +0.000    127.875
ATOM     35  CM  UNL     1      34.219  17.503 126.707 -0.05 -0.00    +0.000    127.875
TER
ENDMDL
MODEL      100
USER    Run = 100
USER    Cluster Rank = 3
USER    Number of conformations in this cluster = 19
USER  
USER    RMSD from reference structure       = 129.168 A
USER  
USER    Estimated Free Energy of Binding    =  -12.77 kcal/mol  [=(1)+(2)+(3)-(4)]
USER    Estimated Inhibition Constant, Ki   =  438.43 pM (picomolar)  [Temperature = 298.15 K]
USER    
USER    (1) Final Intermolecular Energy     =  -15.75 kcal/mol
USER        vdW + Hbond + desolv Energy     =  -15.75 kcal/mol
USER        Electrostatic Energy            =   +0.00 kcal/mol
USER    (2) Final Total Internal Energy     =   -2.14 kcal/mol
USER    (3) Torsional Free Energy           =   +2.98 kcal/mol
USER    (4) Unbound System's Energy  [=(2)] =   -2.14 kcal/mol
USER    
USER    
USER  
USER    DPF = ligand_dock.biased.dpf
USER    NEWDPF move	ligand.dum.pdbqt
USER    NEWDPF about	0.288000 0.007000 -0.056000
USER    NEWDPF tran0	36.299051 18.567552 123.667089
USER    NEWDPF axisangle0	0.767112 -0.021752 -0.641144 126.639336
USER    NEWDPF quaternion0	0.685434 -0.019436 -0.572879 0.449012
USER    NEWDPF dihe0	59.53 -117.04 76.43 154.28 170.80 -131.58 -56.11 114.87 109.55 -172.54 
USER  
USER                              x       y       z    vdW   Elec        q     RMS 
ATOM      1  N   UNL     1      36.018  18.116 124.892 -0.23 -0.00    +0.000    129.168
ATOM      2  H   UNL     1      35.724  17.286 125.407 -0.02 -0.00    +0.000    129.168
ATOM      3  C   UNL     1      36.636  17.562 123.659 -0.25 -0.00    +0.000    129.168
ATOM      4  C   UNL     1      36.571  13.226 123.420 -0.54 -0.00    +0.000    129.168
ATOM      5  C   UNL     1      37.571  13.964 122.769 -0.44 -0.00    +0.000    129.168
ATOM      6  C   UNL     1      37.594  15.359 122.848 -0.33 -0.00    +0.000    129.168
ATOM      7  C   UNL     1      36.599  16.050 123.557 -0.32 -0.00    +0.000    129.168
ATOM      8  C   UNL     1      35.604  15.314 124.221 -0.43 -0.00    +0.000    129.168
ATOM      9  C   UNL     1      35.580  13.918 124.144 -0.36 -0.00    +0.000    129.168
ATOM     10  CM  UNL     1      36.587  14.638 123.493 +0.00 -0.00    +0.000    129.168
ATOM     11  C   UNL     1      37.060  11.093 122.227 -0.56 -0.00    +0.000    129.168
ATOM     12  C   UNL     1      36.585  11.747 123.297 -0.69 -0.00    +0.000    129.168
ATOM     13  O   UNL     1      37.005   9.043 121.017 -2.70 -0.00    +0.000    129.168
ATOM     14  C   UNL     1      37.046   9.619 122.138 -0.60 -0.00    +0.000    129.168
ATOM     15  N   UNL     1      37.079   8.837 123.333 -0.64 -0.00    +0.000    129.168
ATOM     16  O   UNL     1      37.066   7.484 123.268 -2.46 -0.00    +0.000    129.168
ATOM     17  H   UNL     1      37.111   9.283 124.211 -0.59 -0.00    +0.000    129.168
ATOM     18  C   UNL     1      34.764  18.875 124.677 -0.26 -0.00    +0.000    129.168
ATOM     19  C   UNL     1      33.799  18.716 125.855 -0.33 -0.00    +0.000    129.168
ATOM     20  O   UNL     1      33.429  17.371 125.989 -0.46 -0.00    +0.000    129.168
ATOM     21  H   UNL     1      33.861  16.847 125.297 -0.02 -0.00    +0.000    129.168
ATOM     22  C   UNL     1      36.979  18.825 125.768 -0.17 -0.00    +0.000    129.168
ATOM     23  C   UNL     1      38.205  19.274 124.966 -0.15 -0.00    +0.000    129.168
ATOM     24  C   UNL     1      39.451  18.607 125.472 -0.21 -0.00    +0.000    129.168
ATOM     25  C   UNL     1      40.553  18.235 124.710 -0.27 -0.00    +0.000    129.168
ATOM     26  N   UNL     1      41.549  17.783 125.505 -0.28 -0.00    +0.000    129.168
ATOM     27  C   UNL     1      41.091  17.882 126.765 -0.34 -0.00    +0.000    129.168
ATOM     28  C   UNL     1      39.815  18.384 126.787 -0.24 -0.00    +0.000    129.168
ATOM     29  C   UNL     1      39.136  18.610 127.986 -0.20 -0.00    +0.000    129.168
ATOM     30  C   UNL     1      39.802  18.304 129.186 -0.26 -0.00    +0.000    129.168
ATOM     31  C   UNL     1      41.116  17.786 129.163 -0.41 -0.00    +0.000    129.168
ATOM     32  C   UNL     1      41.777  17.572 127.940 -0.40 -0.00    +0.000    129.168
ATOM     33  H   UNL     1      42.431  17.450 125.221 -0.58 -0.00    +0.000    129.168
ATOM     34  CM  UNL     1      40.526  18.166 125.837 +0.00 -0.00    +0.000    129.168
ATOM     35  CM  UNL     1      40.456  18.089 127.971 +0.00 -0.00    +0.000    129.168
TER
ENDMDL
MODEL       21
USER    Run = 21
USER    Cluster Rank = 4
USER    Number of conformations in this cluster = 4
USER  
USER    RMSD from reference structure       = 128.796 A
USER  
USER    Estimated Free Energy of Binding    =  -12.64 kcal/mol  [=(1)+(2)+(3)-(4)]
USER    Estimated Inhibition Constant, Ki   =  545.67 pM (picomolar)  [Temperature = 298.15 K]
USER    
USER    (1) Final Intermolecular Energy     =  -15.62 kcal/mol
USER        vdW + Hbond + desolv Energy     =  -15.62 kcal/mol
USER        Electrostatic Energy            =   +0.00 kcal/mol
USER    (2) Final Total Internal Energy     =   -2.05 kcal/mol
USER    (3) Torsional Free Energy           =   +2.98 kcal/mol
USER    (4) Unbound System's Energy  [=(2)] =   -2.05 kcal/mol
USER    
USER    
USER  
USER    DPF = ligand_dock.biased.dpf
USER    NEWDPF move	ligand.dum.pdbqt
USER    NEWDPF about	0.288000 0.007000 -0.056000
USER    NEWDPF tran0	36.095009 17.317825 124.340381
USER    NEWDPF axisangle0	-0.428442 0.384251 -0.817795 -59.726983
USER    NEWDPF quaternion0	-0.213336 0.191332 -0.407209 -0.867214
USER    NEWDPF dihe0	139.14 -63.67 59.00 179.13 -69.33 -158.67 -156.09 -31.05 -132.55 28.23 
USER  
USER                              x       y       z    vdW   Elec        q     RMS 
ATOM      1  N   UNL     1      35.131  18.166 124.707 -0.28 -0.00    +0.000    128.796
ATOM      2  H   UNL     1      34.664  19.033 124.441 -0.01 -0.00    +0.000    128.796
ATOM      3  C   UNL     1      35.685  17.659 123.424 -0.30 -0.00    +0.000    128.796
ATOM      4  C   UNL     1      36.478  13.391 123.299 -0.52 -0.00    +0.000    128.796
ATOM      5  C   UNL     1      35.178  13.870 123.516 -0.14 -0.00    +0.000    128.796
ATOM      6  C   UNL     1      34.922  15.243 123.553 -0.44 -0.00    +0.000    128.796
ATOM      7  C   UNL     1      35.966  16.169 123.403 -0.35 -0.00    +0.000    128.796
ATOM      8  C   UNL     1      37.267  15.692 123.173 -0.31 -0.00    +0.000    128.796
ATOM      9  C   UNL     1      37.525  14.318 123.134 -0.42 -0.00    +0.000    128.796
ATOM     10  CM  UNL     1      36.222  14.780 123.346 +0.00 -0.00    +0.000    128.796
ATOM     11  C   UNL     1      36.622  11.172 122.171 -0.63 -0.00    +0.000    128.796
ATOM     12  C   UNL     1      36.700  11.923 123.279 -0.69 -0.00    +0.000    128.796
ATOM     13  O   UNL     1      36.720   9.027 121.142 -2.62 -0.00    +0.000    128.796
ATOM     14  C   UNL     1      36.840   9.712 122.194 -0.65 -0.00    +0.000    128.796
ATOM     15  N   UNL     1      37.187   9.067 123.421 -0.54 -0.00    +0.000    128.796
ATOM     16  O   UNL     1      37.389   7.728 123.459 -2.61 -0.00    +0.000    128.796
ATOM     17  H   UNL     1      37.280   9.599 124.245 -0.61 -0.00    +0.000    128.796
ATOM     18  C   UNL     1      36.144  18.588 125.702 -0.21 -0.00    +0.000    128.796
ATOM     19  C   UNL     1      35.850  19.988 126.248 -0.14 -0.00    +0.000    128.796
ATOM     20  O   UNL     1      34.813  20.577 125.514 -0.19 -0.00    +0.000    128.796
ATOM     21  H   UNL     1      33.962  20.221 125.813 -0.01 -0.00    +0.000    128.796
ATOM     22  C   UNL     1      34.082  17.294 125.285 -0.44 -0.00    +0.000    128.796
ATOM     23  C   UNL     1      34.245  17.195 126.806 -0.19 -0.00    +0.000    128.796
ATOM     24  C   UNL     1      32.907  17.158 127.487 -0.35 -0.00    +0.000    128.796
ATOM     25  C   UNL     1      32.423  16.134 128.294 -0.23 -0.00    +0.000    128.796
ATOM     26  N   UNL     1      31.243  16.488 128.851 -0.47 -0.00    +0.000    128.796
ATOM     27  C   UNL     1      30.985  17.733 128.415 -0.35 -0.00    +0.000    128.796
ATOM     28  C   UNL     1      31.981  18.179 127.582 -0.14 -0.00    +0.000    128.796
ATOM     29  C   UNL     1      31.955  19.460 127.028 -0.23 -0.00    +0.000    128.796
ATOM     30  C   UNL     1      30.867  20.292 127.349 -0.26 -0.00    +0.000    128.796
ATOM     31  C   UNL     1      29.843  19.833 128.205 -0.30 -0.00    +0.000    128.796
ATOM     32  C   UNL     1      29.897  18.538 128.751 -0.33 -0.00    +0.000    128.796
ATOM     33  H   UNL     1      30.684  15.945 129.453 -0.63 -0.00    +0.000    128.796
ATOM     34  CM  UNL     1      31.887  17.118 128.149 +0.00 -0.00    +0.000    128.796
ATOM     35  CM  UNL     1      30.921  19.005 127.888 +0.00 -0.00    +0.000    128.796
TER
ENDMDL
MODEL       72
USER    Run = 72
USER    Cluster Rank = 5
USER    Number of conformations in this cluster = 16
USER  
USER    RMSD from reference structure       = 126.790 A
USER  
USER    Estimated Free Energy of Binding    =  -11.92 kcal/mol  [=(1)+(2)+(3)-(4)]
USER    Estimated Inhibition Constant, Ki   =    1.83 nM (nanomolar)  [Temperature = 298.15 K]
USER    
USER    (1) Final Intermolecular Energy     =  -14.90 kcal/mol
USER        vdW + Hbond + desolv Energy     =  -14.90 kcal/mol
USER        Electrostatic Energy            =   +0.00 kcal/mol
USER    (2) Final Total Internal Energy     =   -2.34 kcal/mol
USER    (3) Torsional Free Energy           =   +2.98 kcal/mol
USER    (4) Unbound System's Energy  [=(2)] =   -2.34 kcal/mol
USER    
USER    
USER  
USER    DPF = ligand_dock.biased.dpf
USER    NEWDPF move	ligand.dum.pdbqt
USER    NEWDPF about	0.288000 0.007000 -0.056000
USER    NEWDPF tran0	37.094195 18.532642 120.919028
USER    NEWDPF axisangle0	-0.965980 -0.216600 0.141307 -129.770339
USER    NEWDPF quaternion0	-0.874655 -0.196123 0.127948 -0.424434
USER    NEWDPF dihe0	-173.48 -42.49 71.87 -6.02 -177.91 178.19 -48.90 -155.48 49.78 -178.06 
USER  
USER                              x       y       z    vdW   Elec        q     RMS 
ATOM      1  N   UNL     1      35.865  18.118 121.235 -0.20 -0.00    +0.000    126.790
ATOM      2  H   UNL     1      35.235  17.318 121.177 -0.01 -0.00    +0.000    126.790
ATOM      3  C   UNL     1      37.217  17.506 121.152 -0.14 -0.00    +0.000    126.790
ATOM      4  C   UNL     1      37.174  13.165 121.028 -0.41 -0.00    +0.000    126.790
ATOM      5  C   UNL     1      36.693  13.853 122.151 -0.33 -0.00    +0.000    126.790
ATOM      6  C   UNL     1      36.704  15.250 122.190 -0.27 -0.00    +0.000    126.790
ATOM      7  C   UNL     1      37.223  15.990 121.117 -0.19 -0.00    +0.000    126.790
ATOM      8  C   UNL     1      37.694  15.304 119.985 -0.21 -0.00    +0.000    126.790
ATOM      9  C   UNL     1      37.683  13.907 119.944 -0.34 -0.00    +0.000    126.790
ATOM     10  CM  UNL     1      37.195  14.578 121.070 +0.00 -0.00    +0.000    126.790
ATOM     11  C   UNL     1      37.044  10.946 122.156 -0.55 -0.00    +0.000    126.790
ATOM     12  C   UNL     1      37.151  11.680 121.040 -0.50 -0.00    +0.000    126.790
ATOM     13  O   UNL     1      36.991   8.848 121.031 -2.68 -0.00    +0.000    126.790
ATOM     14  C   UNL     1      37.035   9.470 122.127 -0.63 -0.00    +0.000    126.790
ATOM     15  N   UNL     1      37.074   8.737 123.354 -0.65 -0.00    +0.000    126.790
ATOM     16  O   UNL     1      37.066   7.383 123.344 -2.42 -0.00    +0.000    126.790
ATOM     17  H   UNL     1      37.108   9.220 124.212 -0.59 -0.00    +0.000    126.790
ATOM     18  C   UNL     1      35.489  18.963 120.078 -0.20 -0.00    +0.000    126.790
ATOM     19  C   UNL     1      34.009  18.802 119.719 -0.29 -0.00    +0.000    126.790
ATOM     20  O   UNL     1      33.342  18.120 120.745 -0.45 -0.00    +0.000    126.790
ATOM     21  H   UNL     1      32.575  18.639 121.033 -0.05 -0.00    +0.000    126.790
ATOM     22  C   UNL     1      35.588  18.766 122.538 -0.24 -0.00    +0.000    126.790
ATOM     23  C   UNL     1      36.194  17.948 123.684 -0.25 -0.00    +0.000    126.790
ATOM     24  C   UNL     1      35.118  17.297 124.504 -0.34 -0.00    +0.000    126.790
ATOM     25  C   UNL     1      34.660  15.991 124.371 -0.50 -0.00    +0.000    126.790
ATOM     26  N   UNL     1      33.784  15.694 125.357 -0.49 -0.00    +0.000    126.790
ATOM     27  C   UNL     1      33.698  16.796 126.122 -0.37 -0.00    +0.000    126.790
ATOM     28  C   UNL     1      34.501  17.796 125.636 -0.33 -0.00    +0.000    126.790
ATOM     29  C   UNL     1      34.607  19.030 126.279 -0.21 -0.00    +0.000    126.790
ATOM     30  C   UNL     1      33.858  19.224 127.454 -0.15 -0.00    +0.000    126.790
ATOM     31  C   UNL     1      33.031  18.195 127.954 -0.22 -0.00    +0.000    126.790
ATOM     32  C   UNL     1      32.947  16.960 127.285 -0.37 -0.00    +0.000    126.790
ATOM     33  H   UNL     1      33.306  14.843 125.490 -0.14 -0.00    +0.000    126.790
ATOM     34  CM  UNL     1      34.334  16.682 125.203 -0.17 -0.00    +0.000    126.790
ATOM     35  CM  UNL     1      33.773  18.000 126.788 -0.02 -0.00    +0.000    126.790
TER
ENDMDL
MODEL       39
USER    Run = 39
USER    Cluster Rank = 6
USER    Number of conformations in this cluster = 9
USER  
USER    RMSD from reference structure       = 126.468 A
USER  
USER    Estimated Free Energy of Binding    =  -11.92 kcal/mol  [=(1)+(2)+(3)-(4)]
USER    Estimated Inhibition Constant, Ki   =    1.83 nM (nanomolar)  [Temperature = 298.15 K]
USER    
USER    (1) Final Intermolecular Energy     =  -14.90 kcal/mol
USER        vdW + Hbond + desolv Energy     =  -14.90 kcal/mol
USER        Electrostatic Energy            =   +0.00 kcal/mol
USER    (2) Final Total Internal Energy     =   -2.07 kcal/mol
USER    (3) Torsional Free Energy           =   +2.98 kcal/mol
USER    (4) Unbound System's Energy  [=(2)] =   -2.07 kcal/mol
USER    
USER    
USER  
USER    DPF = ligand_dock.biased.dpf
USER    NEWDPF move	ligand.dum.pdbqt
USER    NEWDPF about	0.288000 0.007000 -0.056000
USER    NEWDPF tran0	35.681229 17.136044 122.892590
USER    NEWDPF axisangle0	0.739443 -0.602537 -0.300288 -127.430187
USER    NEWDPF quaternion0	0.662987 -0.540237 -0.269239 -0.442835
USER    NEWDPF dihe0	39.88 165.44 139.48 172.33 129.40 113.58 172.83 9.00 54.40 -8.08 
USER  
USER                              x       y       z    vdW   Elec        q     RMS 
ATOM      1  N   UNL     1      35.473  18.384 122.466 -0.25 -0.00    +0.000    126.468
ATOM      2  H   UNL     1      35.286  19.334 122.787 -0.01 -0.00    +0.000    126.468
ATOM      3  C   UNL     1      36.132  17.744 123.635 -0.27 -0.00    +0.000    126.468
ATOM      4  C   UNL     1      36.406  13.412 123.484 -0.53 -0.00    +0.000    126.468
ATOM      5  C   UNL     1      37.518  14.210 123.176 -0.42 -0.00    +0.000    126.468
ATOM      6  C   UNL     1      37.431  15.604 123.227 -0.31 -0.00    +0.000    126.468
ATOM      7  C   UNL     1      36.220  16.232 123.560 -0.33 -0.00    +0.000    126.468
ATOM      8  C   UNL     1      35.109  15.435 123.882 -0.49 -0.00    +0.000    126.468
ATOM      9  C   UNL     1      35.195  14.041 123.832 -0.35 -0.00    +0.000    126.468
ATOM     10  CM  UNL     1      36.314  14.822 123.527 +0.00 -0.00    +0.000    126.468
ATOM     11  C   UNL     1      36.660  11.260 122.252 -0.64 -0.00    +0.000    126.468
ATOM     12  C   UNL     1      36.548  11.936 123.404 -0.69 -0.00    +0.000    126.468
ATOM     13  O   UNL     1      36.724   9.167 121.119 -2.63 -0.00    +0.000    126.468
ATOM     14  C   UNL     1      36.789   9.790 122.213 -0.66 -0.00    +0.000    126.468
ATOM     15  N   UNL     1      36.986   9.064 123.429 -0.58 -0.00    +0.000    126.468
ATOM     16  O   UNL     1      37.105   7.715 123.411 -2.66 -0.00    +0.000    126.468
ATOM     17  H   UNL     1      37.036   9.547 124.285 -0.54 -0.00    +0.000    126.468
ATOM     18  C   UNL     1      34.137  17.843 122.126 -0.38 -0.00    +0.000    126.468
ATOM     19  C   UNL     1      33.847  17.956 120.627 -0.25 -0.00    +0.000    126.468
ATOM     20  O   UNL     1      32.514  18.337 120.428 -0.52 -0.00    +0.000    126.468
ATOM     21  H   UNL     1      31.998  18.135 121.224 -0.06 -0.00    +0.000    126.468
ATOM     22  C   UNL     1      36.360  18.516 121.287 -0.18 -0.00    +0.000    126.468
ATOM     23  C   UNL     1      37.808  18.754 121.728 -0.09 -0.00    +0.000    126.468
ATOM     24  C   UNL     1      38.671  17.571 121.398 -0.08 -0.00    +0.000    126.468
ATOM     25  C   UNL     1      38.515  16.715 120.313 -0.10 -0.00    +0.000    126.468
ATOM     26  N   UNL     1      39.545  15.842 120.247 -0.17 -0.00    +0.000    126.468
ATOM     27  C   UNL     1      40.359  16.148 121.272 -0.20 -0.00    +0.000    126.468
ATOM     28  C   UNL     1      39.862  17.201 121.997 -0.14 -0.00    +0.000    126.468
ATOM     29  C   UNL     1      40.547  17.726 123.094 -0.20 -0.00    +0.000    126.468
ATOM     30  C   UNL     1      41.777  17.138 123.442 -0.34 -0.00    +0.000    126.468
ATOM     31  C   UNL     1      42.288  16.054 122.696 -0.43 -0.00    +0.000    126.468
ATOM     32  C   UNL     1      41.576  15.548 121.593 -0.31 -0.00    +0.000    126.468
ATOM     33  H   UNL     1      39.675  15.126 119.583 -0.05 -0.00    +0.000    126.468
ATOM     34  CM  UNL     1      39.396  16.668 121.020 +0.00 -0.00    +0.000    126.468
ATOM     35  CM  UNL     1      41.068  16.636 122.349 +0.00 -0.00    +0.000    126.468
TER
ENDMDL
MODEL       52
USER    Run = 52
USER    Cluster Rank = 7
USER    Number of conformations in this cluster = 3
USER  
USER    RMSD from reference structure       = 126.152 A
USER  
USER    Estimated Free Energy of Binding    =  -11.79 kcal/mol  [=(1)+(2)+(3)-(4)]
USER    Estimated Inhibition Constant, Ki   =    2.30 nM (nanomolar)  [Temperature = 298.15 K]
USER    
USER    (1) Final Intermolecular Energy     =  -14.77 kcal/mol
USER        vdW + Hbond + desolv Energy     =  -14.77 kcal/mol
USER        Electrostatic Energy            =   +0.00 kcal/mol
USER    (2) Final Total Internal Energy     =   -1.61 kcal/mol
USER    (3) Torsional Free Energy           =   +2.98 kcal/mol
USER    (4) Unbound System's Energy  [=(2)] =   -1.61 kcal/mol
USER    
USER    
USER  
USER    DPF = ligand_dock.biased.dpf
USER    NEWDPF move	ligand.dum.pdbqt
USER    NEWDPF about	0.288000 0.007000 -0.056000
USER    NEWDPF tran0	37.896200 18.286458 123.896046
USER    NEWDPF axisangle0	0.475876 0.321359 0.818700 -171.550239
USER    NEWDPF quaternion0	0.474583 0.320486 0.816476 -0.073671
USER    NEWDPF dihe0	-57.31 179.50 54.92 -180.00 142.85 -170.61 -30.00 -81.58 113.11 -165.59 
USER  
USER                              x       y       z    vdW   Elec        q     RMS 
ATOM      1  N   UNL     1      38.541  17.974 122.769 -0.12 -0.00    +0.000    126.152
ATOM      2  H   UNL     1      38.876  17.187 122.213 +0.00 -0.00    +0.000    126.152
ATOM      3  C   UNL     1      37.432  17.391 123.569 -0.24 -0.00    +0.000    126.152
ATOM      4  C   UNL     1      37.096  13.068 123.333 -0.53 -0.00    +0.000    126.152
ATOM      5  C   UNL     1      38.217  13.728 122.808 -0.41 -0.00    +0.000    126.152
ATOM      6  C   UNL     1      38.327  15.119 122.886 -0.32 -0.00    +0.000    126.152
ATOM      7  C   UNL     1      37.303  15.884 123.467 -0.29 -0.00    +0.000    126.152
ATOM      8  C   UNL     1      36.186  15.225 124.005 -0.36 -0.00    +0.000    126.152
ATOM      9  C   UNL     1      36.074  13.834 123.928 -0.45 -0.00    +0.000    126.152
ATOM     10  CM  UNL     1      37.201  14.476 123.404 +0.00 -0.00    +0.000    126.152
ATOM     11  C   UNL     1      37.068  10.932 122.047 -0.54 -0.00    +0.000    126.152
ATOM     12  C   UNL     1      37.022  11.590 123.215 -0.66 -0.00    +0.000    126.152
ATOM     13  O   UNL     1      37.002   8.872 120.855 -2.70 -0.00    +0.000    126.152
ATOM     14  C   UNL     1      36.981   9.461 121.971 -0.64 -0.00    +0.000    126.152
ATOM     15  N   UNL     1      36.868   8.694 123.172 -0.69 -0.00    +0.000    126.152
ATOM     16  O   UNL     1      36.787   7.343 123.118 -2.21 -0.00    +0.000    126.152
ATOM     17  H   UNL     1      36.851   9.150 124.044 -0.49 -0.00    +0.000    126.152
ATOM     18  C   UNL     1      39.724  18.396 123.554 -0.18 -0.00    +0.000    126.152
ATOM     19  C   UNL     1      41.009  17.747 123.031 -0.25 -0.00    +0.000    126.152
ATOM     20  O   UNL     1      41.666  17.083 124.075 -0.83 -0.00    +0.000    126.152
ATOM     21  H   UNL     1      42.535  17.489 124.220 -0.52 -0.00    +0.000    126.152
ATOM     22  C   UNL     1      38.095  19.003 121.801 -0.08 -0.00    +0.000    126.152
ATOM     23  C   UNL     1      36.786  19.648 122.268 -0.15 -0.00    +0.000    126.152
ATOM     24  C   UNL     1      35.599  18.916 121.713 -0.20 -0.00    +0.000    126.152
ATOM     25  C   UNL     1      34.729  18.099 122.426 -0.28 -0.00    +0.000    126.152
ATOM     26  N   UNL     1      33.696  17.711 121.644 -0.40 -0.00    +0.000    126.152
ATOM     27  C   UNL     1      33.898  18.290 120.448 -0.30 -0.00    +0.000    126.152
ATOM     28  C   UNL     1      35.048  19.037 120.451 -0.18 -0.00    +0.000    126.152
ATOM     29  C   UNL     1      35.454  19.763 119.330 -0.13 -0.00    +0.000    126.152
ATOM     30  C   UNL     1      34.643  19.705 118.182 -0.13 -0.00    +0.000    126.152
ATOM     31  C   UNL     1      33.460  18.935 118.179 -0.18 -0.00    +0.000    126.152
ATOM     32  C   UNL     1      33.074  18.217 119.325 -0.27 -0.00    +0.000    126.152
ATOM     33  H   UNL     1      32.948  17.124 121.899 -0.04 -0.00    +0.000    126.152
ATOM     34  CM  UNL     1      34.565  18.389 121.346 +0.00 -0.00    +0.000    126.152
ATOM     35  CM  UNL     1      34.263  18.991 119.319 +0.00 -0.00    +0.000    126.152
TER
ENDMDL
MODEL       81
USER    Run = 81
USER    Cluster Rank = 8
USER    Number of conformations in this cluster = 1
USER  
USER    RMSD from reference structure       = 124.591 A
USER  
USER    Estimated Free Energy of Binding    =  -11.72 kcal/mol  [=(1)+(2)+(3)-(4)]
USER    Estimated Inhibition Constant, Ki   =    2.57 nM (nanomolar)  [Temperature = 298.15 K]
USER    
USER    (1) Final Intermolecular Energy     =  -14.70 kcal/mol
USER        vdW + Hbond + desolv Energy     =  -14.70 kcal/mol
USER        Electrostatic Energy            =   +0.00 kcal/mol
USER    (2) Final Total Internal Energy     =   -1.74 kcal/mol
USER    (3) Torsional Free Energy           =   +2.98 kcal/mol
USER    (4) Unbound System's Energy  [=(2)] =   -1.74 kcal/mol
USER    
USER    
USER  
USER    DPF = ligand_dock.biased.dpf
USER    NEWDPF move	ligand.dum.pdbqt
USER    NEWDPF about	0.288000 0.007000 -0.056000
USER    NEWDPF tran0	36.464014 17.186079 122.557332
USER    NEWDPF axisangle0	0.283693 -0.529903 -0.799201 -81.789743
USER    NEWDPF quaternion0	0.185726 -0.346913 -0.523215 -0.755912
USER    NEWDPF dihe0	-110.20 47.55 178.41 -20.23 179.82 173.59 -75.50 -161.44 -53.54 30.08 
USER  
USER                              x       y       z    vdW   Elec        q     RMS 
ATOM      1  N   UNL     1      35.986  18.265 121.933 -0.20 -0.00    +0.000    124.591
ATOM      2  H   UNL     1      36.218  19.221 121.665 -0.00 -0.00    +0.000    124.591
ATOM      3  C   UNL     1      37.312  17.612 122.086 -0.16 -0.00    +0.000    124.591
ATOM      4  C   UNL     1      37.214  13.300 121.577 -0.41 -0.00    +0.000    124.591
ATOM      5  C   UNL     1      36.620  13.902 122.696 -0.42 -0.00    +0.000    124.591
ATOM      6  C   UNL     1      36.649  15.290 122.859 -0.35 -0.00    +0.000    124.591
ATOM      7  C   UNL     1      37.299  16.105 121.919 -0.21 -0.00    +0.000    124.591
ATOM      8  C   UNL     1      37.884  15.507 120.791 -0.21 -0.00    +0.000    124.591
ATOM      9  C   UNL     1      37.855  14.119 120.626 -0.33 -0.00    +0.000    124.591
ATOM     10  CM  UNL     1      37.253  14.703 121.745 +0.00 -0.00    +0.000    124.591
ATOM     11  C   UNL     1      36.964  10.995 122.493 -0.60 -0.00    +0.000    124.591
ATOM     12  C   UNL     1      37.166  11.822 121.456 -0.53 -0.00    +0.000    124.591
ATOM     13  O   UNL     1      36.694   9.008 121.209 -2.62 -0.00    +0.000    124.591
ATOM     14  C   UNL     1      36.934   9.528 122.333 -0.65 -0.00    +0.000    124.591
ATOM     15  N   UNL     1      37.176   8.687 123.463 -0.61 -0.00    +0.000    124.591
ATOM     16  O   UNL     1      37.150   7.339 123.333 -2.36 -0.00    +0.000    124.591
ATOM     17  H   UNL     1      37.363   9.090 124.342 -0.60 -0.00    +0.000    124.591
ATOM     18  C   UNL     1      35.213  18.414 123.187 -0.28 -0.00    +0.000    124.591
ATOM     19  C   UNL     1      33.978  17.509 123.200 -0.32 -0.00    +0.000    124.591
ATOM     20  O   UNL     1      34.220  16.385 124.001 -0.54 -0.00    +0.000    124.591
ATOM     21  H   UNL     1      33.500  15.746 123.887 -0.05 -0.00    +0.000    124.591
ATOM     22  C   UNL     1      35.180  17.710 120.820 -0.27 -0.00    +0.000    124.591
ATOM     23  C   UNL     1      34.424  18.830 120.096 -0.27 -0.00    +0.000    124.591
ATOM     24  C   UNL     1      33.009  18.420 119.804 -0.33 -0.00    +0.000    124.591
ATOM     25  C   UNL     1      31.902  18.651 120.613 -0.30 -0.00    +0.000    124.591
ATOM     26  N   UNL     1      30.767  18.269 119.984 -0.45 -0.00    +0.000    124.591
ATOM     27  C   UNL     1      31.148  17.813 118.778 -0.30 -0.00    +0.000    124.591
ATOM     28  C   UNL     1      32.509  17.892 118.628 -0.19 -0.00    +0.000    124.591
ATOM     29  C   UNL     1      33.140  17.508 117.444 -0.15 -0.00    +0.000    124.591
ATOM     30  C   UNL     1      32.334  17.029 116.396 -0.13 -0.00    +0.000    124.591
ATOM     31  C   UNL     1      30.933  16.947 116.550 -0.17 -0.00    +0.000    124.591
ATOM     32  C   UNL     1      30.324  17.345 117.754 -0.26 -0.00    +0.000    124.591
ATOM     33  H   UNL     1      29.850  18.315 120.337 -0.44 -0.00    +0.000    124.591
ATOM     34  CM  UNL     1      31.832  18.211 119.575 +0.00 -0.00    +0.000    124.591
ATOM     35  CM  UNL     1      31.731  17.422 117.592 +0.00 -0.00    +0.000    124.591
TER
ENDMDL
MODEL       48
USER    Run = 48
USER    Cluster Rank = 9
USER    Number of conformations in this cluster = 8
USER  
USER    RMSD from reference structure       = 127.450 A
USER  
USER    Estimated Free Energy of Binding    =  -11.69 kcal/mol  [=(1)+(2)+(3)-(4)]
USER    Estimated Inhibition Constant, Ki   =    2.70 nM (nanomolar)  [Temperature = 298.15 K]
USER    
USER    (1) Final Intermolecular Energy     =  -14.67 kcal/mol
USER        vdW + Hbond + desolv Energy     =  -14.67 kcal/mol
USER        Electrostatic Energy            =   +0.00 kcal/mol
USER    (2) Final Total Internal Energy     =   -2.40 kcal/mol
USER    (3) Torsional Free Energy           =   +2.98 kcal/mol
USER    (4) Unbound System's Energy  [=(2)] =   -2.40 kcal/mol
USER    
USER    
USER  
USER    DPF = ligand_dock.biased.dpf
USER    NEWDPF move	ligand.dum.pdbqt
USER    NEWDPF about	0.288000 0.007000 -0.056000
USER    NEWDPF tran0	35.920727 18.622492 122.494215
USER    NEWDPF axisangle0	0.407132 -0.611374 -0.678576 130.737022
USER    NEWDPF quaternion0	0.370086 -0.555743 -0.616831 0.416780
USER    NEWDPF dihe0	157.63 -63.76 21.17 -167.64 171.54 -170.86 -103.16 166.55 5.98 131.40 
USER  
USER                              x       y       z    vdW   Elec        q     RMS 
ATOM      1  N   UNL     1      36.695  18.500 123.575 -0.16 -0.00    +0.000    127.450
ATOM      2  H   UNL     1      36.719  18.122 124.522 -0.01 -0.00    +0.000    127.450
ATOM      3  C   UNL     1      35.663  17.675 122.894 -0.29 -0.00    +0.000    127.450
ATOM      4  C   UNL     1      36.410  13.403 123.118 -0.51 -0.00    +0.000    127.450
ATOM      5  C   UNL     1      36.714  14.122 121.952 -0.25 -0.00    +0.000    127.450
ATOM      6  C   UNL     1      36.476  15.497 121.881 -0.15 -0.00    +0.000    127.450
ATOM      7  C   UNL     1      35.903  16.180 122.965 -0.32 -0.00    +0.000    127.450
ATOM      8  C   UNL     1      35.610  15.465 124.138 -0.43 -0.00    +0.000    127.450
ATOM      9  C   UNL     1      35.847  14.089 124.211 -0.40 -0.00    +0.000    127.450
ATOM     10  CM  UNL     1      36.160  14.792 123.044 +0.00 -0.00    +0.000    127.450
ATOM     11  C   UNL     1      36.633  11.162 122.049 -0.62 -0.00    +0.000    127.450
ATOM     12  C   UNL     1      36.671  11.941 123.139 -0.68 -0.00    +0.000    127.450
ATOM     13  O   UNL     1      37.052   9.037 121.058 -2.71 -0.00    +0.000    127.450
ATOM     14  C   UNL     1      36.889   9.709 122.113 -0.63 -0.00    +0.000    127.450
ATOM     15  N   UNL     1      36.949   9.055 123.382 -0.59 -0.00    +0.000    127.450
ATOM     16  O   UNL     1      37.182   7.724 123.458 -2.67 -0.00    +0.000    127.450
ATOM     17  H   UNL     1      36.822   9.577 124.208 -0.52 -0.00    +0.000    127.450
ATOM     18  C   UNL     1      36.335  19.925 123.760 -0.18 -0.00    +0.000    127.450
ATOM     19  C   UNL     1      35.651  20.164 125.109 -0.18 -0.00    +0.000    127.450
ATOM     20  O   UNL     1      35.367  18.938 125.722 -0.23 -0.00    +0.000    127.450
ATOM     21  H   UNL     1      36.064  18.728 126.363 -0.01 -0.00    +0.000    127.450
ATOM     22  C   UNL     1      38.058  18.316 123.024 -0.14 -0.00    +0.000    127.450
ATOM     23  C   UNL     1      38.710  17.061 123.613 -0.25 -0.00    +0.000    127.450
ATOM     24  C   UNL     1      40.192  17.063 123.374 -0.24 -0.00    +0.000    127.450
ATOM     25  C   UNL     1      41.180  17.278 124.330 -0.16 -0.00    +0.000    127.450
ATOM     26  N   UNL     1      42.406  17.076 123.797 -0.36 -0.00    +0.000    127.450
ATOM     27  C   UNL     1      42.201  16.721 122.516 -0.34 -0.00    +0.000    127.450
ATOM     28  C   UNL     1      40.861  16.698 122.221 -0.24 -0.00    +0.000    127.450
ATOM     29  C   UNL     1      40.395  16.324 120.959 -0.17 -0.00    +0.000    127.450
ATOM     30  C   UNL     1      41.347  15.970 119.986 -0.12 -0.00    +0.000    127.450
ATOM     31  C   UNL     1      42.725  15.994 120.290 -0.19 -0.00    +0.000    127.450
ATOM     32  C   UNL     1      43.166  16.371 121.572 -0.28 -0.00    +0.000    127.450
ATOM     33  H   UNL     1      43.273  17.171 124.252 -0.63 -0.00    +0.000    127.450
ATOM     34  CM  UNL     1      41.401  16.970 123.265 +0.00 -0.00    +0.000    127.450
ATOM     35  CM  UNL     1      41.782  16.347 121.258 +0.00 -0.00    +0.000    127.450
TER
ENDMDL
MODEL       23
USER    Run = 23
USER    Cluster Rank = 10
USER    Number of conformations in this cluster = 1
USER  
USER    RMSD from reference structure       = 128.853 A
USER  
USER    Estimated Free Energy of Binding    =  -11.50 kcal/mol  [=(1)+(2)+(3)-(4)]
USER    Estimated Inhibition Constant, Ki   =    3.70 nM (nanomolar)  [Temperature = 298.15 K]
USER    
USER    (1) Final Intermolecular Energy     =  -14.49 kcal/mol
USER        vdW + Hbond + desolv Energy     =  -14.49 kcal/mol
USER        Electrostatic Energy            =   +0.00 kcal/mol
USER    (2) Final Total Internal Energy     =   -1.54 kcal/mol
USER    (3) Torsional Free Energy           =   +2.98 kcal/mol
USER    (4) Unbound System's Energy  [=(2)] =   -1.54 kcal/mol
USER    
USER    
USER  
USER    DPF = ligand_dock.biased.dpf
USER    NEWDPF move	ligand.dum.pdbqt
USER    NEWDPF about	0.288000 0.007000 -0.056000
USER    NEWDPF tran0	35.318482 17.940349 123.630589
USER    NEWDPF axisangle0	0.642084 0.071314 -0.763310 163.592963
USER    NEWDPF quaternion0	0.635514 0.070584 -0.755499 0.142690
USER    NEWDPF dihe0	157.09 62.15 36.38 -175.15 124.51 162.91 176.62 133.41 -169.34 -135.67 
USER  
USER                              x       y       z    vdW   Elec        q     RMS 
ATOM      1  N   UNL     1      35.553  17.833 124.941 -0.27 -0.00    +0.000    128.853
ATOM      2  H   UNL     1      35.916  17.202 125.655 -0.02 -0.00    +0.000    128.853
ATOM      3  C   UNL     1      36.203  17.360 123.691 -0.29 -0.00    +0.000    128.853
ATOM      4  C   UNL     1      36.613  13.044 123.434 -0.56 -0.00    +0.000    128.853
ATOM      5  C   UNL     1      37.689  13.885 123.111 -0.45 -0.00    +0.000    128.853
ATOM      6  C   UNL     1      37.558  15.274 123.196 -0.33 -0.00    +0.000    128.853
ATOM      7  C   UNL     1      36.339  15.854 123.580 -0.35 -0.00    +0.000    128.853
ATOM      8  C   UNL     1      35.264  15.014 123.916 -0.50 -0.00    +0.000    128.853
ATOM      9  C   UNL     1      35.393  13.625 123.832 -0.26 -0.00    +0.000    128.853
ATOM     10  CM  UNL     1      36.477  14.449 123.511 +0.00 -0.00    +0.000    128.853
ATOM     11  C   UNL     1      36.804  10.916 122.149 -0.61 -0.00    +0.000    128.853
ATOM     12  C   UNL     1      36.799  11.576 123.316 -0.69 -0.00    +0.000    128.853
ATOM     13  O   UNL     1      37.049   8.869 120.958 -2.71 -0.00    +0.000    128.853
ATOM     14  C   UNL     1      36.982   9.453 122.074 -0.64 -0.00    +0.000    128.853
ATOM     15  N   UNL     1      37.078   8.688 123.278 -0.67 -0.00    +0.000    128.853
ATOM     16  O   UNL     1      37.242   7.345 123.227 -2.28 -0.00    +0.000    128.853
ATOM     17  H   UNL     1      37.026   9.141 124.151 -0.55 -0.00    +0.000    128.853
ATOM     18  C   UNL     1      34.085  17.640 124.994 -0.42 -0.00    +0.000    128.853
ATOM     19  C   UNL     1      33.700  16.508 125.951 -0.41 -0.00    +0.000    128.853
ATOM     20  O   UNL     1      32.933  17.017 127.006 -0.58 -0.00    +0.000    128.853
ATOM     21  H   UNL     1      31.991  16.887 126.813 -0.37 -0.00    +0.000    128.853
ATOM     22  C   UNL     1      35.971  19.196 125.346 -0.20 -0.00    +0.000    128.853
ATOM     23  C   UNL     1      34.882  20.217 124.997 -0.11 -0.00    +0.000    128.853
ATOM     24  C   UNL     1      34.315  20.841 126.240 -0.14 -0.00    +0.000    128.853
ATOM     25  C   UNL     1      34.873  21.890 126.962 -0.07 -0.00    +0.000    128.853
ATOM     26  N   UNL     1      34.033  22.289 127.943 -0.04 -0.00    +0.000    128.853
ATOM     27  C   UNL     1      32.942  21.511 127.837 -0.09 -0.00    +0.000    128.853
ATOM     28  C   UNL     1      33.074  20.616 126.805 -0.17 -0.00    +0.000    128.853
ATOM     29  C   UNL     1      32.054  19.722 126.475 -0.18 -0.00    +0.000    128.853
ATOM     30  C   UNL     1      30.874  19.762 127.238 -0.29 -0.00    +0.000    128.853
ATOM     31  C   UNL     1      30.738  20.682 128.300 -0.17 -0.00    +0.000    128.853
ATOM     32  C   UNL     1      31.781  21.574 128.607 -0.07 -0.00    +0.000    128.853
ATOM     33  H   UNL     1      34.188  23.004 128.602 +0.00 -0.00    +0.000    128.853
ATOM     34  CM  UNL     1      33.853  21.457 127.182 +0.00 -0.00    +0.000    128.853
ATOM     35  CM  UNL     1      31.911  20.644 127.544 +0.00 -0.00    +0.000    128.853
TER
ENDMDL
MODEL       71
USER    Run = 71
USER    Cluster Rank = 11
USER    Number of conformations in this cluster = 2
USER  
USER    RMSD from reference structure       = 124.898 A
USER  
USER    Estimated Free Energy of Binding    =  -11.42 kcal/mol  [=(1)+(2)+(3)-(4)]
USER    Estimated Inhibition Constant, Ki   =    4.25 nM (nanomolar)  [Temperature = 298.15 K]
USER    
USER    (1) Final Intermolecular Energy     =  -14.40 kcal/mol
USER        vdW + Hbond + desolv Energy     =  -14.40 kcal/mol
USER        Electrostatic Energy            =   +0.00 kcal/mol
USER    (2) Final Total Internal Energy     =   -2.18 kcal/mol
USER    (3) Torsional Free Energy           =   +2.98 kcal/mol
USER    (4) Unbound System's Energy  [=(2)] =   -2.18 kcal/mol
USER    
USER    
USER  
USER    DPF = ligand_dock.biased.dpf
USER    NEWDPF move	ligand.dum.pdbqt
USER    NEWDPF about	0.288000 0.007000 -0.056000
USER    NEWDPF tran0	35.871142 18.770734 123.249242
USER    NEWDPF axisangle0	0.495876 0.561534 0.662410 160.999486
USER    NEWDPF quaternion0	0.489075 0.553833 0.653325 0.165052
USER    NEWDPF dihe0	-177.49 170.31 -149.03 -141.06 -73.09 -155.35 168.87 127.95 -75.72 172.63 
USER  
USER                              x       y       z    vdW   Elec        q     RMS 
ATOM      1  N   UNL     1      36.248  18.449 122.009 -0.17 -0.00    +0.000    124.898
ATOM      2  H   UNL     1      36.816  17.792 121.475 +0.00 -0.00    +0.000    124.898
ATOM      3  C   UNL     1      35.952  17.714 123.267 -0.27 -0.00    +0.000    124.898
ATOM      4  C   UNL     1      36.814  13.461 123.080 -0.51 -0.00    +0.000    124.898
ATOM      5  C   UNL     1      35.660  13.930 123.727 -0.47 -0.00    +0.000    124.898
ATOM      6  C   UNL     1      35.381  15.298 123.784 -0.47 -0.00    +0.000    124.898
ATOM      7  C   UNL     1      36.265  16.231 123.221 -0.32 -0.00    +0.000    124.898
ATOM      8  C   UNL     1      37.414  15.765 122.561 -0.28 -0.00    +0.000    124.898
ATOM      9  C   UNL     1      37.695  14.396 122.502 -0.40 -0.00    +0.000    124.898
ATOM     10  CM  UNL     1      36.538  14.846 123.146 +0.00 -0.00    +0.000    124.898
ATOM     11  C   UNL     1      36.570  11.170 122.129 -0.63 -0.00    +0.000    124.898
ATOM     12  C   UNL     1      37.071  11.999 123.055 -0.65 -0.00    +0.000    124.898
ATOM     13  O   UNL     1      37.017   9.085 121.069 -2.71 -0.00    +0.000    124.898
ATOM     14  C   UNL     1      36.840   9.719 122.145 -0.65 -0.00    +0.000    124.898
ATOM     15  N   UNL     1      36.901   9.023 123.392 -0.59 -0.00    +0.000    124.898
ATOM     16  O   UNL     1      37.148   7.692 123.424 -2.64 -0.00    +0.000    124.898
ATOM     17  H   UNL     1      36.763   9.515 124.235 -0.48 -0.00    +0.000    124.898
ATOM     18  C   UNL     1      37.117  19.638 122.169 -0.13 -0.00    +0.000    124.898
ATOM     19  C   UNL     1      36.336  20.839 122.709 -0.10 -0.00    +0.000    124.898
ATOM     20  O   UNL     1      36.668  21.989 121.980 -0.18 -0.00    +0.000    124.898
ATOM     21  H   UNL     1      35.864  22.367 121.590 -0.67 -0.00    +0.000    124.898
ATOM     22  C   UNL     1      35.046  18.719 121.185 -0.25 -0.00    +0.000    124.898
ATOM     23  C   UNL     1      35.449  19.094 119.755 -0.19 -0.00    +0.000    124.898
ATOM     24  C   UNL     1      35.130  17.982 118.798 -0.15 -0.00    +0.000    124.898
ATOM     25  C   UNL     1      34.327  18.075 117.667 -0.12 -0.00    +0.000    124.898
ATOM     26  N   UNL     1      34.365  16.921 116.963 -0.13 -0.00    +0.000    124.898
ATOM     27  C   UNL     1      35.198  16.106 117.632 -0.13 -0.00    +0.000    124.898
ATOM     28  C   UNL     1      35.689  16.718 118.757 -0.11 -0.00    +0.000    124.898
ATOM     29  C   UNL     1      36.603  16.083 119.599 -0.15 -0.00    +0.000    124.898
ATOM     30  C   UNL     1      37.011  14.780 119.261 -0.24 -0.00    +0.000    124.898
ATOM     31  C   UNL     1      36.505  14.149 118.104 -0.34 -0.00    +0.000    124.898
ATOM     32  C   UNL     1      35.588  14.816 117.272 -0.27 -0.00    +0.000    124.898
ATOM     33  H   UNL     1      33.881  16.718 116.130 +0.00 -0.00    +0.000    124.898
ATOM     34  CM  UNL     1      34.924  17.153 117.931 +0.00 -0.00    +0.000    124.898
ATOM     35  CM  UNL     1      36.098  15.442 118.438 +0.00 -0.00    +0.000    124.898
TER
ENDMDL
MODEL       35
USER    Run = 35
USER    Cluster Rank = 12
USER    Number of conformations in this cluster = 2
USER  
USER    RMSD from reference structure       = 128.214 A
USER  
USER    Estimated Free Energy of Binding    =  -11.38 kcal/mol  [=(1)+(2)+(3)-(4)]
USER    Estimated Inhibition Constant, Ki   =    4.56 nM (nanomolar)  [Temperature = 298.15 K]
USER    
USER    (1) Final Intermolecular Energy     =  -14.36 kcal/mol
USER        vdW + Hbond + desolv Energy     =  -14.36 kcal/mol
USER        Electrostatic Energy            =   +0.00 kcal/mol
USER    (2) Final Total Internal Energy     =   -2.46 kcal/mol
USER    (3) Torsional Free Energy           =   +2.98 kcal/mol
USER    (4) Unbound System's Energy  [=(2)] =   -2.46 kcal/mol
USER    
USER    
USER  
USER    DPF = ligand_dock.biased.dpf
USER    NEWDPF move	ligand.dum.pdbqt
USER    NEWDPF about	0.288000 0.007000 -0.056000
USER    NEWDPF tran0	36.401555 17.203860 123.917457
USER    NEWDPF axisangle0	0.423119 -0.474356 0.771982 134.964686
USER    NEWDPF quaternion0	0.390861 -0.438192 0.713127 0.382968
USER    NEWDPF dihe0	-2.32 -71.80 27.56 171.26 -14.60 -133.19 -157.46 2.85 28.73 -37.34 
USER  
USER                              x       y       z    vdW   Elec        q     RMS 
ATOM      1  N   UNL     1      36.862  18.457 123.911 -0.17 -0.00    +0.000    128.214
ATOM      2  H   UNL     1      37.057  19.251 123.301 +0.00 -0.00    +0.000    128.214
ATOM      3  C   UNL     1      35.831  17.688 123.166 -0.28 -0.00    +0.000    128.214
ATOM      4  C   UNL     1      36.393  13.382 123.107 -0.51 -0.00    +0.000    128.214
ATOM      5  C   UNL     1      35.558  13.981 124.063 -0.40 -0.00    +0.000    128.214
ATOM      6  C   UNL     1      35.375  15.366 124.080 -0.47 -0.00    +0.000    128.214
ATOM      7  C   UNL     1      36.046  16.187 123.159 -0.33 -0.00    +0.000    128.214
ATOM      8  C   UNL     1      36.872  15.588 122.194 -0.27 -0.00    +0.000    128.214
ATOM      9  C   UNL     1      37.056  14.202 122.174 -0.37 -0.00    +0.000    128.214
ATOM     10  CM  UNL     1      36.216  14.784 123.130 +0.00 -0.00    +0.000    128.214
ATOM     11  C   UNL     1      36.705  11.150 122.041 -0.62 -0.00    +0.000    128.214
ATOM     12  C   UNL     1      36.563  11.907 123.138 -0.68 -0.00    +0.000    128.214
ATOM     13  O   UNL     1      36.805   8.979 121.068 -2.64 -0.00    +0.000    128.214
ATOM     14  C   UNL     1      36.861   9.684 122.113 -0.64 -0.00    +0.000    128.214
ATOM     15  N   UNL     1      37.077   9.055 123.378 -0.60 -0.00    +0.000    128.214
ATOM     16  O   UNL     1      37.222   7.712 123.461 -2.65 -0.00    +0.000    128.214
ATOM     17  H   UNL     1      37.121   9.603 124.196 -0.59 -0.00    +0.000    128.214
ATOM     18  C   UNL     1      38.169  17.776 124.055 -0.21 -0.00    +0.000    128.214
ATOM     19  C   UNL     1      39.174  18.256 123.005 -0.14 -0.00    +0.000    128.214
ATOM     20  O   UNL     1      38.501  18.909 121.965 -0.07 -0.00    +0.000    128.214
ATOM     21  H   UNL     1      37.903  18.285 121.525 +0.00 -0.00    +0.000    128.214
ATOM     22  C   UNL     1      36.366  19.030 125.185 -0.19 -0.00    +0.000    128.214
ATOM     23  C   UNL     1      35.183  19.970 124.926 -0.18 -0.00    +0.000    128.214
ATOM     24  C   UNL     1      34.142  19.828 125.998 -0.19 -0.00    +0.000    128.214
ATOM     25  C   UNL     1      33.341  20.845 126.507 -0.16 -0.00    +0.000    128.214
ATOM     26  N   UNL     1      32.422  20.342 127.362 -0.18 -0.00    +0.000    128.214
ATOM     27  C   UNL     1      32.626  19.013 127.385 -0.21 -0.00    +0.000    128.214
ATOM     28  C   UNL     1      33.665  18.659 126.562 -0.26 -0.00    +0.000    128.214
ATOM     29  C   UNL     1      34.045  17.328 126.391 -0.33 -0.00    +0.000    128.214
ATOM     30  C   UNL     1      33.327  16.344 127.096 -0.36 -0.00    +0.000    128.214
ATOM     31  C   UNL     1      32.258  16.708 127.943 -0.40 -0.00    +0.000    128.214
ATOM     32  C   UNL     1      31.895  18.059 128.093 -0.25 -0.00    +0.000    128.214
ATOM     33  H   UNL     1      31.742  20.845 127.865 +0.00 -0.00    +0.000    128.214
ATOM     34  CM  UNL     1      33.212  19.757 126.781 +0.00 -0.00    +0.000    128.214
ATOM     35  CM  UNL     1      32.970  17.686 127.245 +0.00 -0.00    +0.000    128.214
TER
ENDMDL
MODEL       59
USER    Run = 59
USER    Cluster Rank = 13
USER    Number of conformations in this cluster = 4
USER  
USER    RMSD from reference structure       = 127.362 A
USER  
USER    Estimated Free Energy of Binding    =  -11.34 kcal/mol  [=(1)+(2)+(3)-(4)]
USER    Estimated Inhibition Constant, Ki   =    4.87 nM (nanomolar)  [Temperature = 298.15 K]
USER    
USER    (1) Final Intermolecular Energy     =  -14.32 kcal/mol
USER        vdW + Hbond + desolv Energy     =  -14.32 kcal/mol
USER        Electrostatic Energy            =   +0.00 kcal/mol
USER    (2) Final Total Internal Energy     =   -1.81 kcal/mol
USER    (3) Torsional Free Energy           =   +2.98 kcal/mol
USER    (4) Unbound System's Energy  [=(2)] =   -1.81 kcal/mol
USER    
USER    
USER  
USER    DPF = ligand_dock.biased.dpf
USER    NEWDPF move	ligand.dum.pdbqt
USER    NEWDPF about	0.288000 0.007000 -0.056000
USER    NEWDPF tran0	38.120347 15.421708 122.364589
USER    NEWDPF axisangle0	-0.310197 0.404620 -0.860268 -157.101017
USER    NEWDPF quaternion0	-0.304024 0.396568 -0.843148 -0.198504
USER    NEWDPF dihe0	-166.22 34.82 67.95 -140.45 -144.94 -152.40 -154.75 163.96 36.98 -30.88 
USER  
USER                              x       y       z    vdW   Elec        q     RMS 
ATOM      1  N   UNL     1      39.050  16.355 122.144 -0.20 -0.00    +0.000    127.362
ATOM      2  H   UNL     1      39.576  16.823 121.406 +0.01 -0.00    +0.000    127.362
ATOM      3  C   UNL     1      37.828  15.871 121.450 -0.23 -0.00    +0.000    127.362
ATOM      4  C   UNL     1      36.450  11.990 122.830 -0.59 -0.00    +0.000    127.362
ATOM      5  C   UNL     1      37.128  12.115 121.608 -0.48 -0.00    +0.000    127.362
ATOM      6  C   UNL     1      37.574  13.363 121.166 -0.41 -0.00    +0.000    127.362
ATOM      7  C   UNL     1      37.326  14.520 121.922 -0.34 -0.00    +0.000    127.362
ATOM      8  C   UNL     1      36.659  14.396 123.152 -0.44 -0.00    +0.000    127.362
ATOM      9  C   UNL     1      36.213  13.148 123.597 -0.54 -0.00    +0.000    127.362
ATOM     10  CM  UNL     1      36.892  13.255 122.379 +0.00 -0.00    +0.000    127.362
ATOM     11  C   UNL     1      36.405   9.502 122.687 -0.72 -0.00    +0.000    127.362
ATOM     12  C   UNL     1      35.986  10.644 123.251 -0.65 -0.00    +0.000    127.362
ATOM     13  O   UNL     1      36.690   7.191 123.184 -2.02 -0.00    +0.000    127.362
ATOM     14  C   UNL     1      35.912   8.182 123.127 -0.73 -0.00    +0.000    127.362
ATOM     15  N   UNL     1      34.539   8.023 123.492 -0.64 -0.00    +0.000    127.362
ATOM     16  O   UNL     1      34.071   6.819 123.898 -0.83 -0.00    +0.000    127.362
ATOM     17  H   UNL     1      33.929   8.795 123.449 -0.42 -0.00    +0.000    127.362
ATOM     18  C   UNL     1      39.960  15.290 122.623 -0.39 -0.00    +0.000    127.362
ATOM     19  C   UNL     1      41.428  15.645 122.369 -0.46 -0.00    +0.000    127.362
ATOM     20  O   UNL     1      41.945  16.347 123.466 -1.10 +0.00    +0.000    127.362
ATOM     21  H   UNL     1      42.808  15.978 123.708 -0.08 +0.00    +0.000    127.362
ATOM     22  C   UNL     1      38.777  17.387 123.172 -0.22 -0.00    +0.000    127.362
ATOM     23  C   UNL     1      37.911  18.509 122.589 -0.12 -0.00    +0.000    127.362
ATOM     24  C   UNL     1      36.947  19.030 123.615 -0.14 -0.00    +0.000    127.362
ATOM     25  C   UNL     1      36.794  20.358 124.000 -0.12 -0.00    +0.000    127.362
ATOM     26  N   UNL     1      35.746  20.488 124.845 -0.16 -0.00    +0.000    127.362
ATOM     27  C   UNL     1      35.226  19.256 124.983 -0.21 -0.00    +0.000    127.362
ATOM     28  C   UNL     1      35.929  18.339 124.245 -0.22 -0.00    +0.000    127.362
ATOM     29  C   UNL     1      35.558  16.994 124.199 -0.33 -0.00    +0.000    127.362
ATOM     30  C   UNL     1      34.432  16.598 124.943 -0.44 -0.00    +0.000    127.362
ATOM     31  C   UNL     1      33.708  17.542 125.704 -0.34 -0.00    +0.000    127.362
ATOM     32  C   UNL     1      34.103  18.892 125.727 -0.27 -0.00    +0.000    127.362
ATOM     33  H   UNL     1      35.428  21.315 125.272 -0.01 -0.00    +0.000    127.362
ATOM     34  CM  UNL     1      36.116  19.526 124.354 -0.01 -0.00    +0.000    127.362
ATOM     35  CM  UNL     1      34.827  17.937 124.967 -0.48 -0.00    +0.000    127.362
TER
ENDMDL
MODEL       41
USER    Run = 41
USER    Cluster Rank = 14
USER    Number of conformations in this cluster = 5
USER  
USER    RMSD from reference structure       = 124.597 A
USER  
USER    Estimated Free Energy of Binding    =  -11.27 kcal/mol  [=(1)+(2)+(3)-(4)]
USER    Estimated Inhibition Constant, Ki   =    5.51 nM (nanomolar)  [Temperature = 298.15 K]
USER    
USER    (1) Final Intermolecular Energy     =  -14.25 kcal/mol
USER        vdW + Hbond + desolv Energy     =  -14.25 kcal/mol
USER        Electrostatic Energy            =   +0.00 kcal/mol
USER    (2) Final Total Internal Energy     =   -2.13 kcal/mol
USER    (3) Torsional Free Energy           =   +2.98 kcal/mol
USER    (4) Unbound System's Energy  [=(2)] =   -2.13 kcal/mol
USER    
USER    
USER  
USER    DPF = ligand_dock.biased.dpf
USER    NEWDPF move	ligand.dum.pdbqt
USER    NEWDPF about	0.288000 0.007000 -0.056000
USER    NEWDPF tran0	39.395702 16.195289 121.597758
USER    NEWDPF axisangle0	0.328006 0.048451 0.943432 -147.348706
USER    NEWDPF quaternion0	0.314781 0.046498 0.905393 -0.281096
USER    NEWDPF dihe0	-102.95 166.03 -171.69 125.53 157.75 27.61 -9.43 0.31 46.99 -121.82 
USER  
USER                              x       y       z    vdW   Elec        q     RMS 
ATOM      1  N   UNL     1      40.380  15.751 120.812 -0.21 -0.00    +0.000    124.597
ATOM      2  H   UNL     1      40.642  14.990 120.185 -0.02 -0.00    +0.000    124.597
ATOM      3  C   UNL     1      38.894  15.727 120.790 -0.22 -0.00    +0.000    124.597
ATOM      4  C   UNL     1      37.072  11.873 121.620 -0.50 -0.00    +0.000    124.597
ATOM      5  C   UNL     1      37.301  12.793 122.654 -0.50 -0.00    +0.000    124.597
ATOM      6  C   UNL     1      37.885  14.034 122.387 -0.42 -0.00    +0.000    124.597
ATOM      7  C   UNL     1      38.279  14.372 121.082 -0.32 -0.00    +0.000    124.597
ATOM      8  C   UNL     1      38.039  13.458 120.043 -0.32 -0.00    +0.000    124.597
ATOM      9  C   UNL     1      37.455  12.216 120.309 -0.47 -0.00    +0.000    124.597
ATOM     10  CM  UNL     1      37.671  13.124 121.350 +0.00 -0.00    +0.000    124.597
ATOM     11  C   UNL     1      36.812   9.828 123.023 -0.64 -0.00    +0.000    124.597
ATOM     12  C   UNL     1      36.460  10.563 121.958 -0.60 -0.00    +0.000    124.597
ATOM     13  O   UNL     1      36.891   7.487 123.451 -2.44 -0.00    +0.000    124.597
ATOM     14  C   UNL     1      36.186   8.525 123.319 -0.58 -0.00    +0.000    124.597
ATOM     15  N   UNL     1      34.766   8.435 123.455 -0.60 -0.00    +0.000    124.597
ATOM     16  O   UNL     1      34.176   7.246 123.726 -0.78 -0.00    +0.000    124.597
ATOM     17  H   UNL     1      34.212   9.243 123.351 -0.47 -0.00    +0.000    124.597
ATOM     18  C   UNL     1      40.992  15.383 122.109 -0.44 -0.00    +0.000    124.597
ATOM     19  C   UNL     1      41.450  16.619 122.888 -0.38 -0.00    +0.000    124.597
ATOM     20  O   UNL     1      42.691  16.371 123.489 -1.08 +0.00    +0.000    124.597
ATOM     21  H   UNL     1      42.853  17.031 124.181 -0.50 -0.00    +0.000    124.597
ATOM     22  C   UNL     1      40.960  16.983 120.228 -0.13 -0.00    +0.000    124.597
ATOM     23  C   UNL     1      40.189  17.395 118.970 -0.07 -0.00    +0.000    124.597
ATOM     24  C   UNL     1      40.450  16.438 117.843 -0.12 -0.00    +0.000    124.597
ATOM     25  C   UNL     1      41.696  16.066 117.351 -0.20 -0.00    +0.000    124.597
ATOM     26  N   UNL     1      41.568  15.086 116.428 -0.34 -0.00    +0.000    124.597
ATOM     27  C   UNL     1      40.252  14.825 116.344 -0.20 -0.00    +0.000    124.597
ATOM     28  C   UNL     1      39.535  15.627 117.195 -0.16 -0.00    +0.000    124.597
ATOM     29  C   UNL     1      38.149  15.520 117.312 -0.15 -0.00    +0.000    124.597
ATOM     30  C   UNL     1      37.496  14.556 116.523 -0.26 -0.00    +0.000    124.597
ATOM     31  C   UNL     1      38.234  13.730 115.646 -0.40 -0.00    +0.000    124.597
ATOM     32  C   UNL     1      39.631  13.859 115.552 -0.37 -0.00    +0.000    124.597
ATOM     33  H   UNL     1      42.290  14.652 115.920 -0.35 -0.00    +0.000    124.597
ATOM     34  CM  UNL     1      40.728  15.591 117.013 +0.00 -0.00    +0.000    124.597
ATOM     35  CM  UNL     1      38.883  14.687 116.429 +0.00 -0.00    +0.000    124.597
TER
ENDMDL
MODEL       32
USER    Run = 32
USER    Cluster Rank = 15
USER    Number of conformations in this cluster = 3
USER  
USER    RMSD from reference structure       = 124.918 A
USER  
USER    Estimated Free Energy of Binding    =  -11.24 kcal/mol  [=(1)+(2)+(3)-(4)]
USER    Estimated Inhibition Constant, Ki   =    5.78 nM (nanomolar)  [Temperature = 298.15 K]
USER    
USER    (1) Final Intermolecular Energy     =  -14.22 kcal/mol
USER        vdW + Hbond + desolv Energy     =  -14.22 kcal/mol
USER        Electrostatic Energy            =   +0.00 kcal/mol
USER    (2) Final Total Internal Energy     =   -2.19 kcal/mol
USER    (3) Torsional Free Energy           =   +2.98 kcal/mol
USER    (4) Unbound System's Energy  [=(2)] =   -2.19 kcal/mol
USER    
USER    
USER  
USER    DPF = ligand_dock.biased.dpf
USER    NEWDPF move	ligand.dum.pdbqt
USER    NEWDPF about	0.288000 0.007000 -0.056000
USER    NEWDPF tran0	35.441988 18.336966 122.754980
USER    NEWDPF axisangle0	-0.338872 -0.768471 -0.542787 -140.574015
USER    NEWDPF quaternion0	-0.319012 -0.723434 -0.510976 -0.337309
USER    NEWDPF dihe0	6.34 -63.64 29.30 159.05 -164.82 51.95 -59.58 -62.82 -99.29 121.71 
USER  
USER                              x       y       z    vdW   Elec        q     RMS 
ATOM      1  N   UNL     1      35.935  18.102 121.537 -0.20 -0.00    +0.000    124.918
ATOM      2  H   UNL     1      36.783  17.830 121.039 +0.00 -0.00    +0.000    124.918
ATOM      3  C   UNL     1      36.137  17.551 122.902 -0.26 -0.00    +0.000    124.918
ATOM      4  C   UNL     1      36.402  13.221 123.113 -0.52 -0.00    +0.000    124.918
ATOM      5  C   UNL     1      36.812  13.907 121.960 -0.30 -0.00    +0.000    124.918
ATOM      6  C   UNL     1      36.729  15.300 121.893 -0.23 -0.00    +0.000    124.918
ATOM      7  C   UNL     1      36.208  16.037 122.968 -0.32 -0.00    +0.000    124.918
ATOM      8  C   UNL     1      35.809  15.354 124.129 -0.41 -0.00    +0.000    124.918
ATOM      9  C   UNL     1      35.892  13.960 124.198 -0.39 -0.00    +0.000    124.918
ATOM     10  CM  UNL     1      36.309  14.630 123.043 +0.00 -0.00    +0.000    124.918
ATOM     11  C   UNL     1      36.857  11.004 122.068 -0.59 -0.00    +0.000    124.918
ATOM     12  C   UNL     1      36.499  11.739 123.130 -0.69 -0.00    +0.000    124.918
ATOM     13  O   UNL     1      36.856   8.843 121.068 -2.65 -0.00    +0.000    124.918
ATOM     14  C   UNL     1      36.932   9.530 122.123 -0.64 -0.00    +0.000    124.918
ATOM     15  N   UNL     1      37.090   8.875 123.383 -0.62 -0.00    +0.000    124.918
ATOM     16  O   UNL     1      37.160   7.524 123.450 -2.53 -0.00    +0.000    124.918
ATOM     17  H   UNL     1      37.150   9.409 124.209 -0.60 -0.00    +0.000    124.918
ATOM     18  C   UNL     1      35.923  19.581 121.455 -0.04 -0.00    +0.000    124.918
ATOM     19  C   UNL     1      37.271  20.131 120.979 -0.10 -0.00    +0.000    124.918
ATOM     20  O   UNL     1      38.219  19.100 120.939 -0.05 -0.00    +0.000    124.918
ATOM     21  H   UNL     1      38.252  18.659 121.802 +0.00 -0.00    +0.000    124.918
ATOM     22  C   UNL     1      34.810  17.474 120.806 -0.21 -0.00    +0.000    124.918
ATOM     23  C   UNL     1      34.552  18.208 119.485 -0.25 -0.00    +0.000    124.918
ATOM     24  C   UNL     1      33.153  18.749 119.436 -0.30 -0.00    +0.000    124.918
ATOM     25  C   UNL     1      32.039  18.209 120.069 -0.42 -0.00    +0.000    124.918
ATOM     26  N   UNL     1      30.970  19.023 119.924 -0.50 -0.00    +0.000    124.918
ATOM     27  C   UNL     1      31.403  20.082 119.217 -0.29 -0.00    +0.000    124.918
ATOM     28  C   UNL     1      32.732  19.953 118.903 -0.22 -0.00    +0.000    124.918
ATOM     29  C   UNL     1      33.419  20.944 118.200 -0.14 -0.00    +0.000    124.918
ATOM     30  C   UNL     1      32.703  22.092 117.815 -0.13 -0.00    +0.000    124.918
ATOM     31  C   UNL     1      31.335  22.224 118.138 -0.15 -0.00    +0.000    124.918
ATOM     32  C   UNL     1      30.670  21.210 118.851 -0.18 -0.00    +0.000    124.918
ATOM     33  H   UNL     1      30.059  18.873 120.265 -0.30 -0.00    +0.000    124.918
ATOM     34  CM  UNL     1      32.024  19.198 119.524 +0.00 -0.00    +0.000    124.918
ATOM     35  CM  UNL     1      32.044  21.084 118.521 +0.00 -0.00    +0.000    124.918
TER
ENDMDL
MODEL       89
USER    Run = 89
USER    Cluster Rank = 16
USER    Number of conformations in this cluster = 1
USER  
USER    RMSD from reference structure       = 126.050 A
USER  
USER    Estimated Free Energy of Binding    =  -11.17 kcal/mol  [=(1)+(2)+(3)-(4)]
USER    Estimated Inhibition Constant, Ki   =    6.52 nM (nanomolar)  [Temperature = 298.15 K]
USER    
USER    (1) Final Intermolecular Energy     =  -14.15 kcal/mol
USER        vdW + Hbond + desolv Energy     =  -14.15 kcal/mol
USER        Electrostatic Energy            =   +0.00 kcal/mol
USER    (2) Final Total Internal Energy     =   -2.43 kcal/mol
USER    (3) Torsional Free Energy           =   +2.98 kcal/mol
USER    (4) Unbound System's Energy  [=(2)] =   -2.43 kcal/mol
USER    
USER    
USER  
USER    DPF = ligand_dock.biased.dpf
USER    NEWDPF move	ligand.dum.pdbqt
USER    NEWDPF about	0.288000 0.007000 -0.056000
USER    NEWDPF tran0	39.105964 16.935154 121.779288
USER    NEWDPF axisangle0	-0.377488 -0.452146 -0.808125 142.400620
USER    NEWDPF quaternion0	-0.357350 -0.428025 -0.765012 0.322261
USER    NEWDPF dihe0	-134.43 -98.86 44.05 -160.34 65.81 142.10 147.20 45.28 -127.87 -173.25 
USER  
USER                              x       y       z    vdW   Elec        q     RMS 
ATOM      1  N   UNL     1      39.862  16.027 121.158 -0.20 -0.00    +0.000    126.050
ATOM      2  H   UNL     1      40.066  15.028 121.113 -0.01 -0.00    +0.000    126.050
ATOM      3  C   UNL     1      38.484  16.079 121.713 -0.23 -0.00    +0.000    126.050
ATOM      4  C   UNL     1      36.691  12.221 122.587 -0.55 -0.00    +0.000    126.050
ATOM      5  C   UNL     1      36.547  13.295 123.478 -0.54 -0.00    +0.000    126.050
ATOM      6  C   UNL     1      37.122  14.537 123.196 -0.41 -0.00    +0.000    126.050
ATOM      7  C   UNL     1      37.878  14.726 122.028 -0.34 -0.00    +0.000    126.050
ATOM      8  C   UNL     1      38.013  13.656 121.128 -0.38 -0.00    +0.000    126.050
ATOM      9  C   UNL     1      37.438  12.413 121.408 -0.46 -0.00    +0.000    126.050
ATOM     10  CM  UNL     1      37.281  13.475 122.305 +0.00 -0.00    +0.000    126.050
ATOM     11  C   UNL     1      36.694   9.739 122.813 -0.70 -0.00    +0.000    126.050
ATOM     12  C   UNL     1      36.071  10.919 122.938 -0.69 -0.00    +0.000    126.050
ATOM     13  O   UNL     1      36.724   7.423 123.368 -2.28 -0.00    +0.000    126.050
ATOM     14  C   UNL     1      36.039   8.463 123.163 -0.69 -0.00    +0.000    126.050
ATOM     15  N   UNL     1      34.615   8.404 123.270 -0.61 -0.00    +0.000    126.050
ATOM     16  O   UNL     1      33.999   7.241 123.591 -0.76 -0.00    +0.000    126.050
ATOM     17  H   UNL     1      34.078   9.214 123.110 -0.45 -0.00    +0.000    126.050
ATOM     18  C   UNL     1      40.915  16.576 122.043 -0.27 -0.00    +0.000    126.050
ATOM     19  C   UNL     1      41.892  15.489 122.498 -0.51 -0.00    +0.000    126.050
ATOM     20  O   UNL     1      41.185  14.339 122.872 -1.06 +0.00    +0.000    126.050
ATOM     21  H   UNL     1      41.797  13.589 122.936 -0.08 -0.00    +0.000    126.050
ATOM     22  C   UNL     1      39.958  16.528 119.766 -0.13 -0.00    +0.000    126.050
ATOM     23  C   UNL     1      41.285  17.264 119.552 -0.10 -0.00    +0.000    126.050
ATOM     24  C   UNL     1      42.376  16.303 119.177 -0.15 -0.00    +0.000    126.050
ATOM     25  C   UNL     1      42.398  15.480 118.056 -0.12 -0.00    +0.000    126.050
ATOM     26  N   UNL     1      43.589  14.846 117.957 -0.34 -0.00    +0.000    126.050
ATOM     27  C   UNL     1      44.325  15.275 118.998 -0.31 -0.00    +0.000    126.050
ATOM     28  C   UNL     1      43.621  16.169 119.764 -0.20 -0.00    +0.000    126.050
ATOM     29  C   UNL     1      44.186  16.780 120.883 -0.20 -0.00    +0.000    126.050
ATOM     30  C   UNL     1      45.514  16.451 121.211 -0.24 +0.00    +0.000    126.050
ATOM     31  C   UNL     1      46.238  15.530 120.423 -0.25 +0.00    +0.000    126.050
ATOM     32  C   UNL     1      45.643  14.932 119.297 -0.37 +0.00    +0.000    126.050
ATOM     33  H   UNL     1      43.862  14.202 117.265 -0.51 -0.00    +0.000    126.050
ATOM     34  CM  UNL     1      43.273  15.591 118.763 +0.00 -0.00    +0.000    126.050
ATOM     35  CM  UNL     1      44.921  15.856 120.096 +0.00 +0.00    +0.000    126.050
TER
ENDMDL
MODEL       97
USER    Run = 97
USER    Cluster Rank = 17
USER    Number of conformations in this cluster = 1
USER  
USER    RMSD from reference structure       = 128.299 A
USER  
USER    Estimated Free Energy of Binding    =  -11.04 kcal/mol  [=(1)+(2)+(3)-(4)]
USER    Estimated Inhibition Constant, Ki   =    8.02 nM (nanomolar)  [Temperature = 298.15 K]
USER    
USER    (1) Final Intermolecular Energy     =  -14.03 kcal/mol
USER        vdW + Hbond + desolv Energy     =  -14.03 kcal/mol
USER        Electrostatic Energy            =   +0.00 kcal/mol
USER    (2) Final Total Internal Energy     =   -1.71 kcal/mol
USER    (3) Torsional Free Energy           =   +2.98 kcal/mol
USER    (4) Unbound System's Energy  [=(2)] =   -1.71 kcal/mol
USER    
USER    
USER  
USER    DPF = ligand_dock.biased.dpf
USER    NEWDPF move	ligand.dum.pdbqt
USER    NEWDPF about	0.288000 0.007000 -0.056000
USER    NEWDPF tran0	35.135536 18.219826 124.191787
USER    NEWDPF axisangle0	-0.357645 -0.018110 0.933682 -168.766892
USER    NEWDPF quaternion0	-0.355928 -0.018023 0.929199 -0.097870
USER    NEWDPF dihe0	-112.88 -159.22 -99.98 -177.35 122.82 -154.44 -152.12 174.88 120.13 -134.30 
USER  
USER                              x       y       z    vdW   Elec        q     RMS 
ATOM      1  N   UNL     1      36.132  18.266 125.079 -0.22 -0.00    +0.000    128.299
ATOM      2  H   UNL     1      36.923  17.736 125.444 -0.02 -0.00    +0.000    128.299
ATOM      3  C   UNL     1      35.930  17.702 123.719 -0.29 -0.00    +0.000    128.299
ATOM      4  C   UNL     1      36.446  13.394 123.515 -0.53 -0.00    +0.000    128.299
ATOM      5  C   UNL     1      37.522  14.257 123.254 -0.40 -0.00    +0.000    128.299
ATOM      6  C   UNL     1      37.356  15.642 123.322 -0.31 -0.00    +0.000    128.299
ATOM      7  C   UNL     1      36.104  16.198 123.626 -0.34 -0.00    +0.000    128.299
ATOM      8  C   UNL     1      35.028  15.338 123.900 -0.51 -0.00    +0.000    128.299
ATOM      9  C   UNL     1      35.192  13.951 123.833 -0.30 -0.00    +0.000    128.299
ATOM     10  CM  UNL     1      36.275  14.796 123.575 +0.00 -0.00    +0.000    128.299
ATOM     11  C   UNL     1      36.729  11.260 122.259 -0.63 -0.00    +0.000    128.299
ATOM     12  C   UNL     1      36.670  11.930 123.419 -0.69 -0.00    +0.000    128.299
ATOM     13  O   UNL     1      37.019   9.201 121.098 -2.72 -0.00    +0.000    128.299
ATOM     14  C   UNL     1      36.943   9.800 122.205 -0.62 -0.00    +0.000    128.299
ATOM     15  N   UNL     1      37.064   9.056 123.420 -0.59 -0.00    +0.000    128.299
ATOM     16  O   UNL     1      37.261   7.717 123.388 -2.61 -0.00    +0.000    128.299
ATOM     17  H   UNL     1      37.005   9.521 124.286 -0.53 -0.00    +0.000    128.299
ATOM     18  C   UNL     1      35.037  17.994 126.038 -0.25 -0.00    +0.000    128.299
ATOM     19  C   UNL     1      33.687  17.857 125.329 -0.38 -0.00    +0.000    128.299
ATOM     20  O   UNL     1      32.925  19.015 125.528 -0.32 -0.00    +0.000    128.299
ATOM     21  H   UNL     1      32.033  18.880 125.170 -0.33 -0.00    +0.000    128.299
ATOM     22  C   UNL     1      36.555  19.686 125.074 -0.16 -0.00    +0.000    128.299
ATOM     23  C   UNL     1      35.943  20.424 123.879 -0.17 -0.00    +0.000    128.299
ATOM     24  C   UNL     1      35.650  21.855 124.225 -0.14 -0.00    +0.000    128.299
ATOM     25  C   UNL     1      36.118  22.977 123.549 -0.13 -0.00    +0.000    128.299
ATOM     26  N   UNL     1      35.551  24.100 124.047 -0.11 -0.00    +0.000    128.299
ATOM     27  C   UNL     1      34.718  23.694 125.021 -0.14 -0.00    +0.000    128.299
ATOM     28  C   UNL     1      34.747  22.330 125.158 -0.15 -0.00    +0.000    128.299
ATOM     29  C   UNL     1      33.940  21.667 126.084 -0.16 -0.00    +0.000    128.299
ATOM     30  C   UNL     1      33.086  22.446 126.885 -0.13 -0.00    +0.000    128.299
ATOM     31  C   UNL     1      33.056  23.851 126.745 -0.09 -0.00    +0.000    128.299
ATOM     32  C   UNL     1      33.878  24.490 125.800 -0.09 -0.00    +0.000    128.299
ATOM     33  H   UNL     1      35.715  25.026 123.756 -0.00 -0.00    +0.000    128.299
ATOM     34  CM  UNL     1      35.363  23.027 124.388 +0.00 -0.00    +0.000    128.299
ATOM     35  CM  UNL     1      33.905  23.080 125.948 +0.00 -0.00    +0.000    128.299
TER
ENDMDL
MODEL       40
USER    Run = 40
USER    Cluster Rank = 18
USER    Number of conformations in this cluster = 1
USER  
USER    RMSD from reference structure       = 126.313 A
USER  
USER    Estimated Free Energy of Binding    =  -11.03 kcal/mol  [=(1)+(2)+(3)-(4)]
USER    Estimated Inhibition Constant, Ki   =    8.22 nM (nanomolar)  [Temperature = 298.15 K]
USER    
USER    (1) Final Intermolecular Energy     =  -14.01 kcal/mol
USER        vdW + Hbond + desolv Energy     =  -14.01 kcal/mol
USER        Electrostatic Energy            =   +0.00 kcal/mol
USER    (2) Final Total Internal Energy     =   -2.09 kcal/mol
USER    (3) Torsional Free Energy           =   +2.98 kcal/mol
USER    (4) Unbound System's Energy  [=(2)] =   -2.09 kcal/mol
USER    
USER    
USER  
USER    DPF = ligand_dock.biased.dpf
USER    NEWDPF move	ligand.dum.pdbqt
USER    NEWDPF about	0.288000 0.007000 -0.056000
USER    NEWDPF tran0	37.644267 16.490673 120.119803
USER    NEWDPF axisangle0	0.987913 0.135112 -0.075974 154.147896
USER    NEWDPF quaternion0	0.962879 0.131688 -0.074049 0.223693
USER    NEWDPF dihe0	-179.50 9.63 -26.84 -66.02 -165.47 150.10 -40.06 -9.41 58.20 -180.00 
USER  
USER                              x       y       z    vdW   Elec        q     RMS 
ATOM      1  N   UNL     1      36.336  16.382 120.365 -0.18 -0.00    +0.000    126.313
ATOM      2  H   UNL     1      35.591  15.705 120.528 +0.02 -0.00    +0.000    126.313
ATOM      3  C   UNL     1      37.567  15.650 120.761 -0.23 -0.00    +0.000    126.313
ATOM      4  C   UNL     1      36.927  11.735 122.528 -0.55 -0.00    +0.000    126.313
ATOM      5  C   UNL     1      36.935  11.898 121.134 -0.46 -0.00    +0.000    126.313
ATOM      6  C   UNL     1      37.144  13.157 120.566 -0.40 -0.00    +0.000    126.313
ATOM      7  C   UNL     1      37.321  14.287 121.379 -0.32 -0.00    +0.000    126.313
ATOM      8  C   UNL     1      37.327  14.125 122.774 -0.43 -0.00    +0.000    126.313
ATOM      9  C   UNL     1      37.119  12.866 123.345 -0.54 -0.00    +0.000    126.313
ATOM     10  CM  UNL     1      37.129  13.011 121.954 +0.00 -0.00    +0.000    126.313
ATOM     11  C   UNL     1      36.364   9.314 122.336 -0.72 -0.00    +0.000    126.313
ATOM     12  C   UNL     1      36.690  10.378 123.083 -0.68 -0.00    +0.000    126.313
ATOM     13  O   UNL     1      37.070   7.336 123.458 -2.41 -0.00    +0.000    126.313
ATOM     14  C   UNL     1      36.126   7.982 122.928 -0.77 -0.00    +0.000    126.313
ATOM     15  N   UNL     1      34.813   7.418 122.898 -0.64 -0.00    +0.000    126.313
ATOM     16  O   UNL     1      34.579   6.198 123.435 -0.84 -0.00    +0.000    126.313
ATOM     17  H   UNL     1      34.074   7.920 122.484 -0.01 -0.00    +0.000    126.313
ATOM     18  C   UNL     1      36.233  16.699 118.922 -0.16 -0.00    +0.000    126.313
ATOM     19  C   UNL     1      36.643  15.508 118.052 -0.21 -0.00    +0.000    126.313
ATOM     20  O   UNL     1      35.748  14.447 118.245 -0.33 -0.00    +0.000    126.313
ATOM     21  H   UNL     1      35.328  14.221 117.400 -0.03 -0.00    +0.000    126.313
ATOM     22  C   UNL     1      36.034  17.544 121.234 -0.22 -0.00    +0.000    126.313
ATOM     23  C   UNL     1      36.558  17.302 122.654 -0.24 -0.00    +0.000    126.313
ATOM     24  C   UNL     1      35.445  16.889 123.573 -0.34 -0.00    +0.000    126.313
ATOM     25  C   UNL     1      34.748  15.687 123.531 -0.45 -0.00    +0.000    126.313
ATOM     26  N   UNL     1      33.907  15.590 124.587 -0.56 -0.00    +0.000    126.313
ATOM     27  C   UNL     1      34.080  16.715 125.303 -0.42 -0.00    +0.000    126.313
ATOM     28  C   UNL     1      35.014  17.532 124.719 -0.33 -0.00    +0.000    126.313
ATOM     29  C   UNL     1      35.391  18.745 125.296 -0.22 -0.00    +0.000    126.313
ATOM     30  C   UNL     1      34.779  19.114 126.507 -0.19 -0.00    +0.000    126.313
ATOM     31  C   UNL     1      33.817  18.273 127.109 -0.24 -0.00    +0.000    126.313
ATOM     32  C   UNL     1      33.460  17.054 126.505 -0.33 -0.00    +0.000    126.313
ATOM     33  H   UNL     1      33.294  14.848 124.790 -0.24 -0.00    +0.000    126.313
ATOM     34  CM  UNL     1      34.616  16.453 124.351 -0.10 -0.00    +0.000    126.313
ATOM     35  CM  UNL     1      34.424  17.905 125.906 -0.25 -0.00    +0.000    126.313
TER
ENDMDL
MODEL       62
USER    Run = 62
USER    Cluster Rank = 19
USER    Number of conformations in this cluster = 1
USER  
USER    RMSD from reference structure       = 128.917 A
USER  
USER    Estimated Free Energy of Binding    =  -10.89 kcal/mol  [=(1)+(2)+(3)-(4)]
USER    Estimated Inhibition Constant, Ki   =   10.36 nM (nanomolar)  [Temperature = 298.15 K]
USER    
USER    (1) Final Intermolecular Energy     =  -13.88 kcal/mol
USER        vdW + Hbond + desolv Energy     =  -13.88 kcal/mol
USER        Electrostatic Energy            =   +0.00 kcal/mol
USER    (2) Final Total Internal Energy     =   -1.82 kcal/mol
USER    (3) Torsional Free Energy           =   +2.98 kcal/mol
USER    (4) Unbound System's Energy  [=(2)] =   -1.82 kcal/mol
USER    
USER    
USER  
USER    DPF = ligand_dock.biased.dpf
USER    NEWDPF move	ligand.dum.pdbqt
USER    NEWDPF about	0.288000 0.007000 -0.056000
USER    NEWDPF tran0	36.942385 18.331413 123.992719
USER    NEWDPF axisangle0	-0.967283 -0.253101 0.017424 -110.246585
USER    NEWDPF quaternion0	-0.793544 -0.207640 0.014294 -0.571812
USER    NEWDPF dihe0	50.43 144.30 -42.65 163.21 156.20 -5.63 -54.88 63.25 -178.93 163.02 
USER  
USER                              x       y       z    vdW   Elec        q     RMS 
ATOM      1  N   UNL     1      35.659  17.962 123.992 -0.25 -0.00    +0.000    128.917
ATOM      2  H   UNL     1      35.000  17.307 123.571 -0.01 -0.00    +0.000    128.917
ATOM      3  C   UNL     1      36.973  17.283 123.839 -0.26 -0.00    +0.000    128.917
ATOM      4  C   UNL     1      36.773  12.962 123.448 -0.56 -0.00    +0.000    128.917
ATOM      5  C   UNL     1      37.871  13.676 122.944 -0.46 -0.00    +0.000    128.917
ATOM      6  C   UNL     1      37.936  15.066 123.072 -0.35 -0.00    +0.000    128.917
ATOM      7  C   UNL     1      36.891  15.777 123.683 -0.29 -0.00    +0.000    128.917
ATOM      8  C   UNL     1      35.797  15.064 124.200 -0.42 -0.00    +0.000    128.917
ATOM      9  C   UNL     1      35.730  13.673 124.073 -0.35 -0.00    +0.000    128.917
ATOM     10  CM  UNL     1      36.834  14.369 123.570 +0.00 -0.00    +0.000    128.917
ATOM     11  C   UNL     1      37.062  10.864 122.132 -0.54 -0.00    +0.000    128.917
ATOM     12  C   UNL     1      36.745  11.488 123.276 -0.69 -0.00    +0.000    128.917
ATOM     13  O   UNL     1      36.979   8.853 120.860 -2.69 -0.00    +0.000    128.917
ATOM     14  C   UNL     1      37.012   9.395 121.999 -0.64 -0.00    +0.000    128.917
ATOM     15  N   UNL     1      36.999   8.577 123.170 -0.70 -0.00    +0.000    128.917
ATOM     16  O   UNL     1      36.953   7.228 123.065 -2.14 -0.00    +0.000    128.917
ATOM     17  H   UNL     1      37.024   8.997 124.061 -0.51 -0.00    +0.000    128.917
ATOM     18  C   UNL     1      35.500  19.202 123.198 -0.15 -0.00    +0.000    128.917
ATOM     19  C   UNL     1      36.361  19.176 121.932 -0.18 -0.00    +0.000    128.917
ATOM     20  O   UNL     1      36.533  20.479 121.447 -0.62 -0.00    +0.000    128.917
ATOM     21  H   UNL     1      35.946  21.083 121.927 -0.00 +0.00    +0.000    128.917
ATOM     22  C   UNL     1      35.236  18.121 125.403 -0.29 -0.00    +0.000    128.917
ATOM     23  C   UNL     1      35.676  19.486 125.944 -0.18 -0.00    +0.000    128.917
ATOM     24  C   UNL     1      36.667  19.327 127.060 -0.12 -0.00    +0.000    128.917
ATOM     25  C   UNL     1      36.368  19.159 128.408 -0.11 -0.00    +0.000    128.917
ATOM     26  N   UNL     1      37.494  18.912 129.115 -0.13 -0.00    +0.000    128.917
ATOM     27  C   UNL     1      38.500  18.906 128.222 -0.16 -0.00    +0.000    128.917
ATOM     28  C   UNL     1      38.034  19.152 126.956 -0.14 -0.00    +0.000    128.917
ATOM     29  C   UNL     1      38.887  19.163 125.850 -0.16 -0.00    +0.000    128.917
ATOM     30  C   UNL     1      40.253  18.914 126.073 -0.24 -0.00    +0.000    128.917
ATOM     31  C   UNL     1      40.732  18.661 127.377 -0.31 -0.00    +0.000    128.917
ATOM     32  C   UNL     1      39.848  18.653 128.471 -0.24 -0.00    +0.000    128.917
ATOM     33  H   UNL     1      37.565  18.765 130.086 +0.00 -0.00    +0.000    128.917
ATOM     34  CM  UNL     1      37.415  19.085 127.990 +0.00 -0.00    +0.000    128.917
ATOM     35  CM  UNL     1      39.375  18.908 127.158 +0.00 -0.00    +0.000    128.917
TER
ENDMDL
MODEL       96
USER    Run = 96
USER    Cluster Rank = 20
USER    Number of conformations in this cluster = 1
USER  
USER    RMSD from reference structure       = 126.228 A
USER  
USER    Estimated Free Energy of Binding    =  -10.28 kcal/mol  [=(1)+(2)+(3)-(4)]
USER    Estimated Inhibition Constant, Ki   =   29.25 nM (nanomolar)  [Temperature = 298.15 K]
USER    
USER    (1) Final Intermolecular Energy     =  -13.26 kcal/mol
USER        vdW + Hbond + desolv Energy     =  -13.26 kcal/mol
USER        Electrostatic Energy            =   +0.00 kcal/mol
USER    (2) Final Total Internal Energy     =   -3.78 kcal/mol
USER    (3) Torsional Free Energy           =   +2.98 kcal/mol
USER    (4) Unbound System's Energy  [=(2)] =   -3.78 kcal/mol
USER    
USER    
USER  
USER    DPF = ligand_dock.biased.dpf
USER    NEWDPF move	ligand.dum.pdbqt
USER    NEWDPF about	0.288000 0.007000 -0.056000
USER    NEWDPF tran0	37.502154 18.248197 124.070140
USER    NEWDPF axisangle0	0.345387 0.299962 0.889231 -165.929171
USER    NEWDPF quaternion0	0.342786 0.297703 0.882535 -0.122483
USER    NEWDPF dihe0	120.54 -102.54 63.65 -178.69 144.81 -52.31 120.49 -101.43 -56.16 -163.46 
USER  
USER                              x       y       z    vdW   Elec        q     RMS 
ATOM      1  N   UNL     1      38.462  17.944 123.193 -0.15 -0.00    +0.000    126.228
ATOM      2  H   UNL     1      38.948  17.161 122.756 +0.00 -0.00    +0.000    126.228
ATOM      3  C   UNL     1      37.157  17.362 123.603 -0.25 -0.00    +0.000    126.228
ATOM      4  C   UNL     1      36.960  13.031 123.340 -0.54 -0.00    +0.000    126.228
ATOM      5  C   UNL     1      38.050  13.731 122.802 -0.44 -0.00    +0.000    126.228
ATOM      6  C   UNL     1      38.115  15.124 122.889 -0.34 -0.00    +0.000    126.228
ATOM      7  C   UNL     1      37.077  15.852 123.491 -0.30 -0.00    +0.000    126.228
ATOM      8  C   UNL     1      35.990  15.153 124.043 -0.40 -0.00    +0.000    126.228
ATOM      9  C   UNL     1      35.924  13.758 123.958 -0.46 -0.00    +0.000    126.228
ATOM     10  CM  UNL     1      37.020  14.441 123.420 +0.00 -0.00    +0.000    126.228
ATOM     11  C   UNL     1      37.019  10.903 122.042 -0.55 -0.00    +0.000    126.228
ATOM     12  C   UNL     1      36.933  11.552 123.213 -0.67 -0.00    +0.000    126.228
ATOM     13  O   UNL     1      37.061   8.849 120.840 -2.72 -0.00    +0.000    126.228
ATOM     14  C   UNL     1      36.977   9.430 121.956 -0.64 -0.00    +0.000    126.228
ATOM     15  N   UNL     1      36.839   8.654 123.148 -0.69 -0.00    +0.000    126.228
ATOM     16  O   UNL     1      36.799   7.302 123.086 -2.16 -0.00    +0.000    126.228
ATOM     17  H   UNL     1      36.773   9.105 124.021 -0.47 -0.00    +0.000    126.228
ATOM     18  C   UNL     1      39.347  18.345 124.311 -0.21 -0.00    +0.000    126.228
ATOM     19  C   UNL     1      40.785  17.869 124.091 -0.31 -0.00    +0.000    126.228
ATOM     20  O   UNL     1      40.788  16.520 123.713 -0.59 -0.00    +0.000    126.228
ATOM     21  H   UNL     1      40.290  16.415 122.887 -0.01 -0.00    +0.000    126.228
ATOM     22  C   UNL     1      38.342  18.989 122.149 -0.08 -0.00    +0.000    126.228
ATOM     23  C   UNL     1      39.525  18.916 121.178 -0.04 -0.00    +0.000    126.228
ATOM     24  C   UNL     1      39.588  17.573 120.510 -0.06 -0.00    +0.000    126.228
ATOM     25  C   UNL     1      40.725  16.788 120.346 -0.12 -0.00    +0.000    126.228
ATOM     26  N   UNL     1      40.397  15.584 119.824 -0.16 -0.00    +0.000    126.228
ATOM     27  C   UNL     1      39.062  15.596 119.672 -0.16 -0.00    +0.000    126.228
ATOM     28  C   UNL     1      38.530  16.792 120.083 -0.09 -0.00    +0.000    126.228
ATOM     29  C   UNL     1      37.156  17.033 120.053 -0.12 -0.00    +0.000    126.228
ATOM     30  C   UNL     1      36.319  16.005 119.582 -0.12 -0.00    +0.000    126.228
ATOM     31  C   UNL     1      36.866  14.774 119.159 -0.23 -0.00    +0.000    126.228
ATOM     32  C   UNL     1      38.256  14.559 119.204 -0.19 -0.00    +0.000    126.228
ATOM     33  H   UNL     1      41.011  14.848 119.601 +0.00 -0.00    +0.000    126.228
ATOM     34  CM  UNL     1      39.684  16.438 120.079 +0.00 -0.00    +0.000    126.228
ATOM     35  CM  UNL     1      37.699  15.794 119.625 +0.00 -0.00    +0.000    126.228
TER
ENDMDL
MODEL       95
USER    Run = 95
USER    Cluster Rank = 21
USER    Number of conformations in this cluster = 1
USER  
USER    RMSD from reference structure       = 124.914 A
USER  
USER    Estimated Free Energy of Binding    =  -10.12 kcal/mol  [=(1)+(2)+(3)-(4)]
USER    Estimated Inhibition Constant, Ki   =   38.33 nM (nanomolar)  [Temperature = 298.15 K]
USER    
USER    (1) Final Intermolecular Energy     =  -13.10 kcal/mol
USER        vdW + Hbond + desolv Energy     =  -13.10 kcal/mol
USER        Electrostatic Energy            =   +0.00 kcal/mol
USER    (2) Final Total Internal Energy     =   -2.92 kcal/mol
USER    (3) Torsional Free Energy           =   +2.98 kcal/mol
USER    (4) Unbound System's Energy  [=(2)] =   -2.92 kcal/mol
USER    
USER    
USER  
USER    DPF = ligand_dock.biased.dpf
USER    NEWDPF move	ligand.dum.pdbqt
USER    NEWDPF about	0.288000 0.007000 -0.056000
USER    NEWDPF tran0	39.088787 16.965322 122.766898
USER    NEWDPF axisangle0	-0.466931 -0.290596 -0.835182 151.474595
USER    NEWDPF quaternion0	-0.452539 -0.281639 -0.809439 0.246368
USER    NEWDPF dihe0	-33.54 -92.99 41.60 144.19 111.27 145.39 164.89 60.94 -16.41 -165.83 
USER  
USER                              x       y       z    vdW   Elec        q     RMS 
ATOM      1  N   UNL     1      39.743  16.335 121.788 -0.19 -0.00    +0.000    124.914
ATOM      2  H   UNL     1      39.886  15.420 121.361 -0.00 -0.00    +0.000    124.914
ATOM      3  C   UNL     1      38.416  16.211 122.446 -0.26 -0.00    +0.000    124.914
ATOM      4  C   UNL     1      36.714  12.216 122.414 -0.54 -0.00    +0.000    124.914
ATOM      5  C   UNL     1      36.369  13.132 123.419 -0.55 -0.00    +0.000    124.914
ATOM      6  C   UNL     1      36.914  14.419 123.428 -0.42 -0.00    +0.000    124.914
ATOM      7  C   UNL     1      37.840  14.809 122.447 -0.36 -0.00    +0.000    124.914
ATOM      8  C   UNL     1      38.177  13.898 121.432 -0.37 -0.00    +0.000    124.914
ATOM      9  C   UNL     1      37.632  12.611 121.421 -0.42 -0.00    +0.000    124.914
ATOM     10  CM  UNL     1      37.274  13.514 122.427 +0.00 -0.00    +0.000    124.914
ATOM     11  C   UNL     1      36.664   9.821 123.105 -0.65 -0.00    +0.000    124.914
ATOM     12  C   UNL     1      36.115  10.858 122.455 -0.67 -0.00    +0.000    124.914
ATOM     13  O   UNL     1      36.754   7.442 123.070 -2.22 -0.00    +0.000    124.914
ATOM     14  C   UNL     1      36.042   8.482 123.113 -0.71 -0.00    +0.000    124.914
ATOM     15  N   UNL     1      34.619   8.362 123.169 -0.62 -0.00    +0.000    124.914
ATOM     16  O   UNL     1      34.033   7.141 123.178 -0.75 -0.00    +0.000    124.914
ATOM     17  H   UNL     1      34.060   9.172 123.203 -0.46 -0.00    +0.000    124.914
ATOM     18  C   UNL     1      40.889  16.489 122.714 -0.34 -0.00    +0.000    124.914
ATOM     19  C   UNL     1      41.803  15.261 122.691 -0.55 -0.00    +0.000    124.914
ATOM     20  O   UNL     1      41.032  14.096 122.577 -1.07 +0.00    +0.000    124.914
ATOM     21  H   UNL     1      40.854  13.740 123.461 -0.08 -0.00    +0.000    124.914
ATOM     22  C   UNL     1      39.763  17.316 120.677 -0.10 -0.00    +0.000    124.914
ATOM     23  C   UNL     1      39.760  16.595 119.325 -0.12 -0.00    +0.000    124.914
ATOM     24  C   UNL     1      38.403  16.656 118.687 -0.09 -0.00    +0.000    124.914
ATOM     25  C   UNL     1      37.744  17.806 118.264 -0.04 -0.00    +0.000    124.914
ATOM     26  N   UNL     1      36.602  17.485 117.614 -0.07 -0.00    +0.000    124.914
ATOM     27  C   UNL     1      36.543  16.142 117.609 -0.13 -0.00    +0.000    124.914
ATOM     28  C   UNL     1      37.626  15.599 118.252 -0.16 -0.00    +0.000    124.914
ATOM     29  C   UNL     1      37.806  14.218 118.348 -0.27 -0.00    +0.000    124.914
ATOM     30  C   UNL     1      36.834  13.387 117.762 -0.35 -0.00    +0.000    124.914
ATOM     31  C   UNL     1      35.718  13.946 117.101 -0.31 -0.00    +0.000    124.914
ATOM     32  C   UNL     1      35.566  15.342 117.017 -0.21 -0.00    +0.000    124.914
ATOM     33  H   UNL     1      35.947  18.107 117.223 +0.00 -0.00    +0.000    124.914
ATOM     34  CM  UNL     1      37.359  16.761 118.070 +0.00 -0.00    +0.000    124.914
ATOM     35  CM  UNL     1      36.682  14.773 117.682 +0.00 -0.00    +0.000    124.914
TER
ENDMDL
MODEL        6
USER    Run = 6
USER    Cluster Rank = 22
USER    Number of conformations in this cluster = 1
USER  
USER    RMSD from reference structure       = 128.385 A
USER  
USER    Estimated Free Energy of Binding    =   -9.75 kcal/mol  [=(1)+(2)+(3)-(4)]
USER    Estimated Inhibition Constant, Ki   =   71.91 nM (nanomolar)  [Temperature = 298.15 K]
USER    
USER    (1) Final Intermolecular Energy     =  -12.73 kcal/mol
USER        vdW + Hbond + desolv Energy     =  -12.73 kcal/mol
USER        Electrostatic Energy            =   +0.00 kcal/mol
USER    (2) Final Total Internal Energy     =   -2.26 kcal/mol
USER    (3) Torsional Free Energy           =   +2.98 kcal/mol
USER    (4) Unbound System's Energy  [=(2)] =   -2.26 kcal/mol
USER    
USER    
USER  
USER    DPF = ligand_dock.biased.dpf
USER    NEWDPF move	ligand.dum.pdbqt
USER    NEWDPF about	0.288000 0.007000 -0.056000
USER    NEWDPF tran0	36.746606 17.617576 123.088406
USER    NEWDPF axisangle0	-0.086690 0.287443 -0.953867 -153.800131
USER    NEWDPF quaternion0	-0.084434 0.279962 -0.929043 -0.226650
USER    NEWDPF dihe0	-178.16 -63.23 12.94 76.05 -96.91 -160.94 21.46 150.51 -50.85 -62.40 
USER  
USER                              x       y       z    vdW   Elec        q     RMS 
ATOM      1  N   UNL     1      37.781  18.452 123.221 -0.12 -0.00    +0.000    128.385
ATOM      2  H   UNL     1      38.645  18.756 122.772 +0.00 -0.00    +0.000    128.385
ATOM      3  C   UNL     1      36.974  17.911 122.096 -0.16 -0.00    +0.000    128.385
ATOM      4  C   UNL     1      36.433  13.604 122.231 -0.19 -0.00    +0.000    128.385
ATOM      5  C   UNL     1      37.123  14.205 121.167 -0.28 -0.00    +0.000    128.385
ATOM      6  C   UNL     1      37.299  15.591 121.125 -0.21 -0.00    +0.000    128.385
ATOM      7  C   UNL     1      36.765  16.410 122.132 -0.22 -0.00    +0.000    128.385
ATOM      8  C   UNL     1      36.085  15.810 123.205 -0.36 -0.00    +0.000    128.385
ATOM      9  C   UNL     1      35.908  14.423 123.249 -0.41 -0.00    +0.000    128.385
ATOM     10  CM  UNL     1      36.603  15.007 122.184 +0.00 -0.00    +0.000    128.385
ATOM     11  C   UNL     1      37.284  11.261 122.267 -0.33 -0.00    +0.000    128.385
ATOM     12  C   UNL     1      36.263  12.129 122.224 -0.53 -0.00    +0.000    128.385
ATOM     13  O   UNL     1      36.749   9.210 121.180 -2.64 -0.00    +0.000    128.385
ATOM     14  C   UNL     1      37.073   9.800 122.247 -0.57 -0.00    +0.000    128.385
ATOM     15  N   UNL     1      37.236   9.044 123.450 -0.52 -0.00    +0.000    128.385
ATOM     16  O   UNL     1      37.046   7.704 123.449 -2.68 -0.00    +0.000    128.385
ATOM     17  H   UNL     1      37.488   9.502 124.285 -0.64 -0.00    +0.000    128.385
ATOM     18  C   UNL     1      38.220  17.446 124.216 -0.20 -0.00    +0.000    128.385
ATOM     19  C   UNL     1      39.495  16.728 123.767 +0.02 -0.00    +0.000    128.385
ATOM     20  O   UNL     1      39.800  17.080 122.445 -0.20 -0.00    +0.000    128.385
ATOM     21  H   UNL     1      40.684  17.476 122.413 +0.00 -0.00    +0.000    128.385
ATOM     22  C   UNL     1      37.192  19.661 123.843 -0.13 -0.00    +0.000    128.385
ATOM     23  C   UNL     1      38.284  20.691 124.152 -0.06 -0.00    +0.000    128.385
ATOM     24  C   UNL     1      39.524  20.020 124.668 -0.08 -0.00    +0.000    128.385
ATOM     25  C   UNL     1      40.777  20.031 124.065 -0.08 -0.00    +0.000    128.385
ATOM     26  N   UNL     1      41.693  19.443 124.866 -0.14 -0.00    +0.000    128.385
ATOM     27  C   UNL     1      41.032  19.074 125.977 -0.24 -0.00    +0.000    128.385
ATOM     28  C   UNL     1      39.706  19.412 125.896 -0.15 -0.00    +0.000    128.385
ATOM     29  C   UNL     1      38.819  19.162 126.944 -0.16 -0.00    +0.000    128.385
ATOM     30  C   UNL     1      39.328  18.544 128.101 -0.22 -0.00    +0.000    128.385
ATOM     31  C   UNL     1      40.694  18.195 128.184 -0.37 -0.00    +0.000    128.385
ATOM     32  C   UNL     1      41.564  18.463 127.113 -0.32 -0.00    +0.000    128.385
ATOM     33  H   UNL     1      42.650  19.311 124.676 -0.57 -0.00    +0.000    128.385
ATOM     34  CM  UNL     1      40.584  19.592 125.087 +0.00 -0.00    +0.000    128.385
ATOM     35  CM  UNL     1      40.190  18.808 127.035 +0.00 -0.00    +0.000    128.385
TER
ENDMDL


AVSFLD: # AVS field file
AVSFLD: #
AVSFLD: # Created by AutoDock
AVSFLD: #
AVSFLD: ndim=2           # number of dimensions in the field
AVSFLD: nspace=1         # number of physical coordinates
AVSFLD: veclen=7         # vector size
AVSFLD: dim1=35          # atoms
AVSFLD: dim2=22          # conformations
AVSFLD: data=Real       # data type (byte,integer,Real,double)
AVSFLD: field=uniform    # field coordinate layout
AVSFLD: label= x y z vdW Elec q RMS
AVSFLD: variable 1 file = ligand_dock.biased.dlg.pdb filetype = ascii offset = 5 stride = 12
AVSFLD: variable 2 file = ligand_dock.biased.dlg.pdb filetype = ascii offset = 6 stride = 12
AVSFLD: variable 3 file = ligand_dock.biased.dlg.pdb filetype = ascii offset = 7 stride = 12
AVSFLD: variable 4 file = ligand_dock.biased.dlg.pdb filetype = ascii offset = 8 stride = 12
AVSFLD: variable 5 file = ligand_dock.biased.dlg.pdb filetype = ascii offset = 9 stride = 12
AVSFLD: variable 6 file = ligand_dock.biased.dlg.pdb filetype = ascii offset = 10 stride = 12
AVSFLD: variable 7 file = ligand_dock.biased.dlg.pdb filetype = ascii offset = 11 stride = 12
AVSFLD: # end of file

>>> Closing the docking parameter file (DPF)...
This docking finished at:			6:25 03" p.m., 11/08/2024


________________________________________________________________________________

autodock4: Successful Completion on "ThinkStation-P620"

Real= 17m 54.11s,  CPU= 17m 53.83s,  System= 0.20s
________________________________________________________________________________

