          AutoDock 4.2 Release 4.2.6   
         (C) 1989-2012 The Scripps Research Institute
        AutoDock comes with ABSOLUTELY NO WARRANTY.
        AutoDock is free software, and you are welcome
        to redistribute it under certain conditions;
        for details type 'autodock4 -C'

                     main.cc  $Revision: 1.213 $

                   Compiled on Feb 20 2022 at 09:48:33


This file was created at:			5:31 15" p.m., 11/03/2024
                   on host:		"ThinkStation-P620"
Current Working Directory = "/home/antonio/Documenti/buccheri/IDROSSAMICO HDAC/HDAC 4/P/Ligand_1"

      ________________________________________________________________

                   SETTING UP DEFAULT PARAMETER LIBRARY
      ________________________________________________________________


Random number generator was seeded with values 26986, 1730651475.
Docking parameter file (DPF) used for this docking:		ligand_dock.biased.dpf
DPF> autodock_parameter_version 4.2       # used by autodock to validate parameter set

	Autodock parameter version 4.2.
DPF> outlev 1                             # diagnostic output level

Output Level = 1  ADT-COMPATIBLE OUTPUT DURING DOCKING.
DPF> intelec                              # calculate internal electrostatics

Electrostatic energies will be calculated for all non-bonds between moving atoms.
DPF> seed pid time                        # seeds for random generator

Random number generator was seeded with values 26986, 1730651475.
DPF> ligand_types A C OA N S HD           # atoms types in ligand

DPF> fld receptor.maps.fld                # grid_data_file

Opening Grid Map Dimensions file:		receptor.maps.fld
Grid Point Spacing =				0.375 Angstroms

Even Number of User-specified Grid Points =	70 x-points
						70 y-points
						70 z-points

Coordinates of Central Grid Point of Maps =	(19.141, -8.645, -3.505)
Macromolecule file used to create Grid Maps =	receptor.pdbqt
Grid Parameter file used to create Grid Maps =	receptor.gpf
Minimum coordinates in grid = (6.016, -21.770, -16.630)
Maximum coordinates in grid = (32.266, 4.480, 9.620)

DPF> map receptor.A.map                   # atom-specific affinity map

DPF> map receptor.C.map                   # atom-specific affinity map

DPF> map receptor.OA.biased.map

DPF> map receptor.N.map                   # atom-specific affinity map

DPF> map receptor.S.map                   # atom-specific affinity map

DPF> map receptor.HD.map                  # atom-specific affinity map

DPF> elecmap receptor.e.map               # electrostatics map

DPF> desolvmap receptor.d.map             # desolvation map

DPF> move ligand.pdbqt                    # small molecule

1,4-interactions will be _ignored_ in the non-bonded internal energy calculation.

Ligand PDBQT file = "ligand.pdbqt"

INPUT LIGAND PDBQT FILE:
________________________

INPUT-LIGAND-PDBQT: REMARK  Name = 
INPUT-LIGAND-PDBQT: REMARK  6 active torsions:
INPUT-LIGAND-PDBQT: REMARK  status: ('A' for Active; 'I' for Inactive)
INPUT-LIGAND-PDBQT: REMARK    1  A    between atoms: S_2  and  N_3
INPUT-LIGAND-PDBQT: REMARK    2  A    between atoms: S_2  and  C_10
INPUT-LIGAND-PDBQT: REMARK    3  A    between atoms: N_3  and  C_4
INPUT-LIGAND-PDBQT: REMARK    4  A    between atoms: C_12  and  C_13
INPUT-LIGAND-PDBQT: REMARK    5  A    between atoms: C_14  and  C_15
INPUT-LIGAND-PDBQT: REMARK    6  A    between atoms: N_16  and  O_17
INPUT-LIGAND-PDBQT: REMARK                            x       y       z     vdW  Elec       q    Type
INPUT-LIGAND-PDBQT: REMARK                         _______ _______ _______ _____ _____    ______ ____
INPUT-LIGAND-PDBQT: ROOT
INPUT-LIGAND-PDBQT: ATOM      1  C   UNL     1      -0.136   0.637  -1.957  0.00  0.00    +0.000 A 
INPUT-LIGAND-PDBQT: ATOM      2  C   UNL     1       0.591   0.543  -0.763  0.00  0.00    +0.000 A 
INPUT-LIGAND-PDBQT: ATOM      3  C   UNL     1       1.565  -0.456  -0.592  0.00  0.00    +0.000 A 
INPUT-LIGAND-PDBQT: ATOM      4  C   UNL     1       1.787  -1.375  -1.638  0.00  0.00    +0.000 A 
INPUT-LIGAND-PDBQT: ATOM      5  C   UNL     1       1.066  -1.275  -2.831  0.00  0.00    +0.000 A 
INPUT-LIGAND-PDBQT: ATOM      6  C   UNL     1       0.111  -0.270  -2.994  0.00  0.00    +0.000 A 
INPUT-LIGAND-PDBQT: ENDROOT
INPUT-LIGAND-PDBQT: BRANCH   1   8
INPUT-LIGAND-PDBQT: ATOM      7  O   UNL     1      -2.391   1.478  -3.158  0.00  0.00    +0.000 OA
INPUT-LIGAND-PDBQT: ATOM      8  S   UNL     1      -1.359   1.891  -2.146  0.00  0.00    +0.000 S 
INPUT-LIGAND-PDBQT: ATOM      9  O   UNL     1      -0.690   3.151  -2.614  0.00  0.00    +0.000 OA
INPUT-LIGAND-PDBQT: BRANCH   8  10
INPUT-LIGAND-PDBQT: ATOM     10  N   UNL     1      -2.146   2.192  -0.627  0.00  0.00    +0.000 N 
INPUT-LIGAND-PDBQT: ATOM     11  H   UNL     1      -2.181   3.120  -0.301  0.00  0.00    +0.000 HD
INPUT-LIGAND-PDBQT: BRANCH  10  12
INPUT-LIGAND-PDBQT: ATOM     12  C   UNL     1      -2.749   1.166   0.182  0.00  0.00    +0.000 A 
INPUT-LIGAND-PDBQT: ATOM     13  C   UNL     1      -2.956  -0.141  -0.301  0.00  0.00    +0.000 A 
INPUT-LIGAND-PDBQT: ATOM     14  C   UNL     1      -3.537  -1.114   0.518  0.00  0.00    +0.000 A 
INPUT-LIGAND-PDBQT: ATOM     15  C   UNL     1      -3.921  -0.794   1.822  0.00  0.00    +0.000 A 
INPUT-LIGAND-PDBQT: ATOM     16  C   UNL     1      -3.728   0.500   2.309  0.00  0.00    +0.000 A 
INPUT-LIGAND-PDBQT: ATOM     17  C   UNL     1      -3.146   1.476   1.494  0.00  0.00    +0.000 A 
INPUT-LIGAND-PDBQT: ENDBRANCH  10  12
INPUT-LIGAND-PDBQT: ENDBRANCH   8  10
INPUT-LIGAND-PDBQT: ENDBRANCH   1   8
INPUT-LIGAND-PDBQT: BRANCH   3  18
INPUT-LIGAND-PDBQT: ATOM     18  C   UNL     1       2.290  -0.524   0.701  0.00  0.00    +0.000 C 
INPUT-LIGAND-PDBQT: ATOM     19  C   UNL     1       3.479  -1.126   0.856  0.00  0.00    +0.000 C 
INPUT-LIGAND-PDBQT: BRANCH  19  20
INPUT-LIGAND-PDBQT: ATOM     20  C   UNL     1       4.197  -1.191   2.146  0.00  0.00    +0.000 C 
INPUT-LIGAND-PDBQT: ATOM     21  N   UNL     1       3.894  -0.314   3.239  0.00  0.00    +0.000 N 
INPUT-LIGAND-PDBQT: ATOM     22  O   UNL     1       5.127  -2.032   2.273  0.00  0.00    +0.000 OA
INPUT-LIGAND-PDBQT: ATOM     23  H   UNL     1       3.251   0.421   3.115  0.00  0.00    +0.000 HD
INPUT-LIGAND-PDBQT: BRANCH  21  24
INPUT-LIGAND-PDBQT: ATOM     24  O   UNL     1       4.489  -0.495   4.443  0.00  0.00    +0.000 OA
INPUT-LIGAND-PDBQT: ATOM     25  H   UNL     1       5.088  -1.256   4.396  0.00  0.00    +0.000 HD
INPUT-LIGAND-PDBQT: ENDBRANCH  21  24
INPUT-LIGAND-PDBQT: ENDBRANCH  19  20
INPUT-LIGAND-PDBQT: ENDBRANCH   3  18
INPUT-LIGAND-PDBQT: TORSDOF 6
________________________________________________________________________________

Total charge on ligand                               =	+0.000 e
REMARK  Name = 
REMARK  6 active torsions:
REMARK  status: ('A' for Active; 'I' for Inactive)
REMARK    1  A    between atoms: S_2  and  N_3
REMARK    2  A    between atoms: S_2  and  C_10
REMARK    3  A    between atoms: N_3  and  C_4
REMARK    4  A    between atoms: C_12  and  C_13
REMARK    5  A    between atoms: C_14  and  C_15
REMARK    6  A    between atoms: N_16  and  O_17
REMARK                            x       y       z     vdW  Elec       q    Type
REMARK                         _______ _______ _______ _____ _____    ______ ____


Number of Rotatable Bonds in Small Molecule =	6 torsions
Number of atoms in ligand:  25

Number of non-hydrogen atoms in ligand:  22

Number of vibrational degrees of freedom of ligand:  69


Number of torsional degrees of freedom = 6
Estimated loss of torsional free energy upon binding = +1.7898 kcal/mol


DPF> about 0.320 0.169 0.303            # small molecule center

Small molecule center of rotation =	(+0.320, +0.169, +0.303)

DPF> tran0 random                         # initial coordinates/A or random

Initial translation =			(30.226, -7.248, 2.146) Angstroms
DPF> quaternion0 random                   # initial orientation

Each run will begin with a new, random initial orientation.
Initial quaternion,  (x,y,z,w) =	( -0.619, 0.006, 0.784, -0.038 ),
DPF> dihe0 random                         # initial dihedrals (relative) or random

DPF> torsdof 6                            # torsional degrees of freedom

Number of torsional degrees of freedom = 6
Free energy coefficient for torsional degrees of freedom = 0.2983, the factory default value.

Estimated loss of torsional free energy upon binding = +1.7898 kcal/mol

DPF> rmstol 2.0                           # cluster_tolerance/A

Maximum RMS tolerance for conformational cluster analysis = 2.00 Angstroms
DPF> extnrg 1000.0                        # external grid energy

External grid energy (beyond grid map walls) = 1000.00

DPF> e0max 0.0 10000                      # max initial energy; max number of retries

Using user-specified maximum number of retries for simanneal initialization, 10000 retries.
If the simanneal initial energy is greater than e0max, 0.000,
then a new, random initial state will be created.

DPF> ga_pop_size 150                      # number of individuals in population

A population of 150 individuals will be used
DPF> ga_num_evals 2500000                 # maximum number of energy evaluations

There will be at most 2500000 function evaluations used.
DPF> ga_num_generations 27000             # maximum number of generations

The GA will run for at most 27000 generations.
DPF> ga_elitism 1                         # number of top individuals to survive to next generation

The 1 best will be preserved each GA generation.
DPF> ga_mutation_rate 0.02                # rate of gene mutation

The mutation rate is 0.020000.
DPF> ga_crossover_rate 0.8                # rate of crossover

The crossover rate is 0.800000.
DPF> ga_window_size 10                    # 

The GA's selection window is 10 generations.
DPF> ga_cauchy_alpha 0.0                  # Alpha parameter of Cauchy distribution

The alpha parameter (for the Cauchy distribution) is being set to 0.000000.
DPF> ga_cauchy_beta 1.0                   # Beta parameter Cauchy distribution

The beta parameter (for the Cauchy distribution) is being set to 1.000000.
DPF> set_ga                               # set the above parameters for GA or LGA

DPF> sw_max_its 300                       # iterations of Solis & Wets local search

Solis & Wets algorithms will perform at most 300 iterations.
DPF> sw_max_succ 4                        # consecutive successes before changing rho

Solis & Wets algorithms expand rho every 4 in a row successes.
DPF> sw_max_fail 4                        # consecutive failures before changing rho

Solis & Wets algorithms contract rho every 4 in a row failures.
DPF> sw_rho 1.0                           # size of local search space to sample

rho is set to 1.000000.
DPF> sw_lb_rho 0.01                       # lower bound on rho

rho will never get smaller than 0.010000.
DPF> ls_search_freq 0.06                  # probability of performing local search on individual

Local search will be performed with frequency 0.060000.
DPF> set_psw1                             # set the above pseudo-Solis & Wets parameters

Creating a new Local Search object using the pseudo-Solis-Wets algorithm (pSW1) with the current settings.

DPF> unbound_model bound                  # state of unbound ligand

DPF> ga_run 100

centering ligand on specified point: 0.320 0.169 0.303
Furthest true ligand atom from "about" center is 6.443 Angstroms (maxrad).
Number of requested GA dockings = 100 runs
Unbound model to be used is 'same as bound' [AutoDock 4.2 default].

	BEGINNING GENETIC ALGORITHM DOCKING 1 of 100
Run: 1 Seed: 1313799817 1062489035 [ Run 1 of 100 GA/GALS ]
Beginning LAMARCKIAN GENETIC ALGORITHM (LGA), with a maximum of 2500000 energy evaluations.

Final-Value: -14.177


	FINAL GENETIC ALGORITHM DOCKED STATE
	_______________________________________________


Detailed state:  trans 21.910 -11.024 -1.962 quatxyzw 0.253991 -0.262830 0.879796 -0.303920 center 0.320 0.169 0.303 ntor 6 34.4384 118.8244 39.6717 174.0516 123.3349 -138.1570
State:	 21.910 -11.024  -1.962   0.267 -0.276  0.923 -144.614     34.44  118.82   39.67  174.05  123.33 -138.16

DOCKED: MODEL        1
DOCKED: USER    Run = 1
DOCKED: USER    DPF = ligand_dock.biased.dpf
DOCKED: USER  
DOCKED: USER    Estimated Free Energy of Binding    =  -10.97 kcal/mol  [=(1)+(2)+(3)-(4)]
DOCKED: USER    Estimated Inhibition Constant, Ki   =    9.03 nM (nanomolar)  [Temperature = 298.15 K]
DOCKED: USER    
DOCKED: USER    (1) Final Intermolecular Energy     =  -12.76 kcal/mol
DOCKED: USER        vdW + Hbond + desolv Energy     =  -12.76 kcal/mol
DOCKED: USER        Electrostatic Energy            =   +0.00 kcal/mol
DOCKED: USER    (2) Final Total Internal Energy     =   -1.41 kcal/mol
DOCKED: USER    (3) Torsional Free Energy           =   +1.79 kcal/mol
DOCKED: USER    (4) Unbound System's Energy  [=(2)] =   -1.41 kcal/mol
DOCKED: USER    
DOCKED: USER    
DOCKED: USER    NEWDPF move ligand.pdbqt
DOCKED: USER    NEWDPF about 0.320000 0.169000 0.303000
DOCKED: USER    NEWDPF tran0 21.910381 -11.023806 -1.961610
DOCKED: USER    NEWDPF quaternion0 0.253991 -0.262830 0.879796 -0.303920
DOCKED: USER    NEWDPF axisangle0 0.266602 -0.275879 0.923479 -144.613551
DOCKED: USER    NEWDPF quat0 0.266602 -0.275879 0.923479 -144.613551
DOCKED: USER    NEWDPF dihe0 34.44 118.82 39.67 174.05 123.33 -138.16 
DOCKED: USER  keepresnum = 1 
DOCKED: USER  
DOCKED: REMARK  Name = 
DOCKED: REMARK  6 active torsions:
DOCKED: REMARK  status: ('A' for Active; 'I' for Inactive)
DOCKED: REMARK    1  A    between atoms: S_2  and  N_3
DOCKED: REMARK    2  A    between atoms: S_2  and  C_10
DOCKED: REMARK    3  A    between atoms: N_3  and  C_4
DOCKED: REMARK    4  A    between atoms: C_12  and  C_13
DOCKED: REMARK    5  A    between atoms: C_14  and  C_15
DOCKED: REMARK    6  A    between atoms: N_16  and  O_17
DOCKED: REMARK                            x       y       z     vdW  Elec       q    Type
DOCKED: REMARK                         _______ _______ _______ _____ _____    ______ ____
DOCKED: USER                              x       y       z     vdW  Elec       q    Type
DOCKED: USER                           _______ _______ _______ _____ _____    ______ ____
DOCKED: ROOT
DOCKED: ATOM      1  C   UNL     1      21.262 -10.130  -4.039 -0.43 -0.00    +0.000 A 
DOCKED: ATOM      2  C   UNL     1      21.168 -10.511  -2.694 -0.49 -0.00    +0.000 A 
DOCKED: ATOM      3  C   UNL     1      21.217  -9.549  -1.670 -0.53 -0.00    +0.000 A 
DOCKED: ATOM      4  C   UNL     1      21.378  -8.192  -2.018 -0.44 -0.00    +0.000 A 
DOCKED: ATOM      5  C   UNL     1      21.463  -7.813  -3.361 -0.33 -0.00    +0.000 A 
DOCKED: ATOM      6  C   UNL     1      21.400  -8.777  -4.369 -0.31 -0.00    +0.000 A 
DOCKED: ENDROOT
DOCKED: BRANCH   1   8
DOCKED: ATOM      7  O   UNL     1      19.854 -12.003  -5.359 -0.60 -0.00    +0.000 OA
DOCKED: ATOM      8  S   UNL     1      21.209 -11.353  -5.305 -0.66 -0.00    +0.000 S 
DOCKED: ATOM      9  O   UNL     1      22.244 -12.399  -5.010 -0.63 -0.00    +0.000 OA
DOCKED: BRANCH   8  10
DOCKED: ATOM     10  N   UNL     1      21.550 -10.631  -6.848 -0.31 -0.00    +0.000 N 
DOCKED: ATOM     11  H   UNL     1      20.961  -9.906  -7.159 +0.00 -0.00    +0.000 HD
DOCKED: BRANCH  10  12
DOCKED: ATOM     12  C   UNL     1      22.641 -11.029  -7.697 -0.33 -0.00    +0.000 A 
DOCKED: ATOM     13  C   UNL     1      22.435 -11.754  -8.887 -0.27 -0.00    +0.000 A 
DOCKED: ATOM     14  C   UNL     1      23.520 -12.116  -9.692 -0.29 -0.00    +0.000 A 
DOCKED: ATOM     15  C   UNL     1      24.819 -11.764  -9.317 -0.32 -0.00    +0.000 A 
DOCKED: ATOM     16  C   UNL     1      25.036 -11.053  -8.135 -0.36 -0.00    +0.000 A 
DOCKED: ATOM     17  C   UNL     1      23.953 -10.687  -7.328 -0.28 -0.00    +0.000 A 
DOCKED: ENDBRANCH  10  12
DOCKED: ENDBRANCH   8  10
DOCKED: ENDBRANCH   1   8
DOCKED: BRANCH   3  18
DOCKED: ATOM     18  C   UNL     1      21.136 -10.010  -0.261 -0.70 -0.00    +0.000 C 
DOCKED: ATOM     19  C   UNL     1      20.386 -11.047   0.140 -0.64 -0.00    +0.000 C 
DOCKED: BRANCH  19  20
DOCKED: ATOM     20  C   UNL     1      20.309 -11.502   1.544 -0.76 -0.00    +0.000 C 
DOCKED: ATOM     21  N   UNL     1      20.645 -10.650   2.647 -0.62 -0.00    +0.000 N 
DOCKED: ATOM     22  O   UNL     1      19.961 -12.692   1.770 -1.58 -0.00    +0.000 OA
DOCKED: ATOM     23  H   UNL     1      21.026  -9.758   2.480 -0.59 -0.00    +0.000 HD
DOCKED: BRANCH  21  24
DOCKED: ATOM     24  O   UNL     1      20.436 -11.068   3.919 -0.79 -0.00    +0.000 OA
DOCKED: ATOM     25  H   UNL     1      20.591 -12.024   3.974 -0.50 -0.00    +0.000 HD
DOCKED: ENDBRANCH  21  24
DOCKED: ENDBRANCH  19  20
DOCKED: ENDBRANCH   3  18
DOCKED: TORSDOF 6
DOCKED: TER
DOCKED: ENDMDL
________________________________________________________________________________


	BEGINNING GENETIC ALGORITHM DOCKING 2 of 100
Run: 2 Seed: 1980584073 1188053079 [ Run 2 of 100 GA/GALS ]
Beginning LAMARCKIAN GENETIC ALGORITHM (LGA), with a maximum of 2500000 energy evaluations.

Final-Value: -13.671


	FINAL GENETIC ALGORITHM DOCKED STATE
	_______________________________________________


Detailed state:  trans 21.996 -11.285 -2.400 quatxyzw -0.219996 0.337561 -0.907343 0.119930 center 0.320 0.169 0.303 ntor 6 49.1297 -29.3170 179.6643 39.9999 -36.6694 143.2344
State:	 21.996 -11.285  -2.400  -0.222  0.340 -0.914 166.224     49.13  -29.32  179.66   40.00  -36.67  143.23

DOCKED: MODEL        2
DOCKED: USER    Run = 2
DOCKED: USER    DPF = ligand_dock.biased.dpf
DOCKED: USER  
DOCKED: USER    Estimated Free Energy of Binding    =  -10.36 kcal/mol  [=(1)+(2)+(3)-(4)]
DOCKED: USER    Estimated Inhibition Constant, Ki   =   25.46 nM (nanomolar)  [Temperature = 298.15 K]
DOCKED: USER    
DOCKED: USER    (1) Final Intermolecular Energy     =  -12.15 kcal/mol
DOCKED: USER        vdW + Hbond + desolv Energy     =  -12.15 kcal/mol
DOCKED: USER        Electrostatic Energy            =   +0.00 kcal/mol
DOCKED: USER    (2) Final Total Internal Energy     =   -1.52 kcal/mol
DOCKED: USER    (3) Torsional Free Energy           =   +1.79 kcal/mol
DOCKED: USER    (4) Unbound System's Energy  [=(2)] =   -1.52 kcal/mol
DOCKED: USER    
DOCKED: USER    
DOCKED: USER    NEWDPF move ligand.pdbqt
DOCKED: USER    NEWDPF about 0.320000 0.169000 0.303000
DOCKED: USER    NEWDPF tran0 21.995546 -11.284511 -2.400306
DOCKED: USER    NEWDPF quaternion0 -0.219996 0.337561 -0.907343 0.119930
DOCKED: USER    NEWDPF axisangle0 -0.221595 0.340015 -0.913939 166.223860
DOCKED: USER    NEWDPF quat0 -0.221595 0.340015 -0.913939 166.223860
DOCKED: USER    NEWDPF dihe0 49.13 -29.32 179.66 40.00 -36.67 143.23 
DOCKED: USER  keepresnum = 1 
DOCKED: USER  
DOCKED: REMARK  Name = 
DOCKED: REMARK  6 active torsions:
DOCKED: REMARK  status: ('A' for Active; 'I' for Inactive)
DOCKED: REMARK    1  A    between atoms: S_2  and  N_3
DOCKED: REMARK    2  A    between atoms: S_2  and  C_10
DOCKED: REMARK    3  A    between atoms: N_3  and  C_4
DOCKED: REMARK    4  A    between atoms: C_12  and  C_13
DOCKED: REMARK    5  A    between atoms: C_14  and  C_15
DOCKED: REMARK    6  A    between atoms: N_16  and  O_17
DOCKED: REMARK                            x       y       z     vdW  Elec       q    Type
DOCKED: REMARK                         _______ _______ _______ _____ _____    ______ ____
DOCKED: USER                              x       y       z     vdW  Elec       q    Type
DOCKED: USER                           _______ _______ _______ _____ _____    ______ ____
DOCKED: ROOT
DOCKED: ATOM      1  C   UNL     1      21.504 -10.160  -4.407 -0.40 -0.00    +0.000 A 
DOCKED: ATOM      2  C   UNL     1      21.282 -10.835  -3.199 -0.38 -0.00    +0.000 A 
DOCKED: ATOM      3  C   UNL     1      20.851 -10.138  -2.057 -0.52 -0.00    +0.000 A 
DOCKED: ATOM      4  C   UNL     1      20.660  -8.744  -2.142 -0.36 -0.00    +0.000 A 
DOCKED: ATOM      5  C   UNL     1      20.875  -8.074  -3.350 -0.35 -0.00    +0.000 A 
DOCKED: ATOM      6  C   UNL     1      21.290  -8.779  -4.481 -0.30 -0.00    +0.000 A 
DOCKED: ENDROOT
DOCKED: BRANCH   1   8
DOCKED: ATOM      7  O   UNL     1      22.491 -12.438  -5.443 -0.80 -0.00    +0.000 OA
DOCKED: ATOM      8  S   UNL     1      22.054 -11.051  -5.824 -0.60 -0.00    +0.000 S 
DOCKED: ATOM      9  O   UNL     1      23.216 -10.321  -6.433 -0.30 -0.00    +0.000 OA
DOCKED: BRANCH   8  10
DOCKED: ATOM     10  N   UNL     1      20.774 -11.164  -6.994 -0.14 -0.00    +0.000 N 
DOCKED: ATOM     11  H   UNL     1      21.004 -11.462  -7.903 -0.32 -0.00    +0.000 HD
DOCKED: BRANCH  10  12
DOCKED: ATOM     12  C   UNL     1      19.399 -10.846  -6.712 -0.30 -0.00    +0.000 A 
DOCKED: ATOM     13  C   UNL     1      18.780 -11.214  -5.501 -0.36 -0.00    +0.000 A 
DOCKED: ATOM     14  C   UNL     1      17.444 -10.880  -5.259 -0.24 -0.00    +0.000 A 
DOCKED: ATOM     15  C   UNL     1      16.711 -10.182  -6.222 -0.19 -0.00    +0.000 A 
DOCKED: ATOM     16  C   UNL     1      17.312  -9.819  -7.429 -0.15 -0.00    +0.000 A 
DOCKED: ATOM     17  C   UNL     1      18.648 -10.149  -7.674 -0.22 -0.00    +0.000 A 
DOCKED: ENDBRANCH  10  12
DOCKED: ENDBRANCH   8  10
DOCKED: ENDBRANCH   1   8
DOCKED: BRANCH   3  18
DOCKED: ATOM     18  C   UNL     1      20.653 -10.898  -0.798 -0.55 -0.00    +0.000 C 
DOCKED: ATOM     19  C   UNL     1      20.542 -10.322   0.409 -0.67 -0.00    +0.000 C 
DOCKED: BRANCH  19  20
DOCKED: ATOM     20  C   UNL     1      20.345 -11.083   1.660 -0.74 -0.00    +0.000 C 
DOCKED: ATOM     21  N   UNL     1      20.612 -10.520   2.952 -0.63 -0.00    +0.000 N 
DOCKED: ATOM     22  O   UNL     1      19.955 -12.278   1.580 -1.69 -0.00    +0.000 OA
DOCKED: ATOM     23  H   UNL     1      21.025  -9.629   3.023 -0.60 -0.00    +0.000 HD
DOCKED: BRANCH  21  24
DOCKED: ATOM     24  O   UNL     1      20.296 -11.210   4.074 -0.80 -0.00    +0.000 OA
DOCKED: ATOM     25  H   UNL     1      20.637 -12.115   4.004 -0.54 -0.00    +0.000 HD
DOCKED: ENDBRANCH  21  24
DOCKED: ENDBRANCH  19  20
DOCKED: ENDBRANCH   3  18
DOCKED: TORSDOF 6
DOCKED: TER
DOCKED: ENDMDL
________________________________________________________________________________


	BEGINNING GENETIC ALGORITHM DOCKING 3 of 100
Run: 3 Seed: 1536039485 1613797477 [ Run 3 of 100 GA/GALS ]
Beginning LAMARCKIAN GENETIC ALGORITHM (LGA), with a maximum of 2500000 energy evaluations.

Final-Value: -14.087


	FINAL GENETIC ALGORITHM DOCKED STATE
	_______________________________________________


Detailed state:  trans 21.636 -11.560 -2.245 quatxyzw 0.232823 -0.374397 0.858234 -0.262784 center 0.320 0.169 0.303 ntor 6 32.3675 -117.4672 -177.4482 174.7600 -22.5195 -126.9291
State:	 21.636 -11.560  -2.245   0.241 -0.388  0.889 -149.529     32.37 -117.47 -177.45  174.76  -22.52 -126.93

DOCKED: MODEL        3
DOCKED: USER    Run = 3
DOCKED: USER    DPF = ligand_dock.biased.dpf
DOCKED: USER  
DOCKED: USER    Estimated Free Energy of Binding    =  -10.95 kcal/mol  [=(1)+(2)+(3)-(4)]
DOCKED: USER    Estimated Inhibition Constant, Ki   =    9.42 nM (nanomolar)  [Temperature = 298.15 K]
DOCKED: USER    
DOCKED: USER    (1) Final Intermolecular Energy     =  -12.74 kcal/mol
DOCKED: USER        vdW + Hbond + desolv Energy     =  -12.74 kcal/mol
DOCKED: USER        Electrostatic Energy            =   +0.00 kcal/mol
DOCKED: USER    (2) Final Total Internal Energy     =   -1.35 kcal/mol
DOCKED: USER    (3) Torsional Free Energy           =   +1.79 kcal/mol
DOCKED: USER    (4) Unbound System's Energy  [=(2)] =   -1.35 kcal/mol
DOCKED: USER    
DOCKED: USER    
DOCKED: USER    NEWDPF move ligand.pdbqt
DOCKED: USER    NEWDPF about 0.320000 0.169000 0.303000
DOCKED: USER    NEWDPF tran0 21.636210 -11.559522 -2.244841
DOCKED: USER    NEWDPF quaternion0 0.232823 -0.374397 0.858234 -0.262784
DOCKED: USER    NEWDPF axisangle0 0.241303 -0.388035 0.889495 -149.529392
DOCKED: USER    NEWDPF quat0 0.241303 -0.388035 0.889495 -149.529392
DOCKED: USER    NEWDPF dihe0 32.37 -117.47 -177.45 174.76 -22.52 -126.93 
DOCKED: USER  keepresnum = 1 
DOCKED: USER  
DOCKED: REMARK  Name = 
DOCKED: REMARK  6 active torsions:
DOCKED: REMARK  status: ('A' for Active; 'I' for Inactive)
DOCKED: REMARK    1  A    between atoms: S_2  and  N_3
DOCKED: REMARK    2  A    between atoms: S_2  and  C_10
DOCKED: REMARK    3  A    between atoms: N_3  and  C_4
DOCKED: REMARK    4  A    between atoms: C_12  and  C_13
DOCKED: REMARK    5  A    between atoms: C_14  and  C_15
DOCKED: REMARK    6  A    between atoms: N_16  and  O_17
DOCKED: REMARK                            x       y       z     vdW  Elec       q    Type
DOCKED: REMARK                         _______ _______ _______ _____ _____    ______ ____
DOCKED: USER                              x       y       z     vdW  Elec       q    Type
DOCKED: USER                           _______ _______ _______ _____ _____    ______ ____
DOCKED: ROOT
DOCKED: ATOM      1  C   UNL     1      21.229 -10.229  -4.142 -0.43 -0.00    +0.000 A 
DOCKED: ATOM      2  C   UNL     1      20.982 -10.887  -2.929 -0.36 -0.00    +0.000 A 
DOCKED: ATOM      3  C   UNL     1      20.907 -10.167  -1.724 -0.54 -0.00    +0.000 A 
DOCKED: ATOM      4  C   UNL     1      21.103  -8.771  -1.753 -0.48 -0.00    +0.000 A 
DOCKED: ATOM      5  C   UNL     1      21.341  -8.116  -2.964 -0.39 -0.00    +0.000 A 
DOCKED: ATOM      6  C   UNL     1      21.399  -8.840  -4.156 -0.33 -0.00    +0.000 A 
DOCKED: ENDROOT
DOCKED: BRANCH   1   8
DOCKED: ATOM      7  O   UNL     1      19.954 -11.517  -6.130 -0.39 -0.00    +0.000 OA
DOCKED: ATOM      8  S   UNL     1      21.328 -11.152  -5.639 -0.61 -0.00    +0.000 S 
DOCKED: ATOM      9  O   UNL     1      22.106 -12.410  -5.380 -0.83 -0.00    +0.000 OA
DOCKED: BRANCH   8  10
DOCKED: ATOM     10  N   UNL     1      22.136 -10.221  -6.863 -0.29 -0.00    +0.000 N 
DOCKED: ATOM     11  H   UNL     1      21.752  -9.349  -7.108 +0.00 -0.00    +0.000 HD
DOCKED: BRANCH  10  12
DOCKED: ATOM     12  C   UNL     1      23.332 -10.650  -7.539 -0.33 -0.00    +0.000 A 
DOCKED: ATOM     13  C   UNL     1      24.472  -9.828  -7.633 -0.27 -0.00    +0.000 A 
DOCKED: ATOM     14  C   UNL     1      25.619 -10.283  -8.290 -0.31 -0.00    +0.000 A 
DOCKED: ATOM     15  C   UNL     1      25.640 -11.557  -8.863 -0.37 -0.00    +0.000 A 
DOCKED: ATOM     16  C   UNL     1      24.513 -12.377  -8.783 -0.41 -0.00    +0.000 A 
DOCKED: ATOM     17  C   UNL     1      23.364 -11.927  -8.125 -0.41 -0.00    +0.000 A 
DOCKED: ENDBRANCH  10  12
DOCKED: ENDBRANCH   8  10
DOCKED: ENDBRANCH   1   8
DOCKED: BRANCH   3  18
DOCKED: ATOM     18  C   UNL     1      20.666 -10.916  -0.466 -0.59 -0.00    +0.000 C 
DOCKED: ATOM     19  C   UNL     1      20.604 -10.338   0.743 -0.66 -0.00    +0.000 C 
DOCKED: BRANCH  19  20
DOCKED: ATOM     20  C   UNL     1      20.363 -11.088   1.993 -0.74 -0.00    +0.000 C 
DOCKED: ATOM     21  N   UNL     1      20.622 -10.528   3.287 -0.66 -0.00    +0.000 N 
DOCKED: ATOM     22  O   UNL     1      19.942 -12.273   1.910 -1.72 -0.00    +0.000 OA
DOCKED: ATOM     23  H   UNL     1      21.058  -9.649   3.364 -0.59 -0.00    +0.000 HD
DOCKED: BRANCH  21  24
DOCKED: ATOM     24  O   UNL     1      20.266 -11.205   4.406 -0.73 -0.00    +0.000 OA
DOCKED: ATOM     25  H   UNL     1      20.340 -12.158   4.244 -0.30 -0.00    +0.000 HD
DOCKED: ENDBRANCH  21  24
DOCKED: ENDBRANCH  19  20
DOCKED: ENDBRANCH   3  18
DOCKED: TORSDOF 6
DOCKED: TER
DOCKED: ENDMDL
________________________________________________________________________________


	BEGINNING GENETIC ALGORITHM DOCKING 4 of 100
Run: 4 Seed: 1323802964 553228233 [ Run 4 of 100 GA/GALS ]
Beginning LAMARCKIAN GENETIC ALGORITHM (LGA), with a maximum of 2500000 energy evaluations.

Final-Value: -13.868


	FINAL GENETIC ALGORITHM DOCKED STATE
	_______________________________________________


Detailed state:  trans 20.837 -11.050 -1.983 quatxyzw -0.238535 0.290348 -0.794662 0.476773 center 0.320 0.169 0.303 ntor 6 44.3050 175.5872 8.1547 141.1348 175.7228 -136.3438
State:	 20.837 -11.050  -1.983  -0.271  0.330 -0.904 123.050     44.30  175.59    8.15  141.13  175.72 -136.34

DOCKED: MODEL        4
DOCKED: USER    Run = 4
DOCKED: USER    DPF = ligand_dock.biased.dpf
DOCKED: USER  
DOCKED: USER    Estimated Free Energy of Binding    =  -10.70 kcal/mol  [=(1)+(2)+(3)-(4)]
DOCKED: USER    Estimated Inhibition Constant, Ki   =   14.41 nM (nanomolar)  [Temperature = 298.15 K]
DOCKED: USER    
DOCKED: USER    (1) Final Intermolecular Energy     =  -12.49 kcal/mol
DOCKED: USER        vdW + Hbond + desolv Energy     =  -12.49 kcal/mol
DOCKED: USER        Electrostatic Energy            =   +0.00 kcal/mol
DOCKED: USER    (2) Final Total Internal Energy     =   -1.38 kcal/mol
DOCKED: USER    (3) Torsional Free Energy           =   +1.79 kcal/mol
DOCKED: USER    (4) Unbound System's Energy  [=(2)] =   -1.38 kcal/mol
DOCKED: USER    
DOCKED: USER    
DOCKED: USER    NEWDPF move ligand.pdbqt
DOCKED: USER    NEWDPF about 0.320000 0.169000 0.303000
DOCKED: USER    NEWDPF tran0 20.836926 -11.050246 -1.983407
DOCKED: USER    NEWDPF quaternion0 -0.238535 0.290348 -0.794662 0.476773
DOCKED: USER    NEWDPF axisangle0 -0.271362 0.330306 -0.904025 123.050335
DOCKED: USER    NEWDPF quat0 -0.271362 0.330306 -0.904025 123.050335
DOCKED: USER    NEWDPF dihe0 44.30 175.59 8.15 141.13 175.72 -136.34 
DOCKED: USER  keepresnum = 1 
DOCKED: USER  
DOCKED: REMARK  Name = 
DOCKED: REMARK  6 active torsions:
DOCKED: REMARK  status: ('A' for Active; 'I' for Inactive)
DOCKED: REMARK    1  A    between atoms: S_2  and  N_3
DOCKED: REMARK    2  A    between atoms: S_2  and  C_10
DOCKED: REMARK    3  A    between atoms: N_3  and  C_4
DOCKED: REMARK    4  A    between atoms: C_12  and  C_13
DOCKED: REMARK    5  A    between atoms: C_14  and  C_15
DOCKED: REMARK    6  A    between atoms: N_16  and  O_17
DOCKED: REMARK                            x       y       z     vdW  Elec       q    Type
DOCKED: REMARK                         _______ _______ _______ _____ _____    ______ ____
DOCKED: USER                              x       y       z     vdW  Elec       q    Type
DOCKED: USER                           _______ _______ _______ _____ _____    ______ ____
DOCKED: ROOT
DOCKED: ATOM      1  C   UNL     1      20.383  -9.952  -4.014 -0.37 -0.00    +0.000 A 
DOCKED: ATOM      2  C   UNL     1      20.276 -10.289  -2.658 -0.44 -0.00    +0.000 A 
DOCKED: ATOM      3  C   UNL     1      20.768  -9.427  -1.663 -0.50 -0.00    +0.000 A 
DOCKED: ATOM      4  C   UNL     1      21.389  -8.223  -2.053 -0.44 -0.00    +0.000 A 
DOCKED: ATOM      5  C   UNL     1      21.489  -7.885  -3.405 -0.32 -0.00    +0.000 A 
DOCKED: ATOM      6  C   UNL     1      20.983  -8.743  -4.384 -0.30 -0.00    +0.000 A 
DOCKED: ENDROOT
DOCKED: BRANCH   1   8
DOCKED: ATOM      7  O   UNL     1      18.267 -11.119  -5.195 -0.37 -0.00    +0.000 OA
DOCKED: ATOM      8  S   UNL     1      19.768 -11.052  -5.245 -0.55 -0.00    +0.000 S 
DOCKED: ATOM      9  O   UNL     1      20.329 -12.421  -4.993 -0.83 -0.00    +0.000 OA
DOCKED: BRANCH   8  10
DOCKED: ATOM     10  N   UNL     1      20.257 -10.515  -6.823 -0.28 -0.00    +0.000 N 
DOCKED: ATOM     11  H   UNL     1      19.649  -9.919  -7.317 +0.00 -0.00    +0.000 HD
DOCKED: BRANCH  10  12
DOCKED: ATOM     12  C   UNL     1      21.496 -10.891  -7.451 -0.25 -0.00    +0.000 A 
DOCKED: ATOM     13  C   UNL     1      21.719 -10.714  -8.830 -0.22 -0.00    +0.000 A 
DOCKED: ATOM     14  C   UNL     1      22.940 -11.082  -9.402 -0.21 -0.00    +0.000 A 
DOCKED: ATOM     15  C   UNL     1      23.948 -11.634  -8.608 -0.36 -0.00    +0.000 A 
DOCKED: ATOM     16  C   UNL     1      23.736 -11.822  -7.241 -0.44 -0.00    +0.000 A 
DOCKED: ATOM     17  C   UNL     1      22.517 -11.453  -6.664 -0.42 -0.00    +0.000 A 
DOCKED: ENDBRANCH  10  12
DOCKED: ENDBRANCH   8  10
DOCKED: ENDBRANCH   1   8
DOCKED: BRANCH   3  18
DOCKED: ATOM     18  C   UNL     1      20.649  -9.843  -0.243 -0.65 -0.00    +0.000 C 
DOCKED: ATOM     19  C   UNL     1      20.404 -11.105   0.144 -0.63 -0.00    +0.000 C 
DOCKED: BRANCH  19  20
DOCKED: ATOM     20  C   UNL     1      20.286 -11.514   1.559 -0.76 -0.00    +0.000 C 
DOCKED: ATOM     21  N   UNL     1      20.630 -10.641   2.642 -0.63 -0.00    +0.000 N 
DOCKED: ATOM     22  O   UNL     1      19.893 -12.684   1.813 -1.60 -0.00    +0.000 OA
DOCKED: ATOM     23  H   UNL     1      21.045  -9.768   2.457 -0.59 -0.00    +0.000 HD
DOCKED: BRANCH  21  24
DOCKED: ATOM     24  O   UNL     1      20.384 -11.013   3.922 -0.81 -0.00    +0.000 OA
DOCKED: ATOM     25  H   UNL     1      20.653 -11.937   4.047 -0.51 -0.00    +0.000 HD
DOCKED: ENDBRANCH  21  24
DOCKED: ENDBRANCH  19  20
DOCKED: ENDBRANCH   3  18
DOCKED: TORSDOF 6
DOCKED: TER
DOCKED: ENDMDL
________________________________________________________________________________


	BEGINNING GENETIC ALGORITHM DOCKING 5 of 100
Run: 5 Seed: 81779347 380700220 [ Run 5 of 100 GA/GALS ]
Beginning LAMARCKIAN GENETIC ALGORITHM (LGA), with a maximum of 2500000 energy evaluations.

Final-Value: -14.004


	FINAL GENETIC ALGORITHM DOCKED STATE
	_______________________________________________


Detailed state:  trans 21.042 -11.202 -1.965 quatxyzw 0.149722 -0.312573 0.858921 -0.377010 center 0.320 0.169 0.303 ntor 6 11.8245 51.7233 -51.3044 -41.3290 -139.7791 -71.4495
State:	 21.042 -11.202  -1.965   0.162 -0.337  0.927 -135.703     11.82   51.72  -51.30  -41.33 -139.78  -71.45

DOCKED: MODEL        5
DOCKED: USER    Run = 5
DOCKED: USER    DPF = ligand_dock.biased.dpf
DOCKED: USER  
DOCKED: USER    Estimated Free Energy of Binding    =  -10.63 kcal/mol  [=(1)+(2)+(3)-(4)]
DOCKED: USER    Estimated Inhibition Constant, Ki   =   16.11 nM (nanomolar)  [Temperature = 298.15 K]
DOCKED: USER    
DOCKED: USER    (1) Final Intermolecular Energy     =  -12.42 kcal/mol
DOCKED: USER        vdW + Hbond + desolv Energy     =  -12.42 kcal/mol
DOCKED: USER        Electrostatic Energy            =   +0.00 kcal/mol
DOCKED: USER    (2) Final Total Internal Energy     =   -1.58 kcal/mol
DOCKED: USER    (3) Torsional Free Energy           =   +1.79 kcal/mol
DOCKED: USER    (4) Unbound System's Energy  [=(2)] =   -1.58 kcal/mol
DOCKED: USER    
DOCKED: USER    
DOCKED: USER    NEWDPF move ligand.pdbqt
DOCKED: USER    NEWDPF about 0.320000 0.169000 0.303000
DOCKED: USER    NEWDPF tran0 21.042087 -11.202253 -1.964804
DOCKED: USER    NEWDPF quaternion0 0.149722 -0.312573 0.858921 -0.377010
DOCKED: USER    NEWDPF axisangle0 0.161650 -0.337475 0.927351 -135.702805
DOCKED: USER    NEWDPF quat0 0.161650 -0.337475 0.927351 -135.702805
DOCKED: USER    NEWDPF dihe0 11.82 51.72 -51.30 -41.33 -139.78 -71.45 
DOCKED: USER  keepresnum = 1 
DOCKED: USER  
DOCKED: REMARK  Name = 
DOCKED: REMARK  6 active torsions:
DOCKED: REMARK  status: ('A' for Active; 'I' for Inactive)
DOCKED: REMARK    1  A    between atoms: S_2  and  N_3
DOCKED: REMARK    2  A    between atoms: S_2  and  C_10
DOCKED: REMARK    3  A    between atoms: N_3  and  C_4
DOCKED: REMARK    4  A    between atoms: C_12  and  C_13
DOCKED: REMARK    5  A    between atoms: C_14  and  C_15
DOCKED: REMARK    6  A    between atoms: N_16  and  O_17
DOCKED: REMARK                            x       y       z     vdW  Elec       q    Type
DOCKED: REMARK                         _______ _______ _______ _____ _____    ______ ____
DOCKED: USER                              x       y       z     vdW  Elec       q    Type
DOCKED: USER                           _______ _______ _______ _____ _____    ______ ____
DOCKED: ROOT
DOCKED: ATOM      1  C   UNL     1      20.952 -10.230  -4.105 -0.42 -0.00    +0.000 A 
DOCKED: ATOM      2  C   UNL     1      20.560 -10.554  -2.800 -0.46 -0.00    +0.000 A 
DOCKED: ATOM      3  C   UNL     1      20.651  -9.606  -1.766 -0.50 -0.00    +0.000 A 
DOCKED: ATOM      4  C   UNL     1      21.161  -8.325  -2.062 -0.44 -0.00    +0.000 A 
DOCKED: ATOM      5  C   UNL     1      21.545  -8.001  -3.366 -0.31 -0.00    +0.000 A 
DOCKED: ATOM      6  C   UNL     1      21.437  -8.947  -4.387 -0.32 -0.00    +0.000 A 
DOCKED: ENDROOT
DOCKED: BRANCH   1   8
DOCKED: ATOM      7  O   UNL     1      20.204 -10.851  -6.613 -0.36 -0.00    +0.000 OA
DOCKED: ATOM      8  S   UNL     1      20.839 -11.437  -5.383 -0.62 -0.00    +0.000 S 
DOCKED: ATOM      9  O   UNL     1      19.998 -12.580  -4.894 -0.69 -0.00    +0.000 OA
DOCKED: BRANCH   8  10
DOCKED: ATOM     10  N   UNL     1      22.422 -12.026  -5.791 -0.59 -0.00    +0.000 N 
DOCKED: ATOM     11  H   UNL     1      22.791 -12.766  -5.258 -0.10 -0.00    +0.000 HD
DOCKED: BRANCH  10  12
DOCKED: ATOM     12  C   UNL     1      23.225 -11.495  -6.861 -0.40 -0.00    +0.000 A 
DOCKED: ATOM     13  C   UNL     1      23.300 -10.113  -7.124 -0.27 -0.00    +0.000 A 
DOCKED: ATOM     14  C   UNL     1      24.098  -9.634  -8.167 -0.21 -0.00    +0.000 A 
DOCKED: ATOM     15  C   UNL     1      24.824 -10.525  -8.960 -0.23 -0.00    +0.000 A 
DOCKED: ATOM     16  C   UNL     1      24.751 -11.897  -8.714 -0.40 -0.00    +0.000 A 
DOCKED: ATOM     17  C   UNL     1      23.955 -12.381  -7.671 -0.39 -0.00    +0.000 A 
DOCKED: ENDBRANCH  10  12
DOCKED: ENDBRANCH   8  10
DOCKED: ENDBRANCH   1   8
DOCKED: BRANCH   3  18
DOCKED: ATOM     18  C   UNL     1      20.243 -10.009  -0.398 -0.57 -0.00    +0.000 C 
DOCKED: ATOM     19  C   UNL     1      20.835 -10.993   0.295 -0.67 -0.00    +0.000 C 
DOCKED: BRANCH  19  20
DOCKED: ATOM     20  C   UNL     1      20.425 -11.391   1.658 -0.76 -0.00    +0.000 C 
DOCKED: ATOM     21  N   UNL     1      20.641 -10.553   2.801 -0.62 -0.00    +0.000 N 
DOCKED: ATOM     22  O   UNL     1      19.891 -12.521   1.818 -1.68 -0.00    +0.000 OA
DOCKED: ATOM     23  H   UNL     1      21.159  -9.721   2.709 -0.58 -0.00    +0.000 HD
DOCKED: BRANCH  21  24
DOCKED: ATOM     24  O   UNL     1      20.134 -10.902   4.008 -0.78 -0.00    +0.000 OA
DOCKED: ATOM     25  H   UNL     1      19.819 -11.819   3.973 -0.08 -0.00    +0.000 HD
DOCKED: ENDBRANCH  21  24
DOCKED: ENDBRANCH  19  20
DOCKED: ENDBRANCH   3  18
DOCKED: TORSDOF 6
DOCKED: TER
DOCKED: ENDMDL
________________________________________________________________________________


	BEGINNING GENETIC ALGORITHM DOCKING 6 of 100
Run: 6 Seed: 2023859768 793138719 [ Run 6 of 100 GA/GALS ]
Beginning LAMARCKIAN GENETIC ALGORITHM (LGA), with a maximum of 2500000 energy evaluations.

Final-Value: -13.453


	FINAL GENETIC ALGORITHM DOCKED STATE
	_______________________________________________


Detailed state:  trans 20.100 -12.125 -1.991 quatxyzw -0.613284 -0.543301 -0.146547 0.554285 center 0.320 0.169 0.303 ntor 6 9.2595 176.6179 119.8646 143.1880 -56.1251 164.0325
State:	 20.100 -12.125  -1.991  -0.737 -0.653 -0.176 112.677      9.26  176.62  119.86  143.19  -56.13  164.03

DOCKED: MODEL        6
DOCKED: USER    Run = 6
DOCKED: USER    DPF = ligand_dock.biased.dpf
DOCKED: USER  
DOCKED: USER    Estimated Free Energy of Binding    =  -10.14 kcal/mol  [=(1)+(2)+(3)-(4)]
DOCKED: USER    Estimated Inhibition Constant, Ki   =   36.79 nM (nanomolar)  [Temperature = 298.15 K]
DOCKED: USER    
DOCKED: USER    (1) Final Intermolecular Energy     =  -11.93 kcal/mol
DOCKED: USER        vdW + Hbond + desolv Energy     =  -11.93 kcal/mol
DOCKED: USER        Electrostatic Energy            =   +0.00 kcal/mol
DOCKED: USER    (2) Final Total Internal Energy     =   -1.52 kcal/mol
DOCKED: USER    (3) Torsional Free Energy           =   +1.79 kcal/mol
DOCKED: USER    (4) Unbound System's Energy  [=(2)] =   -1.52 kcal/mol
DOCKED: USER    
DOCKED: USER    
DOCKED: USER    NEWDPF move ligand.pdbqt
DOCKED: USER    NEWDPF about 0.320000 0.169000 0.303000
DOCKED: USER    NEWDPF tran0 20.100089 -12.125105 -1.991139
DOCKED: USER    NEWDPF quaternion0 -0.613284 -0.543301 -0.146547 0.554285
DOCKED: USER    NEWDPF axisangle0 -0.736830 -0.652749 -0.176069 112.677070
DOCKED: USER    NEWDPF quat0 -0.736830 -0.652749 -0.176069 112.677070
DOCKED: USER    NEWDPF dihe0 9.26 176.62 119.86 143.19 -56.13 164.03 
DOCKED: USER  keepresnum = 1 
DOCKED: USER  
DOCKED: REMARK  Name = 
DOCKED: REMARK  6 active torsions:
DOCKED: REMARK  status: ('A' for Active; 'I' for Inactive)
DOCKED: REMARK    1  A    between atoms: S_2  and  N_3
DOCKED: REMARK    2  A    between atoms: S_2  and  C_10
DOCKED: REMARK    3  A    between atoms: N_3  and  C_4
DOCKED: REMARK    4  A    between atoms: C_12  and  C_13
DOCKED: REMARK    5  A    between atoms: C_14  and  C_15
DOCKED: REMARK    6  A    between atoms: N_16  and  O_17
DOCKED: REMARK                            x       y       z     vdW  Elec       q    Type
DOCKED: REMARK                         _______ _______ _______ _____ _____    ______ ____
DOCKED: USER                              x       y       z     vdW  Elec       q    Type
DOCKED: USER                           _______ _______ _______ _____ _____    ______ ____
DOCKED: ROOT
DOCKED: ATOM      1  C   UNL     1      18.401 -11.231  -0.632 -0.41 -0.00    +0.000 A 
DOCKED: ATOM      2  C   UNL     1      19.554 -11.269  -1.427 -0.26 -0.00    +0.000 A 
DOCKED: ATOM      3  C   UNL     1      19.542 -10.755  -2.735 -0.39 -0.00    +0.000 A 
DOCKED: ATOM      4  C   UNL     1      18.342 -10.215  -3.242 -0.27 -0.00    +0.000 A 
DOCKED: ATOM      5  C   UNL     1      17.195 -10.171  -2.444 -0.17 -0.00    +0.000 A 
DOCKED: ATOM      6  C   UNL     1      17.224 -10.672  -1.142 -0.26 -0.00    +0.000 A 
DOCKED: ENDROOT
DOCKED: BRANCH   1   8
DOCKED: ATOM      7  O   UNL     1      19.843 -12.235   1.405 -1.63 -0.00    +0.000 OA
DOCKED: ATOM      8  S   UNL     1      18.437 -11.889   1.002 -0.73 -0.00    +0.000 S 
DOCKED: ATOM      9  O   UNL     1      17.596 -13.132   1.040 -0.99 +0.00    +0.000 OA
DOCKED: BRANCH   8  10
DOCKED: ATOM     10  N   UNL     1      17.796 -10.731   2.127 -0.45 -0.00    +0.000 N 
DOCKED: ATOM     11  H   UNL     1      18.421 -10.093   2.540 -0.03 -0.00    +0.000 HD
DOCKED: BRANCH  10  12
DOCKED: ATOM     12  C   UNL     1      16.406 -10.650   2.492 -0.41 +0.00    +0.000 A 
DOCKED: ATOM     13  C   UNL     1      15.970  -9.918   3.613 -0.40 +0.00    +0.000 A 
DOCKED: ATOM     14  C   UNL     1      14.609  -9.855   3.931 -0.38 +0.00    +0.000 A 
DOCKED: ATOM     15  C   UNL     1      13.673 -10.524   3.139 -0.27 +0.00    +0.000 A 
DOCKED: ATOM     16  C   UNL     1      14.095 -11.259   2.030 -0.39 +0.00    +0.000 A 
DOCKED: ATOM     17  C   UNL     1      15.454 -11.323   1.707 -0.39 +0.00    +0.000 A 
DOCKED: ENDBRANCH  10  12
DOCKED: ENDBRANCH   8  10
DOCKED: ENDBRANCH   1   8
DOCKED: BRANCH   3  18
DOCKED: ATOM     18  C   UNL     1      20.785 -10.841  -3.541 -0.50 -0.00    +0.000 C 
DOCKED: ATOM     19  C   UNL     1      20.798 -11.048  -4.867 -0.51 -0.00    +0.000 C 
DOCKED: BRANCH  19  20
DOCKED: ATOM     20  C   UNL     1      22.038 -11.133  -5.666 -0.50 -0.00    +0.000 C 
DOCKED: ATOM     21  N   UNL     1      22.589 -12.384  -6.100 -0.57 -0.00    +0.000 N 
DOCKED: ATOM     22  O   UNL     1      22.644 -10.065  -5.948 -0.35 -0.00    +0.000 OA
DOCKED: ATOM     23  H   UNL     1      22.190 -13.229  -5.790 -0.52 -0.00    +0.000 HD
DOCKED: BRANCH  21  24
DOCKED: ATOM     24  O   UNL     1      23.654 -12.406  -6.936 -1.11 -0.00    +0.000 OA
DOCKED: ATOM     25  H   UNL     1      24.011 -11.509  -7.028 -0.04 -0.00    +0.000 HD
DOCKED: ENDBRANCH  21  24
DOCKED: ENDBRANCH  19  20
DOCKED: ENDBRANCH   3  18
DOCKED: TORSDOF 6
DOCKED: TER
DOCKED: ENDMDL
________________________________________________________________________________


	BEGINNING GENETIC ALGORITHM DOCKING 7 of 100
Run: 7 Seed: 2147178369 251310782 [ Run 7 of 100 GA/GALS ]
Beginning LAMARCKIAN GENETIC ALGORITHM (LGA), with a maximum of 2500000 energy evaluations.

Final-Value: -13.185


	FINAL GENETIC ALGORITHM DOCKED STATE
	_______________________________________________


Detailed state:  trans 20.258 -8.537 -0.929 quatxyzw -0.052387 0.157248 0.328257 0.929933 center 0.320 0.169 0.303 ntor 6 30.0553 -33.5531 74.0056 180.0000 -97.6492 39.4306
State:	 20.258  -8.537  -0.929  -0.142  0.428  0.893 43.151     30.06  -33.55   74.01  180.00  -97.65   39.43

DOCKED: MODEL        7
DOCKED: USER    Run = 7
DOCKED: USER    DPF = ligand_dock.biased.dpf
DOCKED: USER  
DOCKED: USER    Estimated Free Energy of Binding    =  -10.00 kcal/mol  [=(1)+(2)+(3)-(4)]
DOCKED: USER    Estimated Inhibition Constant, Ki   =   46.71 nM (nanomolar)  [Temperature = 298.15 K]
DOCKED: USER    
DOCKED: USER    (1) Final Intermolecular Energy     =  -11.79 kcal/mol
DOCKED: USER        vdW + Hbond + desolv Energy     =  -11.79 kcal/mol
DOCKED: USER        Electrostatic Energy            =   +0.00 kcal/mol
DOCKED: USER    (2) Final Total Internal Energy     =   -1.40 kcal/mol
DOCKED: USER    (3) Torsional Free Energy           =   +1.79 kcal/mol
DOCKED: USER    (4) Unbound System's Energy  [=(2)] =   -1.40 kcal/mol
DOCKED: USER    
DOCKED: USER    
DOCKED: USER    NEWDPF move ligand.pdbqt
DOCKED: USER    NEWDPF about 0.320000 0.169000 0.303000
DOCKED: USER    NEWDPF tran0 20.257828 -8.537183 -0.929406
DOCKED: USER    NEWDPF quaternion0 -0.052387 0.157248 0.328257 0.929933
DOCKED: USER    NEWDPF axisangle0 -0.142461 0.427620 0.892662 43.151205
DOCKED: USER    NEWDPF quat0 -0.142461 0.427620 0.892662 43.151205
DOCKED: USER    NEWDPF dihe0 30.06 -33.55 74.01 180.00 -97.65 39.43 
DOCKED: USER  keepresnum = 1 
DOCKED: USER  
DOCKED: REMARK  Name = 
DOCKED: REMARK  6 active torsions:
DOCKED: REMARK  status: ('A' for Active; 'I' for Inactive)
DOCKED: REMARK    1  A    between atoms: S_2  and  N_3
DOCKED: REMARK    2  A    between atoms: S_2  and  C_10
DOCKED: REMARK    3  A    between atoms: N_3  and  C_4
DOCKED: REMARK    4  A    between atoms: C_12  and  C_13
DOCKED: REMARK    5  A    between atoms: C_14  and  C_15
DOCKED: REMARK    6  A    between atoms: N_16  and  O_17
DOCKED: REMARK                            x       y       z     vdW  Elec       q    Type
DOCKED: REMARK                         _______ _______ _______ _____ _____    ______ ____
DOCKED: USER                              x       y       z     vdW  Elec       q    Type
DOCKED: USER                           _______ _______ _______ _____ _____    ______ ____
DOCKED: ROOT
DOCKED: ATOM      1  C   UNL     1      20.939  -7.900  -3.089 -0.36 -0.00    +0.000 A 
DOCKED: ATOM      2  C   UNL     1      21.028  -8.422  -1.792 -0.45 -0.00    +0.000 A 
DOCKED: ATOM      3  C   UNL     1      21.094  -9.810  -1.579 -0.56 -0.00    +0.000 A 
DOCKED: ATOM      4  C   UNL     1      21.053 -10.671  -2.695 -0.43 -0.00    +0.000 A 
DOCKED: ATOM      5  C   UNL     1      20.973 -10.148  -3.988 -0.42 -0.00    +0.000 A 
DOCKED: ATOM      6  C   UNL     1      20.921  -8.767  -4.187 -0.31 -0.00    +0.000 A 
DOCKED: ENDROOT
DOCKED: BRANCH   1   8
DOCKED: ATOM      7  O   UNL     1      19.529  -5.776  -3.944 -0.19 -0.00    +0.000 OA
DOCKED: ATOM      8  S   UNL     1      20.847  -6.157  -3.332 -0.39 -0.00    +0.000 S 
DOCKED: ATOM      9  O   UNL     1      21.956  -5.739  -4.254 -0.22 -0.00    +0.000 OA
DOCKED: BRANCH   8  10
DOCKED: ATOM     10  N   UNL     1      21.024  -5.332  -1.813 -0.44 -0.00    +0.000 N 
DOCKED: ATOM     11  H   UNL     1      20.433  -5.596  -1.072 -0.07 +0.00    +0.000 HD
DOCKED: BRANCH  10  12
DOCKED: ATOM     12  C   UNL     1      21.984  -4.287  -1.575 -0.31 +0.00    +0.000 A 
DOCKED: ATOM     13  C   UNL     1      23.322  -4.390  -2.002 -0.30 +0.00    +0.000 A 
DOCKED: ATOM     14  C   UNL     1      24.224  -3.349  -1.760 -0.29 -0.00    +0.000 A 
DOCKED: ATOM     15  C   UNL     1      23.804  -2.200  -1.087 -0.25 -0.00    +0.000 A 
DOCKED: ATOM     16  C   UNL     1      22.482  -2.090  -0.652 -0.27 -0.00    +0.000 A 
DOCKED: ATOM     17  C   UNL     1      21.576  -3.128  -0.893 -0.33 +0.00    +0.000 A 
DOCKED: ENDBRANCH  10  12
DOCKED: ENDBRANCH   8  10
DOCKED: ENDBRANCH   1   8
DOCKED: BRANCH   3  18
DOCKED: ATOM     18  C   UNL     1      21.164 -10.310  -0.184 -0.71 -0.00    +0.000 C 
DOCKED: ATOM     19  C   UNL     1      20.122 -10.851   0.465 -0.66 -0.00    +0.000 C 
DOCKED: BRANCH  19  20
DOCKED: ATOM     20  C   UNL     1      20.197 -11.347   1.855 -0.76 -0.00    +0.000 C 
DOCKED: ATOM     21  N   UNL     1      20.633 -10.522   2.943 -0.63 -0.00    +0.000 N 
DOCKED: ATOM     22  O   UNL     1      19.891 -12.549   2.080 -1.63 -0.00    +0.000 OA
DOCKED: ATOM     23  H   UNL     1      20.983  -9.619   2.765 -0.58 -0.00    +0.000 HD
DOCKED: BRANCH  21  24
DOCKED: ATOM     24  O   UNL     1      20.563 -10.980   4.217 -0.73 -0.00    +0.000 OA
DOCKED: ATOM     25  H   UNL     1      20.667 -11.944   4.219 -0.49 -0.00    +0.000 HD
DOCKED: ENDBRANCH  21  24
DOCKED: ENDBRANCH  19  20
DOCKED: ENDBRANCH   3  18
DOCKED: TORSDOF 6
DOCKED: TER
DOCKED: ENDMDL
________________________________________________________________________________


	BEGINNING GENETIC ALGORITHM DOCKING 8 of 100
Run: 8 Seed: 467715209 635807441 [ Run 8 of 100 GA/GALS ]
Beginning LAMARCKIAN GENETIC ALGORITHM (LGA), with a maximum of 2500000 energy evaluations.

Final-Value: -13.538


	FINAL GENETIC ALGORITHM DOCKED STATE
	_______________________________________________


Detailed state:  trans 20.843 -11.441 -2.418 quatxyzw 0.476261 0.712783 0.086642 -0.507553 center 0.320 0.169 0.303 ntor 6 -1.1943 -168.1428 161.3826 122.4111 -115.7354 -180.0000
State:	 20.843 -11.441  -2.418   0.553  0.827  0.101 -118.998     -1.19 -168.14  161.38  122.41 -115.74 -180.00

DOCKED: MODEL        8
DOCKED: USER    Run = 8
DOCKED: USER    DPF = ligand_dock.biased.dpf
DOCKED: USER  
DOCKED: USER    Estimated Free Energy of Binding    =  -10.24 kcal/mol  [=(1)+(2)+(3)-(4)]
DOCKED: USER    Estimated Inhibition Constant, Ki   =   30.95 nM (nanomolar)  [Temperature = 298.15 K]
DOCKED: USER    
DOCKED: USER    (1) Final Intermolecular Energy     =  -12.03 kcal/mol
DOCKED: USER        vdW + Hbond + desolv Energy     =  -12.03 kcal/mol
DOCKED: USER        Electrostatic Energy            =   +0.00 kcal/mol
DOCKED: USER    (2) Final Total Internal Energy     =   -1.50 kcal/mol
DOCKED: USER    (3) Torsional Free Energy           =   +1.79 kcal/mol
DOCKED: USER    (4) Unbound System's Energy  [=(2)] =   -1.50 kcal/mol
DOCKED: USER    
DOCKED: USER    
DOCKED: USER    NEWDPF move ligand.pdbqt
DOCKED: USER    NEWDPF about 0.320000 0.169000 0.303000
DOCKED: USER    NEWDPF tran0 20.842621 -11.440828 -2.417757
DOCKED: USER    NEWDPF quaternion0 0.476261 0.712783 0.086642 -0.507553
DOCKED: USER    NEWDPF axisangle0 0.552750 0.827258 0.100557 -118.998079
DOCKED: USER    NEWDPF quat0 0.552750 0.827258 0.100557 -118.998079
DOCKED: USER    NEWDPF dihe0 -1.19 -168.14 161.38 122.41 -115.74 -180.00 
DOCKED: USER  keepresnum = 1 
DOCKED: USER  
DOCKED: REMARK  Name = 
DOCKED: REMARK  6 active torsions:
DOCKED: REMARK  status: ('A' for Active; 'I' for Inactive)
DOCKED: REMARK    1  A    between atoms: S_2  and  N_3
DOCKED: REMARK    2  A    between atoms: S_2  and  C_10
DOCKED: REMARK    3  A    between atoms: N_3  and  C_4
DOCKED: REMARK    4  A    between atoms: C_12  and  C_13
DOCKED: REMARK    5  A    between atoms: C_14  and  C_15
DOCKED: REMARK    6  A    between atoms: N_16  and  O_17
DOCKED: REMARK                            x       y       z     vdW  Elec       q    Type
DOCKED: REMARK                         _______ _______ _______ _____ _____    ______ ____
DOCKED: USER                              x       y       z     vdW  Elec       q    Type
DOCKED: USER                           _______ _______ _______ _____ _____    ______ ____
DOCKED: ROOT
DOCKED: ATOM      1  C   UNL     1      19.312 -10.728  -0.780 -0.43 -0.00    +0.000 A 
DOCKED: ATOM      2  C   UNL     1      20.196 -10.651  -1.864 -0.43 -0.00    +0.000 A 
DOCKED: ATOM      3  C   UNL     1      19.713 -10.496  -3.175 -0.39 -0.00    +0.000 A 
DOCKED: ATOM      4  C   UNL     1      18.320 -10.438  -3.383 -0.26 -0.00    +0.000 A 
DOCKED: ATOM      5  C   UNL     1      17.440 -10.508  -2.300 -0.20 -0.00    +0.000 A 
DOCKED: ATOM      6  C   UNL     1      17.932 -10.648  -1.001 -0.26 -0.00    +0.000 A 
DOCKED: ENDROOT
DOCKED: BRANCH   1   8
DOCKED: ATOM      7  O   UNL     1      21.344 -10.408   0.953 -0.65 -0.00    +0.000 OA
DOCKED: ATOM      8  S   UNL     1      19.938 -10.932   0.854 -0.82 -0.00    +0.000 S 
DOCKED: ATOM      9  O   UNL     1      19.935 -12.395   1.194 -1.51 -0.00    +0.000 OA
DOCKED: BRANCH   8  10
DOCKED: ATOM     10  N   UNL     1      18.937 -10.080   1.989 -0.51 -0.00    +0.000 N 
DOCKED: ATOM     11  H   UNL     1      19.311  -9.281   2.426 -0.44 -0.00    +0.000 HD
DOCKED: BRANCH  10  12
DOCKED: ATOM     12  C   UNL     1      17.594 -10.472   2.328 -0.44 -0.00    +0.000 A 
DOCKED: ATOM     13  C   UNL     1      16.813  -9.744   3.246 -0.35 +0.00    +0.000 A 
DOCKED: ATOM     14  C   UNL     1      15.508 -10.151   3.543 -0.42 +0.00    +0.000 A 
DOCKED: ATOM     15  C   UNL     1      14.973 -11.288   2.933 -0.46 +0.00    +0.000 A 
DOCKED: ATOM     16  C   UNL     1      15.741 -12.021   2.027 -0.38 +0.00    +0.000 A 
DOCKED: ATOM     17  C   UNL     1      17.045 -11.617   1.726 -0.39 +0.00    +0.000 A 
DOCKED: ENDBRANCH  10  12
DOCKED: ENDBRANCH   8  10
DOCKED: ENDBRANCH   1   8
DOCKED: BRANCH   3  18
DOCKED: ATOM     18  C   UNL     1      20.693 -10.442  -4.288 -0.47 -0.00    +0.000 C 
DOCKED: ATOM     19  C   UNL     1      21.190 -11.530  -4.895 -0.51 -0.00    +0.000 C 
DOCKED: BRANCH  19  20
DOCKED: ATOM     20  C   UNL     1      22.165 -11.470  -6.003 -0.51 -0.00    +0.000 C 
DOCKED: ATOM     21  N   UNL     1      23.226 -12.424  -6.145 -0.59 -0.00    +0.000 N 
DOCKED: ATOM     22  O   UNL     1      22.072 -10.528  -6.835 -0.35 -0.00    +0.000 OA
DOCKED: ATOM     23  H   UNL     1      23.380 -13.096  -5.442 -0.10 -0.00    +0.000 HD
DOCKED: BRANCH  21  24
DOCKED: ATOM     24  O   UNL     1      24.017 -12.406  -7.246 -1.16 -0.00    +0.000 OA
DOCKED: ATOM     25  H   UNL     1      23.721 -11.702  -7.844 -0.02 -0.00    +0.000 HD
DOCKED: ENDBRANCH  21  24
DOCKED: ENDBRANCH  19  20
DOCKED: ENDBRANCH   3  18
DOCKED: TORSDOF 6
DOCKED: TER
DOCKED: ENDMDL
________________________________________________________________________________


	BEGINNING GENETIC ALGORITHM DOCKING 9 of 100
Run: 9 Seed: 1321908777 1805318239 [ Run 9 of 100 GA/GALS ]
Beginning LAMARCKIAN GENETIC ALGORITHM (LGA), with a maximum of 2500000 energy evaluations.

Final-Value: -13.629


	FINAL GENETIC ALGORITHM DOCKED STATE
	_______________________________________________


Detailed state:  trans 20.442 -8.205 -0.742 quatxyzw 0.209643 -0.109819 -0.452590 -0.859739 center 0.320 0.169 0.303 ntor 6 36.5471 -180.0000 -179.8618 -135.2538 179.9956 -14.2988
State:	 20.442  -8.205  -0.742   0.410 -0.215 -0.886 -61.425     36.55 -180.00 -179.86 -135.25  180.00  -14.30

DOCKED: MODEL        9
DOCKED: USER    Run = 9
DOCKED: USER    DPF = ligand_dock.biased.dpf
DOCKED: USER  
DOCKED: USER    Estimated Free Energy of Binding    =  -10.51 kcal/mol  [=(1)+(2)+(3)-(4)]
DOCKED: USER    Estimated Inhibition Constant, Ki   =   19.90 nM (nanomolar)  [Temperature = 298.15 K]
DOCKED: USER    
DOCKED: USER    (1) Final Intermolecular Energy     =  -12.30 kcal/mol
DOCKED: USER        vdW + Hbond + desolv Energy     =  -12.30 kcal/mol
DOCKED: USER        Electrostatic Energy            =   +0.00 kcal/mol
DOCKED: USER    (2) Final Total Internal Energy     =   -1.33 kcal/mol
DOCKED: USER    (3) Torsional Free Energy           =   +1.79 kcal/mol
DOCKED: USER    (4) Unbound System's Energy  [=(2)] =   -1.33 kcal/mol
DOCKED: USER    
DOCKED: USER    
DOCKED: USER    NEWDPF move ligand.pdbqt
DOCKED: USER    NEWDPF about 0.320000 0.169000 0.303000
DOCKED: USER    NEWDPF tran0 20.441779 -8.205124 -0.741650
DOCKED: USER    NEWDPF quaternion0 0.209643 -0.109819 -0.452590 -0.859739
DOCKED: USER    NEWDPF axisangle0 0.410475 -0.215021 -0.886158 -61.425363
DOCKED: USER    NEWDPF quat0 0.410475 -0.215021 -0.886158 -61.425363
DOCKED: USER    NEWDPF dihe0 36.55 -180.00 -179.86 -135.25 180.00 -14.30 
DOCKED: USER  keepresnum = 1 
DOCKED: USER  
DOCKED: REMARK  Name = 
DOCKED: REMARK  6 active torsions:
DOCKED: REMARK  status: ('A' for Active; 'I' for Inactive)
DOCKED: REMARK    1  A    between atoms: S_2  and  N_3
DOCKED: REMARK    2  A    between atoms: S_2  and  C_10
DOCKED: REMARK    3  A    between atoms: N_3  and  C_4
DOCKED: REMARK    4  A    between atoms: C_12  and  C_13
DOCKED: REMARK    5  A    between atoms: C_14  and  C_15
DOCKED: REMARK    6  A    between atoms: N_16  and  O_17
DOCKED: REMARK                            x       y       z     vdW  Elec       q    Type
DOCKED: REMARK                         _______ _______ _______ _____ _____    ______ ____
DOCKED: USER                              x       y       z     vdW  Elec       q    Type
DOCKED: USER                           _______ _______ _______ _____ _____    ______ ____
DOCKED: ROOT
DOCKED: ATOM      1  C   UNL     1      21.382  -7.004  -2.533 -0.41 -0.00    +0.000 A 
DOCKED: ATOM      2  C   UNL     1      21.273  -7.962  -1.516 -0.36 -0.00    +0.000 A 
DOCKED: ATOM      3  C   UNL     1      21.028  -9.312  -1.825 -0.52 -0.00    +0.000 A 
DOCKED: ATOM      4  C   UNL     1      20.877  -9.683  -3.177 -0.44 -0.00    +0.000 A 
DOCKED: ATOM      5  C   UNL     1      20.993  -8.727  -4.189 -0.32 -0.00    +0.000 A 
DOCKED: ATOM      6  C   UNL     1      21.250  -7.393  -3.871 -0.30 -0.00    +0.000 A 
DOCKED: ENDROOT
DOCKED: BRANCH   1   8
DOCKED: ATOM      7  O   UNL     1      21.503  -4.438  -3.330 -0.20 -0.00    +0.000 OA
DOCKED: ATOM      8  S   UNL     1      21.679  -5.317  -2.123 -0.53 -0.00    +0.000 S 
DOCKED: ATOM      9  O   UNL     1      23.087  -5.183  -1.620 -0.67 +0.00    +0.000 OA
DOCKED: BRANCH   8  10
DOCKED: ATOM     10  N   UNL     1      20.578  -4.800  -0.883 -0.48 +0.00    +0.000 N 
DOCKED: ATOM     11  H   UNL     1      19.849  -5.411  -0.629 -0.08 -0.00    +0.000 HD
DOCKED: BRANCH  10  12
DOCKED: ATOM     12  C   UNL     1      20.668  -3.533  -0.206 -0.34 +0.00    +0.000 A 
DOCKED: ATOM     13  C   UNL     1      19.633  -3.052   0.620 -0.28 -0.00    +0.000 A 
DOCKED: ATOM     14  C   UNL     1      19.761  -1.821   1.269 -0.35 -0.00    +0.000 A 
DOCKED: ATOM     15  C   UNL     1      20.916  -1.055   1.098 -0.31 -0.00    +0.000 A 
DOCKED: ATOM     16  C   UNL     1      21.945  -1.518   0.276 -0.30 -0.00    +0.000 A 
DOCKED: ATOM     17  C   UNL     1      21.823  -2.750  -0.374 -0.32 +0.00    +0.000 A 
DOCKED: ENDBRANCH  10  12
DOCKED: ENDBRANCH   8  10
DOCKED: ENDBRANCH   1   8
DOCKED: BRANCH   3  18
DOCKED: ATOM     18  C   UNL     1      20.899 -10.281  -0.709 -0.67 -0.00    +0.000 C 
DOCKED: ATOM     19  C   UNL     1      20.596  -9.929   0.550 -0.58 -0.00    +0.000 C 
DOCKED: BRANCH  19  20
DOCKED: ATOM     20  C   UNL     1      20.469 -10.899   1.658 -0.71 -0.00    +0.000 C 
DOCKED: ATOM     21  N   UNL     1      20.524 -10.503   3.035 -0.64 -0.00    +0.000 N 
DOCKED: ATOM     22  O   UNL     1      20.336 -12.120   1.375 -1.57 -0.00    +0.000 OA
DOCKED: ATOM     23  H   UNL     1      20.741  -9.572   3.270 -0.59 -0.00    +0.000 HD
DOCKED: BRANCH  21  24
DOCKED: ATOM     24  O   UNL     1      20.274 -11.406   4.014 -0.82 -0.00    +0.000 OA
DOCKED: ATOM     25  H   UNL     1      20.633 -12.269   3.756 -0.51 -0.00    +0.000 HD
DOCKED: ENDBRANCH  21  24
DOCKED: ENDBRANCH  19  20
DOCKED: ENDBRANCH   3  18
DOCKED: TORSDOF 6
DOCKED: TER
DOCKED: ENDMDL
________________________________________________________________________________


	BEGINNING GENETIC ALGORITHM DOCKING 10 of 100
Run: 10 Seed: 1066006080 1158600258 [ Run 10 of 100 GA/GALS ]
Beginning LAMARCKIAN GENETIC ALGORITHM (LGA), with a maximum of 2500000 energy evaluations.

Final-Value: -13.884


	FINAL GENETIC ALGORITHM DOCKED STATE
	_______________________________________________


Detailed state:  trans 21.609 -10.773 -1.745 quatxyzw -0.175729 0.291598 -0.892540 0.295741 center 0.320 0.169 0.303 ntor 6 42.7283 -105.3328 -17.7498 172.6648 177.8474 -144.3949
State:	 21.609 -10.773  -1.745  -0.184  0.305 -0.934 145.596     42.73 -105.33  -17.75  172.66  177.85 -144.39

DOCKED: MODEL       10
DOCKED: USER    Run = 10
DOCKED: USER    DPF = ligand_dock.biased.dpf
DOCKED: USER  
DOCKED: USER    Estimated Free Energy of Binding    =  -10.75 kcal/mol  [=(1)+(2)+(3)-(4)]
DOCKED: USER    Estimated Inhibition Constant, Ki   =   13.11 nM (nanomolar)  [Temperature = 298.15 K]
DOCKED: USER    
DOCKED: USER    (1) Final Intermolecular Energy     =  -12.54 kcal/mol
DOCKED: USER        vdW + Hbond + desolv Energy     =  -12.54 kcal/mol
DOCKED: USER        Electrostatic Energy            =   +0.00 kcal/mol
DOCKED: USER    (2) Final Total Internal Energy     =   -1.34 kcal/mol
DOCKED: USER    (3) Torsional Free Energy           =   +1.79 kcal/mol
DOCKED: USER    (4) Unbound System's Energy  [=(2)] =   -1.34 kcal/mol
DOCKED: USER    
DOCKED: USER    
DOCKED: USER    NEWDPF move ligand.pdbqt
DOCKED: USER    NEWDPF about 0.320000 0.169000 0.303000
DOCKED: USER    NEWDPF tran0 21.608537 -10.772812 -1.744715
DOCKED: USER    NEWDPF quaternion0 -0.175729 0.291598 -0.892540 0.295741
DOCKED: USER    NEWDPF axisangle0 -0.183958 0.305252 -0.934334 145.596015
DOCKED: USER    NEWDPF quat0 -0.183958 0.305252 -0.934334 145.596015
DOCKED: USER    NEWDPF dihe0 42.73 -105.33 -17.75 172.66 177.85 -144.39 
DOCKED: USER  keepresnum = 1 
DOCKED: USER  
DOCKED: REMARK  Name = 
DOCKED: REMARK  6 active torsions:
DOCKED: REMARK  status: ('A' for Active; 'I' for Inactive)
DOCKED: REMARK    1  A    between atoms: S_2  and  N_3
DOCKED: REMARK    2  A    between atoms: S_2  and  C_10
DOCKED: REMARK    3  A    between atoms: N_3  and  C_4
DOCKED: REMARK    4  A    between atoms: C_12  and  C_13
DOCKED: REMARK    5  A    between atoms: C_14  and  C_15
DOCKED: REMARK    6  A    between atoms: N_16  and  O_17
DOCKED: REMARK                            x       y       z     vdW  Elec       q    Type
DOCKED: REMARK                         _______ _______ _______ _____ _____    ______ ____
DOCKED: USER                              x       y       z     vdW  Elec       q    Type
DOCKED: USER                           _______ _______ _______ _____ _____    ______ ____
DOCKED: ROOT
DOCKED: ATOM      1  C   UNL     1      21.342  -9.862  -3.897 -0.42 -0.00    +0.000 A 
DOCKED: ATOM      2  C   UNL     1      21.015 -10.237  -2.588 -0.50 -0.00    +0.000 A 
DOCKED: ATOM      3  C   UNL     1      20.926  -9.275  -1.567 -0.52 -0.00    +0.000 A 
DOCKED: ATOM      4  C   UNL     1      21.188  -7.925  -1.879 -0.41 -0.00    +0.000 A 
DOCKED: ATOM      5  C   UNL     1      21.507  -7.553  -3.188 -0.32 -0.00    +0.000 A 
DOCKED: ATOM      6  C   UNL     1      21.579  -8.515  -4.196 -0.28 -0.00    +0.000 A 
DOCKED: ENDROOT
DOCKED: BRANCH   1   8
DOCKED: ATOM      7  O   UNL     1      20.145 -11.796  -5.333 -0.59 -0.00    +0.000 OA
DOCKED: ATOM      8  S   UNL     1      21.459 -11.086  -5.160 -0.65 -0.00    +0.000 S 
DOCKED: ATOM      9  O   UNL     1      22.509 -12.085  -4.768 -0.43 -0.00    +0.000 OA
DOCKED: BRANCH   8  10
DOCKED: ATOM     10  N   UNL     1      21.906 -10.348  -6.668 -0.31 -0.00    +0.000 N 
DOCKED: ATOM     11  H   UNL     1      21.305  -9.665  -7.043 +0.00 -0.00    +0.000 HD
DOCKED: BRANCH  10  12
DOCKED: ATOM     12  C   UNL     1      23.101 -10.677  -7.399 -0.33 -0.00    +0.000 A 
DOCKED: ATOM     13  C   UNL     1      24.121  -9.732  -7.627 -0.26 -0.00    +0.000 A 
DOCKED: ATOM     14  C   UNL     1      25.272 -10.091  -8.334 -0.28 -0.00    +0.000 A 
DOCKED: ATOM     15  C   UNL     1      25.416 -11.391  -8.825 -0.36 -0.00    +0.000 A 
DOCKED: ATOM     16  C   UNL     1      24.408 -12.333  -8.612 -0.41 -0.00    +0.000 A 
DOCKED: ATOM     17  C   UNL     1      23.256 -11.979  -7.904 -0.43 -0.00    +0.000 A 
DOCKED: ENDBRANCH  10  12
DOCKED: ENDBRANCH   8  10
DOCKED: ENDBRANCH   1   8
DOCKED: BRANCH   3  18
DOCKED: ATOM     18  C   UNL     1      20.598  -9.729  -0.193 -0.62 -0.00    +0.000 C 
DOCKED: ATOM     19  C   UNL     1      20.736 -10.997   0.224 -0.66 -0.00    +0.000 C 
DOCKED: BRANCH  19  20
DOCKED: ATOM     20  C   UNL     1      20.408 -11.445   1.594 -0.76 -0.00    +0.000 C 
DOCKED: ATOM     21  N   UNL     1      20.640 -10.624   2.746 -0.63 -0.00    +0.000 N 
DOCKED: ATOM     22  O   UNL     1      19.934 -12.602   1.749 -1.64 -0.00    +0.000 OA
DOCKED: ATOM     23  H   UNL     1      21.114  -9.767   2.651 -0.59 -0.00    +0.000 HD
DOCKED: BRANCH  21  24
DOCKED: ATOM     24  O   UNL     1      20.205 -11.024   3.966 -0.81 -0.00    +0.000 OA
DOCKED: ATOM     25  H   UNL     1      20.392 -11.969   4.081 -0.33 -0.00    +0.000 HD
DOCKED: ENDBRANCH  21  24
DOCKED: ENDBRANCH  19  20
DOCKED: ENDBRANCH   3  18
DOCKED: TORSDOF 6
DOCKED: TER
DOCKED: ENDMDL
________________________________________________________________________________


	BEGINNING GENETIC ALGORITHM DOCKING 11 of 100
Run: 11 Seed: 1135000090 1537944552 [ Run 11 of 100 GA/GALS ]
Beginning LAMARCKIAN GENETIC ALGORITHM (LGA), with a maximum of 2500000 energy evaluations.

Final-Value: -14.483


	FINAL GENETIC ALGORITHM DOCKED STATE
	_______________________________________________


Detailed state:  trans 17.321 -8.653 2.413 quatxyzw -0.216327 -0.603822 -0.734384 -0.221996 center 0.320 0.169 0.303 ntor 6 7.6347 13.3841 -83.2048 -6.2159 110.7338 -41.0129
State:	 17.321  -8.653   2.413  -0.222 -0.619 -0.753 -154.347      7.63   13.38  -83.20   -6.22  110.73  -41.01

DOCKED: MODEL       11
DOCKED: USER    Run = 11
DOCKED: USER    DPF = ligand_dock.biased.dpf
DOCKED: USER  
DOCKED: USER    Estimated Free Energy of Binding    =  -11.00 kcal/mol  [=(1)+(2)+(3)-(4)]
DOCKED: USER    Estimated Inhibition Constant, Ki   =    8.62 nM (nanomolar)  [Temperature = 298.15 K]
DOCKED: USER    
DOCKED: USER    (1) Final Intermolecular Energy     =  -12.79 kcal/mol
DOCKED: USER        vdW + Hbond + desolv Energy     =  -12.79 kcal/mol
DOCKED: USER        Electrostatic Energy            =   +0.00 kcal/mol
DOCKED: USER    (2) Final Total Internal Energy     =   -1.69 kcal/mol
DOCKED: USER    (3) Torsional Free Energy           =   +1.79 kcal/mol
DOCKED: USER    (4) Unbound System's Energy  [=(2)] =   -1.69 kcal/mol
DOCKED: USER    
DOCKED: USER    
DOCKED: USER    NEWDPF move ligand.pdbqt
DOCKED: USER    NEWDPF about 0.320000 0.169000 0.303000
DOCKED: USER    NEWDPF tran0 17.321405 -8.652804 2.413189
DOCKED: USER    NEWDPF quaternion0 -0.216327 -0.603822 -0.734384 -0.221996
DOCKED: USER    NEWDPF axisangle0 -0.221863 -0.619274 -0.753177 -154.347388
DOCKED: USER    NEWDPF quat0 -0.221863 -0.619274 -0.753177 -154.347388
DOCKED: USER    NEWDPF dihe0 7.63 13.38 -83.20 -6.22 110.73 -41.01 
DOCKED: USER  keepresnum = 1 
DOCKED: USER  
DOCKED: REMARK  Name = 
DOCKED: REMARK  6 active torsions:
DOCKED: REMARK  status: ('A' for Active; 'I' for Inactive)
DOCKED: REMARK    1  A    between atoms: S_2  and  N_3
DOCKED: REMARK    2  A    between atoms: S_2  and  C_10
DOCKED: REMARK    3  A    between atoms: N_3  and  C_4
DOCKED: REMARK    4  A    between atoms: C_12  and  C_13
DOCKED: REMARK    5  A    between atoms: C_14  and  C_15
DOCKED: REMARK    6  A    between atoms: N_16  and  O_17
DOCKED: REMARK                            x       y       z     vdW  Elec       q    Type
DOCKED: REMARK                         _______ _______ _______ _____ _____    ______ ____
DOCKED: USER                              x       y       z     vdW  Elec       q    Type
DOCKED: USER                           _______ _______ _______ _____ _____    ______ ____
DOCKED: ROOT
DOCKED: ATOM      1  C   UNL     1      17.852 -10.925   2.116 -0.45 -0.00    +0.000 A 
DOCKED: ATOM      2  C   UNL     1      17.269  -9.783   2.679 -0.40 +0.00    +0.000 A 
DOCKED: ATOM      3  C   UNL     1      15.904  -9.506   2.490 -0.34 +0.00    +0.000 A 
DOCKED: ATOM      4  C   UNL     1      15.133 -10.390   1.708 -0.30 +0.00    +0.000 A 
DOCKED: ATOM      5  C   UNL     1      15.715 -11.533   1.153 -0.38 +0.00    +0.000 A 
DOCKED: ATOM      6  C   UNL     1      17.069 -11.804   1.359 -0.41 +0.00    +0.000 A 
DOCKED: ENDROOT
DOCKED: BRANCH   1   8
DOCKED: ATOM      7  O   UNL     1      19.892 -12.676   2.020 -1.57 -0.00    +0.000 OA
DOCKED: ATOM      8  S   UNL     1      19.568 -11.248   2.357 -0.89 -0.00    +0.000 S 
DOCKED: ATOM      9  O   UNL     1      19.908 -10.995   3.798 -0.80 -0.00    +0.000 OA
DOCKED: BRANCH   8  10
DOCKED: ATOM     10  N   UNL     1      20.520 -10.199   1.352 -0.55 -0.00    +0.000 N 
DOCKED: ATOM     11  H   UNL     1      21.163  -9.598   1.792 -0.55 -0.00    +0.000 HD
DOCKED: BRANCH  10  12
DOCKED: ATOM     12  C   UNL     1      20.425 -10.158  -0.083 -0.57 -0.00    +0.000 A 
DOCKED: ATOM     13  C   UNL     1      19.502 -10.951  -0.793 -0.45 -0.00    +0.000 A 
DOCKED: ATOM     14  C   UNL     1      19.433 -10.877  -2.188 -0.39 -0.00    +0.000 A 
DOCKED: ATOM     15  C   UNL     1      20.282 -10.017  -2.887 -0.43 -0.00    +0.000 A 
DOCKED: ATOM     16  C   UNL     1      21.206  -9.232  -2.195 -0.48 -0.00    +0.000 A 
DOCKED: ATOM     17  C   UNL     1      21.278  -9.302  -0.800 -0.56 -0.00    +0.000 A 
DOCKED: ENDBRANCH  10  12
DOCKED: ENDBRANCH   8  10
DOCKED: ENDBRANCH   1   8
DOCKED: BRANCH   3  18
DOCKED: ATOM     18  C   UNL     1      15.343  -8.270   3.090 -0.35 +0.00    +0.000 C 
DOCKED: ATOM     19  C   UNL     1      15.550  -7.901   4.363 -0.28 +0.00    +0.000 C 
DOCKED: BRANCH  19  20
DOCKED: ATOM     20  C   UNL     1      14.988  -6.670   4.956 -0.47 +0.00    +0.000 C 
DOCKED: ATOM     21  N   UNL     1      15.769  -5.482   5.143 -0.47 +0.00    +0.000 N 
DOCKED: ATOM     22  O   UNL     1      13.786  -6.680   5.334 -0.45 +0.00    +0.000 OA
DOCKED: ATOM     23  H   UNL     1      16.736  -5.496   4.959 -0.63 -0.00    +0.000 HD
DOCKED: BRANCH  21  24
DOCKED: ATOM     24  O   UNL     1      15.180  -4.339   5.571 -0.58 +0.00    +0.000 OA
DOCKED: ATOM     25  H   UNL     1      14.260  -4.523   5.818 -0.04 +0.00    +0.000 HD
DOCKED: ENDBRANCH  21  24
DOCKED: ENDBRANCH  19  20
DOCKED: ENDBRANCH   3  18
DOCKED: TORSDOF 6
DOCKED: TER
DOCKED: ENDMDL
________________________________________________________________________________


	BEGINNING GENETIC ALGORITHM DOCKING 12 of 100
Run: 12 Seed: 519105405 887902988 [ Run 12 of 100 GA/GALS ]
Beginning LAMARCKIAN GENETIC ALGORITHM (LGA), with a maximum of 2500000 energy evaluations.

Final-Value: -14.506


	FINAL GENETIC ALGORITHM DOCKED STATE
	_______________________________________________


Detailed state:  trans 22.094 -11.057 -1.946 quatxyzw 0.285189 -0.300099 0.871063 -0.264306 center 0.320 0.169 0.303 ntor 6 31.0309 135.9267 80.7655 95.7515 82.6594 106.8322
State:	 22.094 -11.057  -1.946   0.296 -0.311  0.903 -149.349     31.03  135.93   80.77   95.75   82.66  106.83

DOCKED: MODEL       12
DOCKED: USER    Run = 12
DOCKED: USER    DPF = ligand_dock.biased.dpf
DOCKED: USER  
DOCKED: USER    Estimated Free Energy of Binding    =  -11.05 kcal/mol  [=(1)+(2)+(3)-(4)]
DOCKED: USER    Estimated Inhibition Constant, Ki   =    7.96 nM (nanomolar)  [Temperature = 298.15 K]
DOCKED: USER    
DOCKED: USER    (1) Final Intermolecular Energy     =  -12.84 kcal/mol
DOCKED: USER        vdW + Hbond + desolv Energy     =  -12.84 kcal/mol
DOCKED: USER        Electrostatic Energy            =   +0.00 kcal/mol
DOCKED: USER    (2) Final Total Internal Energy     =   -1.67 kcal/mol
DOCKED: USER    (3) Torsional Free Energy           =   +1.79 kcal/mol
DOCKED: USER    (4) Unbound System's Energy  [=(2)] =   -1.67 kcal/mol
DOCKED: USER    
DOCKED: USER    
DOCKED: USER    NEWDPF move ligand.pdbqt
DOCKED: USER    NEWDPF about 0.320000 0.169000 0.303000
DOCKED: USER    NEWDPF tran0 22.093550 -11.056880 -1.945852
DOCKED: USER    NEWDPF quaternion0 0.285189 -0.300099 0.871063 -0.264306
DOCKED: USER    NEWDPF axisangle0 0.295704 -0.311165 0.903181 -149.348572
DOCKED: USER    NEWDPF quat0 0.295704 -0.311165 0.903181 -149.348572
DOCKED: USER    NEWDPF dihe0 31.03 135.93 80.77 95.75 82.66 106.83 
DOCKED: USER  keepresnum = 1 
DOCKED: USER  
DOCKED: REMARK  Name = 
DOCKED: REMARK  6 active torsions:
DOCKED: REMARK  status: ('A' for Active; 'I' for Inactive)
DOCKED: REMARK    1  A    between atoms: S_2  and  N_3
DOCKED: REMARK    2  A    between atoms: S_2  and  C_10
DOCKED: REMARK    3  A    between atoms: N_3  and  C_4
DOCKED: REMARK    4  A    between atoms: C_12  and  C_13
DOCKED: REMARK    5  A    between atoms: C_14  and  C_15
DOCKED: REMARK    6  A    between atoms: N_16  and  O_17
DOCKED: REMARK                            x       y       z     vdW  Elec       q    Type
DOCKED: REMARK                         _______ _______ _______ _____ _____    ______ ____
DOCKED: USER                              x       y       z     vdW  Elec       q    Type
DOCKED: USER                           _______ _______ _______ _____ _____    ______ ____
DOCKED: ROOT
DOCKED: ATOM      1  C   UNL     1      21.352  -9.985  -3.904 -0.43 -0.00    +0.000 A 
DOCKED: ATOM      2  C   UNL     1      21.308 -10.515  -2.608 -0.49 -0.00    +0.000 A 
DOCKED: ATOM      3  C   UNL     1      21.317  -9.669  -1.485 -0.55 -0.00    +0.000 A 
DOCKED: ATOM      4  C   UNL     1      21.389  -8.275  -1.685 -0.45 -0.00    +0.000 A 
DOCKED: ATOM      5  C   UNL     1      21.425  -7.748  -2.979 -0.37 -0.00    +0.000 A 
DOCKED: ATOM      6  C   UNL     1      21.402  -8.598  -4.086 -0.32 -0.00    +0.000 A 
DOCKED: ENDROOT
DOCKED: BRANCH   1   8
DOCKED: ATOM      7  O   UNL     1      22.362 -12.161  -5.120 -0.69 -0.00    +0.000 OA
DOCKED: ATOM      8  S   UNL     1      21.349 -11.064  -5.297 -0.64 -0.00    +0.000 S 
DOCKED: ATOM      9  O   UNL     1      21.694 -10.270  -6.523 -0.33 -0.00    +0.000 OA
DOCKED: BRANCH   8  10
DOCKED: ATOM     10  N   UNL     1      19.777 -11.775  -5.499 -0.42 -0.00    +0.000 N 
DOCKED: ATOM     11  H   UNL     1      19.728 -12.733  -5.715 -0.50 -0.00    +0.000 HD
DOCKED: BRANCH  10  12
DOCKED: ATOM     12  C   UNL     1      18.543 -11.045  -5.370 -0.33 -0.00    +0.000 A 
DOCKED: ATOM     13  C   UNL     1      17.581 -11.017  -6.398 -0.32 -0.00    +0.000 A 
DOCKED: ATOM     14  C   UNL     1      16.389 -10.303  -6.232 -0.19 -0.00    +0.000 A 
DOCKED: ATOM     15  C   UNL     1      16.148  -9.608  -5.045 -0.16 -0.00    +0.000 A 
DOCKED: ATOM     16  C   UNL     1      17.098  -9.622  -4.023 -0.21 -0.00    +0.000 A 
DOCKED: ATOM     17  C   UNL     1      18.291 -10.335  -4.183 -0.27 -0.00    +0.000 A 
DOCKED: ENDBRANCH  10  12
DOCKED: ENDBRANCH   8  10
DOCKED: ENDBRANCH   1   8
DOCKED: BRANCH   3  18
DOCKED: ATOM     18  C   UNL     1      21.292 -10.284  -0.135 -0.71 -0.00    +0.000 C 
DOCKED: ATOM     19  C   UNL     1      20.190 -10.809   0.422 -0.66 -0.00    +0.000 C 
DOCKED: BRANCH  19  20
DOCKED: ATOM     20  C   UNL     1      20.170 -11.420   1.767 -0.76 -0.00    +0.000 C 
DOCKED: ATOM     21  N   UNL     1      20.467 -10.674   2.955 -0.66 -0.00    +0.000 N 
DOCKED: ATOM     22  O   UNL     1      19.908 -12.649   1.864 -1.61 -0.00    +0.000 OA
DOCKED: ATOM     23  H   UNL     1      20.784  -9.745   2.884 -0.59 -0.00    +0.000 HD
DOCKED: BRANCH  21  24
DOCKED: ATOM     24  O   UNL     1      20.310 -11.243   4.175 -0.78 -0.00    +0.000 OA
DOCKED: ATOM     25  H   UNL     1      20.479 -12.196   4.110 -0.41 -0.00    +0.000 HD
DOCKED: ENDBRANCH  21  24
DOCKED: ENDBRANCH  19  20
DOCKED: ENDBRANCH   3  18
DOCKED: TORSDOF 6
DOCKED: TER
DOCKED: ENDMDL
________________________________________________________________________________


	BEGINNING GENETIC ALGORITHM DOCKING 13 of 100
Run: 13 Seed: 16299814 1387354732 [ Run 13 of 100 GA/GALS ]
Beginning LAMARCKIAN GENETIC ALGORITHM (LGA), with a maximum of 2500000 energy evaluations.

Final-Value: -12.911


	FINAL GENETIC ALGORITHM DOCKED STATE
	_______________________________________________


Detailed state:  trans 18.241 -11.524 -1.446 quatxyzw -0.279197 0.148791 -0.339014 0.885991 center 0.320 0.169 0.303 ntor 6 5.9085 -48.8367 160.6473 3.9673 125.4565 52.5429
State:	 18.241 -11.524  -1.446  -0.602  0.321 -0.731 55.253      5.91  -48.84  160.65    3.97  125.46   52.54

DOCKED: MODEL       13
DOCKED: USER    Run = 13
DOCKED: USER    DPF = ligand_dock.biased.dpf
DOCKED: USER  
DOCKED: USER    Estimated Free Energy of Binding    =   -8.91 kcal/mol  [=(1)+(2)+(3)-(4)]
DOCKED: USER    Estimated Inhibition Constant, Ki   =  294.60 nM (nanomolar)  [Temperature = 298.15 K]
DOCKED: USER    
DOCKED: USER    (1) Final Intermolecular Energy     =  -10.70 kcal/mol
DOCKED: USER        vdW + Hbond + desolv Energy     =  -10.70 kcal/mol
DOCKED: USER        Electrostatic Energy            =   +0.00 kcal/mol
DOCKED: USER    (2) Final Total Internal Energy     =   -2.21 kcal/mol
DOCKED: USER    (3) Torsional Free Energy           =   +1.79 kcal/mol
DOCKED: USER    (4) Unbound System's Energy  [=(2)] =   -2.21 kcal/mol
DOCKED: USER    
DOCKED: USER    
DOCKED: USER    NEWDPF move ligand.pdbqt
DOCKED: USER    NEWDPF about 0.320000 0.169000 0.303000
DOCKED: USER    NEWDPF tran0 18.240586 -11.523988 -1.446495
DOCKED: USER    NEWDPF quaternion0 -0.279197 0.148791 -0.339014 0.885991
DOCKED: USER    NEWDPF axisangle0 -0.602103 0.320876 -0.731102 55.252522
DOCKED: USER    NEWDPF quat0 -0.602103 0.320876 -0.731102 55.252522
DOCKED: USER    NEWDPF dihe0 5.91 -48.84 160.65 3.97 125.46 52.54 
DOCKED: USER  keepresnum = 1 
DOCKED: USER  
DOCKED: REMARK  Name = 
DOCKED: REMARK  6 active torsions:
DOCKED: REMARK  status: ('A' for Active; 'I' for Inactive)
DOCKED: REMARK    1  A    between atoms: S_2  and  N_3
DOCKED: REMARK    2  A    between atoms: S_2  and  C_10
DOCKED: REMARK    3  A    between atoms: N_3  and  C_4
DOCKED: REMARK    4  A    between atoms: C_12  and  C_13
DOCKED: REMARK    5  A    between atoms: C_14  and  C_15
DOCKED: REMARK    6  A    between atoms: N_16  and  O_17
DOCKED: REMARK                            x       y       z     vdW  Elec       q    Type
DOCKED: REMARK                         _______ _______ _______ _____ _____    ______ ____
DOCKED: USER                              x       y       z     vdW  Elec       q    Type
DOCKED: USER                           _______ _______ _______ _____ _____    ______ ____
DOCKED: ROOT
DOCKED: ATOM      1  C   UNL     1      17.758 -10.126  -3.276 -0.24 -0.00    +0.000 A 
DOCKED: ATOM      2  C   UNL     1      18.261 -10.519  -2.029 -0.27 -0.00    +0.000 A 
DOCKED: ATOM      3  C   UNL     1      19.638 -10.730  -1.845 -0.40 -0.00    +0.000 A 
DOCKED: ATOM      4  C   UNL     1      20.506 -10.557  -2.943 -0.45 -0.00    +0.000 A 
DOCKED: ATOM      5  C   UNL     1      20.003 -10.158  -4.184 -0.35 -0.00    +0.000 A 
DOCKED: ATOM      6  C   UNL     1      18.634  -9.938  -4.351 -0.26 -0.00    +0.000 A 
DOCKED: ENDROOT
DOCKED: BRANCH   1   8
DOCKED: ATOM      7  O   UNL     1      15.404 -11.045  -4.200 -0.29 -0.00    +0.000 OA
DOCKED: ATOM      8  S   UNL     1      16.026  -9.877  -3.488 -0.30 -0.00    +0.000 S 
DOCKED: ATOM      9  O   UNL     1      15.814  -8.635  -4.305 -0.16 -0.00    +0.000 OA
DOCKED: BRANCH   8  10
DOCKED: ATOM     10  N   UNL     1      15.258  -9.682  -1.942 -0.23 -0.00    +0.000 N 
DOCKED: ATOM     11  H   UNL     1      14.647  -8.920  -1.823 -0.01 -0.00    +0.000 HD
DOCKED: BRANCH  10  12
DOCKED: ATOM     12  C   UNL     1      15.461 -10.569  -0.827 -0.27 -0.00    +0.000 A 
DOCKED: ATOM     13  C   UNL     1      15.147 -11.941  -0.897 -0.37 +0.00    +0.000 A 
DOCKED: ATOM     14  C   UNL     1      15.366 -12.773   0.205 -0.48 +0.00    +0.000 A 
DOCKED: ATOM     15  C   UNL     1      15.895 -12.248   1.386 -0.34 +0.00    +0.000 A 
DOCKED: ATOM     16  C   UNL     1      16.203 -10.889   1.469 -0.35 +0.00    +0.000 A 
DOCKED: ATOM     17  C   UNL     1      15.986 -10.053   0.369 -0.24 +0.00    +0.000 A 
DOCKED: ENDBRANCH  10  12
DOCKED: ENDBRANCH   8  10
DOCKED: ENDBRANCH   1   8
DOCKED: BRANCH   3  18
DOCKED: ATOM     18  C   UNL     1      20.115 -11.167  -0.509 -0.46 -0.00    +0.000 C 
DOCKED: ATOM     19  C   UNL     1      19.545 -10.787   0.645 -0.61 -0.00    +0.000 C 
DOCKED: BRANCH  19  20
DOCKED: ATOM     20  C   UNL     1      20.024 -11.224   1.973 -0.74 -0.00    +0.000 C 
DOCKED: ATOM     21  N   UNL     1      20.030 -10.354   3.112 -0.63 -0.00    +0.000 N 
DOCKED: ATOM     22  O   UNL     1      20.466 -12.398   2.094 -1.52 -0.00    +0.000 OA
DOCKED: ATOM     23  H   UNL     1      19.795  -9.404   3.006 -0.57 -0.00    +0.000 HD
DOCKED: BRANCH  21  24
DOCKED: ATOM     24  O   UNL     1      20.356 -10.836   4.336 -0.70 -0.00    +0.000 OA
DOCKED: ATOM     25  H   UNL     1      20.648 -11.758   4.253 -0.45 -0.00    +0.000 HD
DOCKED: ENDBRANCH  21  24
DOCKED: ENDBRANCH  19  20
DOCKED: ENDBRANCH   3  18
DOCKED: TORSDOF 6
DOCKED: TER
DOCKED: ENDMDL
________________________________________________________________________________


	BEGINNING GENETIC ALGORITHM DOCKING 14 of 100
Run: 14 Seed: 1283209856 1632548381 [ Run 14 of 100 GA/GALS ]
Beginning LAMARCKIAN GENETIC ALGORITHM (LGA), with a maximum of 2500000 energy evaluations.

Final-Value: -14.058


	FINAL GENETIC ALGORITHM DOCKED STATE
	_______________________________________________


Detailed state:  trans 21.102 -11.458 -2.273 quatxyzw -0.173291 0.365222 -0.852195 0.332184 center 0.320 0.169 0.303 ntor 6 25.0134 71.0669 -101.0314 156.5120 -85.3203 -136.8428
State:	 21.102 -11.458  -2.273  -0.184  0.387 -0.904 141.197     25.01   71.07 -101.03  156.51  -85.32 -136.84

DOCKED: MODEL       14
DOCKED: USER    Run = 14
DOCKED: USER    DPF = ligand_dock.biased.dpf
DOCKED: USER  
DOCKED: USER    Estimated Free Energy of Binding    =  -10.81 kcal/mol  [=(1)+(2)+(3)-(4)]
DOCKED: USER    Estimated Inhibition Constant, Ki   =   12.00 nM (nanomolar)  [Temperature = 298.15 K]
DOCKED: USER    
DOCKED: USER    (1) Final Intermolecular Energy     =  -12.60 kcal/mol
DOCKED: USER        vdW + Hbond + desolv Energy     =  -12.60 kcal/mol
DOCKED: USER        Electrostatic Energy            =   +0.00 kcal/mol
DOCKED: USER    (2) Final Total Internal Energy     =   -1.46 kcal/mol
DOCKED: USER    (3) Torsional Free Energy           =   +1.79 kcal/mol
DOCKED: USER    (4) Unbound System's Energy  [=(2)] =   -1.46 kcal/mol
DOCKED: USER    
DOCKED: USER    
DOCKED: USER    NEWDPF move ligand.pdbqt
DOCKED: USER    NEWDPF about 0.320000 0.169000 0.303000
DOCKED: USER    NEWDPF tran0 21.102490 -11.457673 -2.272925
DOCKED: USER    NEWDPF quaternion0 -0.173291 0.365222 -0.852195 0.332184
DOCKED: USER    NEWDPF axisangle0 -0.183724 0.387210 -0.903501 141.197172
DOCKED: USER    NEWDPF quat0 -0.183724 0.387210 -0.903501 141.197172
DOCKED: USER    NEWDPF dihe0 25.01 71.07 -101.03 156.51 -85.32 -136.84 
DOCKED: USER  keepresnum = 1 
DOCKED: USER  
DOCKED: REMARK  Name = 
DOCKED: REMARK  6 active torsions:
DOCKED: REMARK  status: ('A' for Active; 'I' for Inactive)
DOCKED: REMARK    1  A    between atoms: S_2  and  N_3
DOCKED: REMARK    2  A    between atoms: S_2  and  C_10
DOCKED: REMARK    3  A    between atoms: N_3  and  C_4
DOCKED: REMARK    4  A    between atoms: C_12  and  C_13
DOCKED: REMARK    5  A    between atoms: C_14  and  C_15
DOCKED: REMARK    6  A    between atoms: N_16  and  O_17
DOCKED: REMARK                            x       y       z     vdW  Elec       q    Type
DOCKED: REMARK                         _______ _______ _______ _____ _____    ______ ____
DOCKED: USER                              x       y       z     vdW  Elec       q    Type
DOCKED: USER                           _______ _______ _______ _____ _____    ______ ____
DOCKED: ROOT
DOCKED: ATOM      1  C   UNL     1      20.987 -10.231  -4.277 -0.41 -0.00    +0.000 A 
DOCKED: ATOM      2  C   UNL     1      20.592 -10.744  -3.034 -0.42 -0.00    +0.000 A 
DOCKED: ATOM      3  C   UNL     1      20.593  -9.930  -1.889 -0.50 -0.00    +0.000 A 
DOCKED: ATOM      4  C   UNL     1      21.015  -8.590  -2.007 -0.46 -0.00    +0.000 A 
DOCKED: ATOM      5  C   UNL     1      21.401  -8.078  -3.249 -0.36 -0.00    +0.000 A 
DOCKED: ATOM      6  C   UNL     1      21.383  -8.893  -4.382 -0.32 -0.00    +0.000 A 
DOCKED: ENDROOT
DOCKED: BRANCH   1   8
DOCKED: ATOM      7  O   UNL     1      19.584 -11.645  -6.084 -0.45 -0.00    +0.000 OA
DOCKED: ATOM      8  S   UNL     1      20.988 -11.272  -5.698 -0.57 -0.00    +0.000 S 
DOCKED: ATOM      9  O   UNL     1      21.758 -12.521  -5.381 -0.82 -0.00    +0.000 OA
DOCKED: BRANCH   8  10
DOCKED: ATOM     10  N   UNL     1      21.744 -10.459  -7.034 -0.29 -0.00    +0.000 N 
DOCKED: ATOM     11  H   UNL     1      21.228  -9.764  -7.504 +0.00 -0.00    +0.000 HD
DOCKED: BRANCH  10  12
DOCKED: ATOM     12  C   UNL     1      23.078 -10.740  -7.494 -0.33 -0.00    +0.000 A 
DOCKED: ATOM     13  C   UNL     1      23.458 -12.018  -7.950 -0.44 -0.00    +0.000 A 
DOCKED: ATOM     14  C   UNL     1      24.761 -12.251  -8.398 -0.41 -0.00    +0.000 A 
DOCKED: ATOM     15  C   UNL     1      25.700 -11.216  -8.392 -0.38 -0.00    +0.000 A 
DOCKED: ATOM     16  C   UNL     1      25.338  -9.948  -7.935 -0.30 -0.00    +0.000 A 
DOCKED: ATOM     17  C   UNL     1      24.035  -9.710  -7.487 -0.25 -0.00    +0.000 A 
DOCKED: ENDBRANCH  10  12
DOCKED: ENDBRANCH   8  10
DOCKED: ENDBRANCH   1   8
DOCKED: BRANCH   3  18
DOCKED: ATOM     18  C   UNL     1      20.187 -10.530  -0.594 -0.60 -0.00    +0.000 C 
DOCKED: ATOM     19  C   UNL     1      21.011 -10.660   0.457 -0.69 -0.00    +0.000 C 
DOCKED: BRANCH  19  20
DOCKED: ATOM     20  C   UNL     1      20.602 -11.259   1.744 -0.74 -0.00    +0.000 C 
DOCKED: ATOM     21  N   UNL     1      20.639 -10.528   2.978 -0.63 -0.00    +0.000 N 
DOCKED: ATOM     22  O   UNL     1      20.234 -12.464   1.756 -1.66 -0.00    +0.000 OA
DOCKED: ATOM     23  H   UNL     1      21.031  -9.626   3.002 -0.60 -0.00    +0.000 HD
DOCKED: BRANCH  21  24
DOCKED: ATOM     24  O   UNL     1      20.134 -11.076   4.110 -0.77 -0.00    +0.000 OA
DOCKED: ATOM     25  H   UNL     1      20.155 -12.043   4.038 -0.20 -0.00    +0.000 HD
DOCKED: ENDBRANCH  21  24
DOCKED: ENDBRANCH  19  20
DOCKED: ENDBRANCH   3  18
DOCKED: TORSDOF 6
DOCKED: TER
DOCKED: ENDMDL
________________________________________________________________________________


	BEGINNING GENETIC ALGORITHM DOCKING 15 of 100
Run: 15 Seed: 914093253 998515981 [ Run 15 of 100 GA/GALS ]
Beginning LAMARCKIAN GENETIC ALGORITHM (LGA), with a maximum of 2500000 energy evaluations.

Final-Value: -12.906


	FINAL GENETIC ALGORITHM DOCKED STATE
	_______________________________________________


Detailed state:  trans 20.366 -7.725 -0.666 quatxyzw 0.088989 -0.207195 -0.392927 -0.891493 center 0.320 0.169 0.303 ntor 6 44.2373 7.0614 18.2209 180.0000 -36.9420 -20.2841
State:	 20.366  -7.725  -0.666   0.196 -0.457 -0.867 -53.877     44.24    7.06   18.22  180.00  -36.94  -20.28

DOCKED: MODEL       15
DOCKED: USER    Run = 15
DOCKED: USER    DPF = ligand_dock.biased.dpf
DOCKED: USER  
DOCKED: USER    Estimated Free Energy of Binding    =   -9.99 kcal/mol  [=(1)+(2)+(3)-(4)]
DOCKED: USER    Estimated Inhibition Constant, Ki   =   47.75 nM (nanomolar)  [Temperature = 298.15 K]
DOCKED: USER    
DOCKED: USER    (1) Final Intermolecular Energy     =  -11.78 kcal/mol
DOCKED: USER        vdW + Hbond + desolv Energy     =  -11.78 kcal/mol
DOCKED: USER        Electrostatic Energy            =   +0.00 kcal/mol
DOCKED: USER    (2) Final Total Internal Energy     =   -1.13 kcal/mol
DOCKED: USER    (3) Torsional Free Energy           =   +1.79 kcal/mol
DOCKED: USER    (4) Unbound System's Energy  [=(2)] =   -1.13 kcal/mol
DOCKED: USER    
DOCKED: USER    
DOCKED: USER    NEWDPF move ligand.pdbqt
DOCKED: USER    NEWDPF about 0.320000 0.169000 0.303000
DOCKED: USER    NEWDPF tran0 20.366306 -7.725293 -0.665591
DOCKED: USER    NEWDPF quaternion0 0.088989 -0.207195 -0.392927 -0.891493
DOCKED: USER    NEWDPF axisangle0 0.196429 -0.457350 -0.867322 -53.877124
DOCKED: USER    NEWDPF quat0 0.196429 -0.457350 -0.867322 -53.877124
DOCKED: USER    NEWDPF dihe0 44.24 7.06 18.22 180.00 -36.94 -20.28 
DOCKED: USER  keepresnum = 1 
DOCKED: USER  
DOCKED: REMARK  Name = 
DOCKED: REMARK  6 active torsions:
DOCKED: REMARK  status: ('A' for Active; 'I' for Inactive)
DOCKED: REMARK    1  A    between atoms: S_2  and  N_3
DOCKED: REMARK    2  A    between atoms: S_2  and  C_10
DOCKED: REMARK    3  A    between atoms: N_3  and  C_4
DOCKED: REMARK    4  A    between atoms: C_12  and  C_13
DOCKED: REMARK    5  A    between atoms: C_14  and  C_15
DOCKED: REMARK    6  A    between atoms: N_16  and  O_17
DOCKED: REMARK                            x       y       z     vdW  Elec       q    Type
DOCKED: REMARK                         _______ _______ _______ _____ _____    ______ ____
DOCKED: USER                              x       y       z     vdW  Elec       q    Type
DOCKED: USER                           _______ _______ _______ _____ _____    ______ ____
DOCKED: ROOT
DOCKED: ATOM      1  C   UNL     1      21.394  -7.082  -2.682 -0.40 -0.00    +0.000 A 
DOCKED: ATOM      2  C   UNL     1      21.247  -7.677  -1.422 -0.20 -0.00    +0.000 A 
DOCKED: ATOM      3  C   UNL     1      21.098  -9.069  -1.298 -0.53 -0.00    +0.000 A 
DOCKED: ATOM      4  C   UNL     1      21.082  -9.858  -2.466 -0.50 -0.00    +0.000 A 
DOCKED: ATOM      5  C   UNL     1      21.236  -9.264  -3.722 -0.39 -0.00    +0.000 A 
DOCKED: ATOM      6  C   UNL     1      21.397  -7.881  -3.831 -0.32 -0.00    +0.000 A 
DOCKED: ENDROOT
DOCKED: BRANCH   1   8
DOCKED: ATOM      7  O   UNL     1      21.598  -4.912  -4.257 -0.16 -0.00    +0.000 OA
DOCKED: ATOM      8  S   UNL     1      21.569  -5.334  -2.815 -0.44 -0.00    +0.000 S 
DOCKED: ATOM      9  O   UNL     1      22.856  -4.927  -2.158 -0.53 +0.00    +0.000 OA
DOCKED: BRANCH   8  10
DOCKED: ATOM     10  N   UNL     1      20.245  -4.539  -2.020 -0.33 -0.00    +0.000 N 
DOCKED: ATOM     11  H   UNL     1      19.330  -4.801  -2.272 -0.01 -0.00    +0.000 HD
DOCKED: BRANCH  10  12
DOCKED: ATOM     12  C   UNL     1      20.406  -3.520  -1.016 -0.36 -0.00    +0.000 A 
DOCKED: ATOM     13  C   UNL     1      21.673  -3.144  -0.531 -0.31 +0.00    +0.000 A 
DOCKED: ATOM     14  C   UNL     1      21.791  -2.143   0.439 -0.32 -0.00    +0.000 A 
DOCKED: ATOM     15  C   UNL     1      20.649  -1.512   0.937 -0.33 -0.00    +0.000 A 
DOCKED: ATOM     16  C   UNL     1      19.387  -1.882   0.468 -0.27 -0.00    +0.000 A 
DOCKED: ATOM     17  C   UNL     1      19.264  -2.882  -0.502 -0.17 -0.00    +0.000 A 
DOCKED: ENDBRANCH  10  12
DOCKED: ENDBRANCH   8  10
DOCKED: ENDBRANCH   1   8
DOCKED: BRANCH   3  18
DOCKED: ATOM     18  C   UNL     1      20.924  -9.644   0.059 -0.62 -0.00    +0.000 C 
DOCKED: ATOM     19  C   UNL     1      20.473 -10.887   0.288 -0.68 -0.00    +0.000 C 
DOCKED: BRANCH  19  20
DOCKED: ATOM     20  C   UNL     1      20.302 -11.456   1.641 -0.77 -0.00    +0.000 C 
DOCKED: ATOM     21  N   UNL     1      20.607 -10.715   2.830 -0.65 -0.00    +0.000 N 
DOCKED: ATOM     22  O   UNL     1      19.898 -12.645   1.745 -1.63 -0.00    +0.000 OA
DOCKED: ATOM     23  H   UNL     1      21.031  -9.829   2.761 -0.58 -0.00    +0.000 HD
DOCKED: BRANCH  21  24
DOCKED: ATOM     24  O   UNL     1      20.313 -11.230   4.048 -0.80 -0.00    +0.000 OA
DOCKED: ATOM     25  H   UNL     1      20.574 -12.163   4.076 -0.48 -0.00    +0.000 HD
DOCKED: ENDBRANCH  21  24
DOCKED: ENDBRANCH  19  20
DOCKED: ENDBRANCH   3  18
DOCKED: TORSDOF 6
DOCKED: TER
DOCKED: ENDMDL
________________________________________________________________________________


	BEGINNING GENETIC ALGORITHM DOCKING 16 of 100
Run: 16 Seed: 518504073 1000996464 [ Run 16 of 100 GA/GALS ]
Beginning LAMARCKIAN GENETIC ALGORITHM (LGA), with a maximum of 2500000 energy evaluations.

Final-Value: -14.325


	FINAL GENETIC ALGORITHM DOCKED STATE
	_______________________________________________


Detailed state:  trans 22.111 -11.196 -2.227 quatxyzw -0.286662 0.322419 -0.868888 0.242701 center 0.320 0.169 0.303 ntor 6 50.9345 -107.1983 114.2525 -171.1136 47.9368 -113.3943
State:	 22.111 -11.196  -2.227  -0.295  0.332 -0.896 151.908     50.93 -107.20  114.25 -171.11   47.94 -113.39

DOCKED: MODEL       16
DOCKED: USER    Run = 16
DOCKED: USER    DPF = ligand_dock.biased.dpf
DOCKED: USER  
DOCKED: USER    Estimated Free Energy of Binding    =  -11.34 kcal/mol  [=(1)+(2)+(3)-(4)]
DOCKED: USER    Estimated Inhibition Constant, Ki   =    4.84 nM (nanomolar)  [Temperature = 298.15 K]
DOCKED: USER    
DOCKED: USER    (1) Final Intermolecular Energy     =  -13.13 kcal/mol
DOCKED: USER        vdW + Hbond + desolv Energy     =  -13.13 kcal/mol
DOCKED: USER        Electrostatic Energy            =   +0.00 kcal/mol
DOCKED: USER    (2) Final Total Internal Energy     =   -1.19 kcal/mol
DOCKED: USER    (3) Torsional Free Energy           =   +1.79 kcal/mol
DOCKED: USER    (4) Unbound System's Energy  [=(2)] =   -1.19 kcal/mol
DOCKED: USER    
DOCKED: USER    
DOCKED: USER    NEWDPF move ligand.pdbqt
DOCKED: USER    NEWDPF about 0.320000 0.169000 0.303000
DOCKED: USER    NEWDPF tran0 22.110547 -11.195924 -2.226852
DOCKED: USER    NEWDPF quaternion0 -0.286662 0.322419 -0.868888 0.242701
DOCKED: USER    NEWDPF axisangle0 -0.295497 0.332356 -0.895668 151.908024
DOCKED: USER    NEWDPF quat0 -0.295497 0.332356 -0.895668 151.908024
DOCKED: USER    NEWDPF dihe0 50.93 -107.20 114.25 -171.11 47.94 -113.39 
DOCKED: USER  keepresnum = 1 
DOCKED: USER  
DOCKED: REMARK  Name = 
DOCKED: REMARK  6 active torsions:
DOCKED: REMARK  status: ('A' for Active; 'I' for Inactive)
DOCKED: REMARK    1  A    between atoms: S_2  and  N_3
DOCKED: REMARK    2  A    between atoms: S_2  and  C_10
DOCKED: REMARK    3  A    between atoms: N_3  and  C_4
DOCKED: REMARK    4  A    between atoms: C_12  and  C_13
DOCKED: REMARK    5  A    between atoms: C_14  and  C_15
DOCKED: REMARK    6  A    between atoms: N_16  and  O_17
DOCKED: REMARK                            x       y       z     vdW  Elec       q    Type
DOCKED: REMARK                         _______ _______ _______ _____ _____    ______ ____
DOCKED: USER                              x       y       z     vdW  Elec       q    Type
DOCKED: USER                           _______ _______ _______ _____ _____    ______ ____
DOCKED: ROOT
DOCKED: ATOM      1  C   UNL     1      21.382 -10.039  -4.141 -0.42 -0.00    +0.000 A 
DOCKED: ATOM      2  C   UNL     1      21.325 -10.638  -2.876 -0.43 -0.00    +0.000 A 
DOCKED: ATOM      3  C   UNL     1      21.290  -9.854  -1.710 -0.54 -0.00    +0.000 A 
DOCKED: ATOM      4  C   UNL     1      21.331  -8.450  -1.835 -0.45 -0.00    +0.000 A 
DOCKED: ATOM      5  C   UNL     1      21.380  -7.853  -3.098 -0.37 -0.00    +0.000 A 
DOCKED: ATOM      6  C   UNL     1      21.400  -8.643  -4.248 -0.32 -0.00    +0.000 A 
DOCKED: ENDROOT
DOCKED: BRANCH   1   8
DOCKED: ATOM      7  O   UNL     1      20.047 -11.303  -6.104 -0.42 -0.00    +0.000 OA
DOCKED: ATOM      8  S   UNL     1      21.435 -11.042  -5.589 -0.61 -0.00    +0.000 S 
DOCKED: ATOM      9  O   UNL     1      22.085 -12.351  -5.245 -0.75 -0.00    +0.000 OA
DOCKED: BRANCH   8  10
DOCKED: ATOM     10  N   UNL     1      22.359 -10.253  -6.829 -0.31 -0.00    +0.000 N 
DOCKED: ATOM     11  H   UNL     1      22.204  -9.293  -6.981 +0.00 -0.00    +0.000 HD
DOCKED: BRANCH  10  12
DOCKED: ATOM     12  C   UNL     1      23.337 -10.919  -7.648 -0.35 -0.00    +0.000 A 
DOCKED: ATOM     13  C   UNL     1      24.695 -10.544  -7.644 -0.32 -0.00    +0.000 A 
DOCKED: ATOM     14  C   UNL     1      25.618 -11.221  -8.447 -0.37 -0.00    +0.000 A 
DOCKED: ATOM     15  C   UNL     1      25.198 -12.273  -9.264 -0.36 -0.00    +0.000 A 
DOCKED: ATOM     16  C   UNL     1      23.853 -12.648  -9.282 -0.37 -0.00    +0.000 A 
DOCKED: ATOM     17  C   UNL     1      22.927 -11.974  -8.480 -0.35 -0.00    +0.000 A 
DOCKED: ENDBRANCH  10  12
DOCKED: ENDBRANCH   8  10
DOCKED: ENDBRANCH   1   8
DOCKED: BRANCH   3  18
DOCKED: ATOM     18  C   UNL     1      21.253 -10.540  -0.395 -0.70 -0.00    +0.000 C 
DOCKED: ATOM     19  C   UNL     1      20.186 -10.531   0.418 -0.65 -0.00    +0.000 C 
DOCKED: BRANCH  19  20
DOCKED: ATOM     20  C   UNL     1      20.154 -11.217   1.727 -0.74 -0.00    +0.000 C 
DOCKED: ATOM     21  N   UNL     1      20.433 -10.536   2.958 -0.65 -0.00    +0.000 N 
DOCKED: ATOM     22  O   UNL     1      19.898 -12.451   1.751 -1.73 -0.00    +0.000 OA
DOCKED: ATOM     23  H   UNL     1      20.745  -9.603   2.943 -0.58 -0.00    +0.000 HD
DOCKED: BRANCH  21  24
DOCKED: ATOM     24  O   UNL     1      20.266 -11.174   4.142 -0.80 -0.00    +0.000 OA
DOCKED: ATOM     25  H   UNL     1      20.727 -12.026   4.117 -0.52 -0.00    +0.000 HD
DOCKED: ENDBRANCH  21  24
DOCKED: ENDBRANCH  19  20
DOCKED: ENDBRANCH   3  18
DOCKED: TORSDOF 6
DOCKED: TER
DOCKED: ENDMDL
________________________________________________________________________________


	BEGINNING GENETIC ALGORITHM DOCKING 17 of 100
Run: 17 Seed: 359054031 850942138 [ Run 17 of 100 GA/GALS ]
Beginning LAMARCKIAN GENETIC ALGORITHM (LGA), with a maximum of 2500000 energy evaluations.

Final-Value: -12.487


	FINAL GENETIC ALGORITHM DOCKED STATE
	_______________________________________________


Detailed state:  trans 18.739 -10.181 -1.273 quatxyzw 0.905669 -0.266712 -0.144749 0.296103 center 0.320 0.169 0.303 ntor 6 6.0588 -70.7406 -163.9011 128.2571 101.1359 -8.4081
State:	 18.739 -10.181  -1.273   0.948 -0.279 -0.152 145.553      6.06  -70.74 -163.90  128.26  101.14   -8.41

DOCKED: MODEL       17
DOCKED: USER    Run = 17
DOCKED: USER    DPF = ligand_dock.biased.dpf
DOCKED: USER  
DOCKED: USER    Estimated Free Energy of Binding    =   -8.84 kcal/mol  [=(1)+(2)+(3)-(4)]
DOCKED: USER    Estimated Inhibition Constant, Ki   =  330.47 nM (nanomolar)  [Temperature = 298.15 K]
DOCKED: USER    
DOCKED: USER    (1) Final Intermolecular Energy     =  -10.63 kcal/mol
DOCKED: USER        vdW + Hbond + desolv Energy     =  -10.63 kcal/mol
DOCKED: USER        Electrostatic Energy            =   +0.00 kcal/mol
DOCKED: USER    (2) Final Total Internal Energy     =   -1.86 kcal/mol
DOCKED: USER    (3) Torsional Free Energy           =   +1.79 kcal/mol
DOCKED: USER    (4) Unbound System's Energy  [=(2)] =   -1.86 kcal/mol
DOCKED: USER    
DOCKED: USER    
DOCKED: USER    NEWDPF move ligand.pdbqt
DOCKED: USER    NEWDPF about 0.320000 0.169000 0.303000
DOCKED: USER    NEWDPF tran0 18.738837 -10.180944 -1.273191
DOCKED: USER    NEWDPF quaternion0 0.905669 -0.266712 -0.144749 0.296103
DOCKED: USER    NEWDPF axisangle0 0.948189 -0.279234 -0.151545 145.552623
DOCKED: USER    NEWDPF quat0 0.948189 -0.279234 -0.151545 145.552623
DOCKED: USER    NEWDPF dihe0 6.06 -70.74 -163.90 128.26 101.14 -8.41 
DOCKED: USER  keepresnum = 1 
DOCKED: USER  
DOCKED: REMARK  Name = 
DOCKED: REMARK  6 active torsions:
DOCKED: REMARK  status: ('A' for Active; 'I' for Inactive)
DOCKED: REMARK    1  A    between atoms: S_2  and  N_3
DOCKED: REMARK    2  A    between atoms: S_2  and  C_10
DOCKED: REMARK    3  A    between atoms: N_3  and  C_4
DOCKED: REMARK    4  A    between atoms: C_12  and  C_13
DOCKED: REMARK    5  A    between atoms: C_14  and  C_15
DOCKED: REMARK    6  A    between atoms: N_16  and  O_17
DOCKED: REMARK                            x       y       z     vdW  Elec       q    Type
DOCKED: REMARK                         _______ _______ _______ _____ _____    ______ ____
DOCKED: USER                              x       y       z     vdW  Elec       q    Type
DOCKED: USER                           _______ _______ _______ _____ _____    ______ ____
DOCKED: ROOT
DOCKED: ATOM      1  C   UNL     1      18.336 -11.706   0.473 -0.48 -0.00    +0.000 A 
DOCKED: ATOM      2  C   UNL     1      18.858 -11.198  -0.724 -0.43 -0.00    +0.000 A 
DOCKED: ATOM      3  C   UNL     1      20.203 -10.798  -0.809 -0.49 -0.00    +0.000 A 
DOCKED: ATOM      4  C   UNL     1      21.016 -10.901   0.339 -0.62 -0.00    +0.000 A 
DOCKED: ATOM      5  C   UNL     1      20.496 -11.415   1.529 -0.67 -0.00    +0.000 A 
DOCKED: ATOM      6  C   UNL     1      19.162 -11.821   1.597 -0.59 -0.00    +0.000 A 
DOCKED: ENDROOT
DOCKED: BRANCH   1   8
DOCKED: ATOM      7  O   UNL     1      16.201 -12.318   1.989 -0.65 +0.00    +0.000 OA
DOCKED: ATOM      8  S   UNL     1      16.645 -12.191   0.559 -0.63 +0.00    +0.000 S 
DOCKED: ATOM      9  O   UNL     1      16.489 -13.520  -0.123 -1.21 +0.00    +0.000 OA
DOCKED: BRANCH   8  10
DOCKED: ATOM     10  N   UNL     1      15.645 -11.018  -0.242 -0.29 +0.00    +0.000 N 
DOCKED: ATOM     11  H   UNL     1      15.115 -10.405   0.317 +0.00 +0.00    +0.000 HD
DOCKED: BRANCH  10  12
DOCKED: ATOM     12  C   UNL     1      15.545 -10.890  -1.672 -0.27 -0.00    +0.000 A 
DOCKED: ATOM     13  C   UNL     1      16.498 -10.178  -2.426 -0.22 -0.00    +0.000 A 
DOCKED: ATOM     14  C   UNL     1      16.372 -10.083  -3.816 -0.22 -0.00    +0.000 A 
DOCKED: ATOM     15  C   UNL     1      15.296 -10.691  -4.465 -0.23 -0.00    +0.000 A 
DOCKED: ATOM     16  C   UNL     1      14.341 -11.392  -3.727 -0.24 -0.00    +0.000 A 
DOCKED: ATOM     17  C   UNL     1      14.463 -11.491  -2.337 -0.30 -0.00    +0.000 A 
DOCKED: ENDBRANCH  10  12
DOCKED: ENDBRANCH   8  10
DOCKED: ENDBRANCH   1   8
DOCKED: BRANCH   3  18
DOCKED: ATOM     18  C   UNL     1      20.699 -10.247  -2.094 -0.56 -0.00    +0.000 C 
DOCKED: ATOM     19  C   UNL     1      20.647 -10.912  -3.258 -0.46 -0.00    +0.000 C 
DOCKED: BRANCH  19  20
DOCKED: ATOM     20  C   UNL     1      21.142 -10.358  -4.536 -0.47 -0.00    +0.000 C 
DOCKED: ATOM     21  N   UNL     1      21.117 -11.107  -5.758 -0.43 -0.00    +0.000 N 
DOCKED: ATOM     22  O   UNL     1      21.627  -9.195  -4.537 -0.39 -0.00    +0.000 OA
DOCKED: ATOM     23  H   UNL     1      20.848 -12.054  -5.749 -0.46 -0.00    +0.000 HD
DOCKED: BRANCH  21  24
DOCKED: ATOM     24  O   UNL     1      21.462 -10.514  -6.927 -0.32 -0.00    +0.000 OA
DOCKED: ATOM     25  H   UNL     1      21.788  -9.618  -6.751 +0.00 -0.00    +0.000 HD
DOCKED: ENDBRANCH  21  24
DOCKED: ENDBRANCH  19  20
DOCKED: ENDBRANCH   3  18
DOCKED: TORSDOF 6
DOCKED: TER
DOCKED: ENDMDL
________________________________________________________________________________


	BEGINNING GENETIC ALGORITHM DOCKING 18 of 100
Run: 18 Seed: 2048976766 1082084129 [ Run 18 of 100 GA/GALS ]
Beginning LAMARCKIAN GENETIC ALGORITHM (LGA), with a maximum of 2500000 energy evaluations.

Final-Value: -12.671


	FINAL GENETIC ALGORITHM DOCKED STATE
	_______________________________________________


Detailed state:  trans 20.182 -10.949 -2.481 quatxyzw 0.350735 -0.441649 0.643483 -0.517553 center 0.320 0.169 0.303 ntor 6 27.6417 106.6376 -142.2771 -0.1817 4.5734 -27.9514
State:	 20.182 -10.949  -2.481   0.410 -0.516  0.752 -117.664     27.64  106.64 -142.28   -0.18    4.57  -27.95

DOCKED: MODEL       18
DOCKED: USER    Run = 18
DOCKED: USER    DPF = ligand_dock.biased.dpf
DOCKED: USER  
DOCKED: USER    Estimated Free Energy of Binding    =   -9.24 kcal/mol  [=(1)+(2)+(3)-(4)]
DOCKED: USER    Estimated Inhibition Constant, Ki   =  169.20 nM (nanomolar)  [Temperature = 298.15 K]
DOCKED: USER    
DOCKED: USER    (1) Final Intermolecular Energy     =  -11.03 kcal/mol
DOCKED: USER        vdW + Hbond + desolv Energy     =  -11.03 kcal/mol
DOCKED: USER        Electrostatic Energy            =   +0.00 kcal/mol
DOCKED: USER    (2) Final Total Internal Energy     =   -1.64 kcal/mol
DOCKED: USER    (3) Torsional Free Energy           =   +1.79 kcal/mol
DOCKED: USER    (4) Unbound System's Energy  [=(2)] =   -1.64 kcal/mol
DOCKED: USER    
DOCKED: USER    
DOCKED: USER    NEWDPF move ligand.pdbqt
DOCKED: USER    NEWDPF about 0.320000 0.169000 0.303000
DOCKED: USER    NEWDPF tran0 20.181746 -10.949491 -2.480942
DOCKED: USER    NEWDPF quaternion0 0.350735 -0.441649 0.643483 -0.517553
DOCKED: USER    NEWDPF axisangle0 0.409904 -0.516155 0.752039 -117.663503
DOCKED: USER    NEWDPF quat0 0.409904 -0.516155 0.752039 -117.663503
DOCKED: USER    NEWDPF dihe0 27.64 106.64 -142.28 -0.18 4.57 -27.95 
DOCKED: USER  keepresnum = 1 
DOCKED: USER  
DOCKED: REMARK  Name = 
DOCKED: REMARK  6 active torsions:
DOCKED: REMARK  status: ('A' for Active; 'I' for Inactive)
DOCKED: REMARK    1  A    between atoms: S_2  and  N_3
DOCKED: REMARK    2  A    between atoms: S_2  and  C_10
DOCKED: REMARK    3  A    between atoms: N_3  and  C_4
DOCKED: REMARK    4  A    between atoms: C_12  and  C_13
DOCKED: REMARK    5  A    between atoms: C_14  and  C_15
DOCKED: REMARK    6  A    between atoms: N_16  and  O_17
DOCKED: REMARK                            x       y       z     vdW  Elec       q    Type
DOCKED: REMARK                         _______ _______ _______ _____ _____    ______ ____
DOCKED: USER                              x       y       z     vdW  Elec       q    Type
DOCKED: USER                           _______ _______ _______ _____ _____    ______ ____
DOCKED: ROOT
DOCKED: ATOM      1  C   UNL     1      19.838  -9.042  -3.814 -0.27 -0.00    +0.000 A 
DOCKED: ATOM      2  C   UNL     1      19.764  -9.888  -2.699 -0.36 -0.00    +0.000 A 
DOCKED: ATOM      3  C   UNL     1      20.525  -9.626  -1.547 -0.48 -0.00    +0.000 A 
DOCKED: ATOM      4  C   UNL     1      21.380  -8.504  -1.537 -0.45 -0.00    +0.000 A 
DOCKED: ATOM      5  C   UNL     1      21.446  -7.657  -2.647 -0.38 -0.00    +0.000 A 
DOCKED: ATOM      6  C   UNL     1      20.675  -7.920  -3.780 -0.30 -0.00    +0.000 A 
DOCKED: ENDROOT
DOCKED: BRANCH   1   8
DOCKED: ATOM      7  O   UNL     1      19.062  -8.319  -6.286 -0.11 -0.00    +0.000 OA
DOCKED: ATOM      8  S   UNL     1      18.882  -9.394  -5.251 -0.27 -0.00    +0.000 S 
DOCKED: ATOM      9  O   UNL     1      17.433  -9.463  -4.863 -0.20 -0.00    +0.000 OA
DOCKED: BRANCH   8  10
DOCKED: ATOM     10  N   UNL     1      19.364 -10.918  -5.930 -0.35 -0.00    +0.000 N 
DOCKED: ATOM     11  H   UNL     1      18.666 -11.592  -6.095 -0.05 -0.00    +0.000 HD
DOCKED: BRANCH  10  12
DOCKED: ATOM     12  C   UNL     1      20.723 -11.254  -6.266 -0.14 -0.00    +0.000 A 
DOCKED: ATOM     13  C   UNL     1      21.558 -11.964  -5.382 -0.40 -0.00    +0.000 A 
DOCKED: ATOM     14  C   UNL     1      22.870 -12.279  -5.747 -0.34 -0.00    +0.000 A 
DOCKED: ATOM     15  C   UNL     1      23.364 -11.887  -6.993 -0.46 -0.00    +0.000 A 
DOCKED: ATOM     16  C   UNL     1      22.548 -11.176  -7.875 -0.33 -0.00    +0.000 A 
DOCKED: ATOM     17  C   UNL     1      21.235 -10.860  -7.515 -0.22 -0.00    +0.000 A 
DOCKED: ENDBRANCH  10  12
DOCKED: ENDBRANCH   8  10
DOCKED: ENDBRANCH   1   8
DOCKED: BRANCH   3  18
DOCKED: ATOM     18  C   UNL     1      20.426 -10.567  -0.404 -0.64 -0.00    +0.000 C 
DOCKED: ATOM     19  C   UNL     1      20.668 -10.219   0.869 -0.62 -0.00    +0.000 C 
DOCKED: BRANCH  19  20
DOCKED: ATOM     20  C   UNL     1      20.568 -11.160   2.004 -0.72 -0.00    +0.000 C 
DOCKED: ATOM     21  N   UNL     1      20.425 -10.716   3.360 -0.69 -0.00    +0.000 N 
DOCKED: ATOM     22  O   UNL     1      20.639 -12.396   1.766 -1.49 -0.00    +0.000 OA
DOCKED: ATOM     23  H   UNL     1      20.484  -9.756   3.571 -0.52 -0.00    +0.000 HD
DOCKED: BRANCH  21  24
DOCKED: ATOM     24  O   UNL     1      20.209 -11.614   4.351 -0.76 -0.00    +0.000 OA
DOCKED: ATOM     25  H   UNL     1      20.593 -12.468   4.103 -0.48 -0.00    +0.000 HD
DOCKED: ENDBRANCH  21  24
DOCKED: ENDBRANCH  19  20
DOCKED: ENDBRANCH   3  18
DOCKED: TORSDOF 6
DOCKED: TER
DOCKED: ENDMDL
________________________________________________________________________________


	BEGINNING GENETIC ALGORITHM DOCKING 19 of 100
Run: 19 Seed: 1267540053 1291883413 [ Run 19 of 100 GA/GALS ]
Beginning LAMARCKIAN GENETIC ALGORITHM (LGA), with a maximum of 2500000 energy evaluations.

Final-Value: -14.174


	FINAL GENETIC ALGORITHM DOCKED STATE
	_______________________________________________


Detailed state:  trans 20.881 -10.915 -1.886 quatxyzw -0.218280 0.321870 -0.801254 0.454693 center 0.320 0.169 0.303 ntor 6 54.2260 31.4633 -6.3297 -23.6522 -170.7329 -57.2601
State:	 20.881 -10.915  -1.886  -0.245  0.361 -0.900 125.910     54.23   31.46   -6.33  -23.65 -170.73  -57.26

DOCKED: MODEL       19
DOCKED: USER    Run = 19
DOCKED: USER    DPF = ligand_dock.biased.dpf
DOCKED: USER  
DOCKED: USER    Estimated Free Energy of Binding    =  -11.04 kcal/mol  [=(1)+(2)+(3)-(4)]
DOCKED: USER    Estimated Inhibition Constant, Ki   =    8.03 nM (nanomolar)  [Temperature = 298.15 K]
DOCKED: USER    
DOCKED: USER    (1) Final Intermolecular Energy     =  -12.83 kcal/mol
DOCKED: USER        vdW + Hbond + desolv Energy     =  -12.83 kcal/mol
DOCKED: USER        Electrostatic Energy            =   +0.00 kcal/mol
DOCKED: USER    (2) Final Total Internal Energy     =   -1.34 kcal/mol
DOCKED: USER    (3) Torsional Free Energy           =   +1.79 kcal/mol
DOCKED: USER    (4) Unbound System's Energy  [=(2)] =   -1.34 kcal/mol
DOCKED: USER    
DOCKED: USER    
DOCKED: USER    NEWDPF move ligand.pdbqt
DOCKED: USER    NEWDPF about 0.320000 0.169000 0.303000
DOCKED: USER    NEWDPF tran0 20.880729 -10.915410 -1.886313
DOCKED: USER    NEWDPF quaternion0 -0.218280 0.321870 -0.801254 0.454693
DOCKED: USER    NEWDPF axisangle0 -0.245080 0.361389 -0.899630 125.909684
DOCKED: USER    NEWDPF quat0 -0.245080 0.361389 -0.899630 125.909684
DOCKED: USER    NEWDPF dihe0 54.23 31.46 -6.33 -23.65 -170.73 -57.26 
DOCKED: USER  keepresnum = 1 
DOCKED: USER  
DOCKED: REMARK  Name = 
DOCKED: REMARK  6 active torsions:
DOCKED: REMARK  status: ('A' for Active; 'I' for Inactive)
DOCKED: REMARK    1  A    between atoms: S_2  and  N_3
DOCKED: REMARK    2  A    between atoms: S_2  and  C_10
DOCKED: REMARK    3  A    between atoms: N_3  and  C_4
DOCKED: REMARK    4  A    between atoms: C_12  and  C_13
DOCKED: REMARK    5  A    between atoms: C_14  and  C_15
DOCKED: REMARK    6  A    between atoms: N_16  and  O_17
DOCKED: REMARK                            x       y       z     vdW  Elec       q    Type
DOCKED: REMARK                         _______ _______ _______ _____ _____    ______ ____
DOCKED: USER                              x       y       z     vdW  Elec       q    Type
DOCKED: USER                           _______ _______ _______ _____ _____    ______ ____
DOCKED: ROOT
DOCKED: ATOM      1  C   UNL     1      20.569  -9.747  -3.904 -0.37 -0.00    +0.000 A 
DOCKED: ATOM      2  C   UNL     1      20.362 -10.136  -2.574 -0.45 -0.00    +0.000 A 
DOCKED: ATOM      3  C   UNL     1      20.761  -9.307  -1.512 -0.49 -0.00    +0.000 A 
DOCKED: ATOM      4  C   UNL     1      21.391  -8.081  -1.808 -0.44 -0.00    +0.000 A 
DOCKED: ATOM      5  C   UNL     1      21.590  -7.690  -3.135 -0.31 -0.00    +0.000 A 
DOCKED: ATOM      6  C   UNL     1      21.177  -8.517  -4.181 -0.31 -0.00    +0.000 A 
DOCKED: ENDROOT
DOCKED: BRANCH   1   8
DOCKED: ATOM      7  O   UNL     1      19.639 -10.003  -6.415 -0.24 -0.00    +0.000 OA
DOCKED: ATOM      8  S   UNL     1      20.069 -10.807  -5.220 -0.53 -0.00    +0.000 S 
DOCKED: ATOM      9  O   UNL     1      18.915 -11.645  -4.752 -0.45 -0.00    +0.000 OA
DOCKED: BRANCH   8  10
DOCKED: ATOM     10  N   UNL     1      21.381 -11.847  -5.681 -0.40 -0.00    +0.000 N 
DOCKED: ATOM     11  H   UNL     1      21.355 -12.784  -5.380 -0.55 -0.00    +0.000 HD
DOCKED: BRANCH  10  12
DOCKED: ATOM     12  C   UNL     1      22.503 -11.421  -6.474 -0.44 -0.00    +0.000 A 
DOCKED: ATOM     13  C   UNL     1      22.856 -10.063  -6.601 -0.26 -0.00    +0.000 A 
DOCKED: ATOM     14  C   UNL     1      23.959  -9.687  -7.374 -0.25 -0.00    +0.000 A 
DOCKED: ATOM     15  C   UNL     1      24.717 -10.658  -8.031 -0.33 -0.00    +0.000 A 
DOCKED: ATOM     16  C   UNL     1      24.373 -12.007  -7.919 -0.43 -0.00    +0.000 A 
DOCKED: ATOM     17  C   UNL     1      23.272 -12.387  -7.146 -0.42 -0.00    +0.000 A 
DOCKED: ENDBRANCH  10  12
DOCKED: ENDBRANCH   8  10
DOCKED: ENDBRANCH   1   8
DOCKED: BRANCH   3  18
DOCKED: ATOM     18  C   UNL     1      20.538  -9.778  -0.123 -0.61 -0.00    +0.000 C 
DOCKED: ATOM     19  C   UNL     1      20.545 -11.072   0.233 -0.65 -0.00    +0.000 C 
DOCKED: BRANCH  19  20
DOCKED: ATOM     20  C   UNL     1      20.322 -11.536   1.618 -0.77 -0.00    +0.000 C 
DOCKED: ATOM     21  N   UNL     1      20.585 -10.707   2.758 -0.65 -0.00    +0.000 N 
DOCKED: ATOM     22  O   UNL     1      19.912 -12.714   1.797 -1.58 -0.00    +0.000 OA
DOCKED: ATOM     23  H   UNL     1      21.012  -9.829   2.638 -0.57 -0.00    +0.000 HD
DOCKED: BRANCH  21  24
DOCKED: ATOM     24  O   UNL     1      20.245 -11.129   4.000 -0.82 -0.00    +0.000 OA
DOCKED: ATOM     25  H   UNL     1      20.640 -11.999   4.165 -0.51 -0.00    +0.000 HD
DOCKED: ENDBRANCH  21  24
DOCKED: ENDBRANCH  19  20
DOCKED: ENDBRANCH   3  18
DOCKED: TORSDOF 6
DOCKED: TER
DOCKED: ENDMDL
________________________________________________________________________________


	BEGINNING GENETIC ALGORITHM DOCKING 20 of 100
Run: 20 Seed: 885220218 603266070 [ Run 20 of 100 GA/GALS ]
Beginning LAMARCKIAN GENETIC ALGORITHM (LGA), with a maximum of 2500000 energy evaluations.

Final-Value: -12.890


	FINAL GENETIC ALGORITHM DOCKED STATE
	_______________________________________________


Detailed state:  trans 18.765 -10.280 -1.391 quatxyzw -0.937385 0.225756 0.074081 -0.254668 center 0.320 0.169 0.303 ntor 6 2.7603 -162.0404 179.9328 120.3999 123.5959 -126.8337
State:	 18.765 -10.280  -1.391  -0.969  0.233  0.077 -150.492      2.76 -162.04  179.93  120.40  123.60 -126.83

DOCKED: MODEL       20
DOCKED: USER    Run = 20
DOCKED: USER    DPF = ligand_dock.biased.dpf
DOCKED: USER  
DOCKED: USER    Estimated Free Energy of Binding    =   -9.43 kcal/mol  [=(1)+(2)+(3)-(4)]
DOCKED: USER    Estimated Inhibition Constant, Ki   =  123.28 nM (nanomolar)  [Temperature = 298.15 K]
DOCKED: USER    
DOCKED: USER    (1) Final Intermolecular Energy     =  -11.22 kcal/mol
DOCKED: USER        vdW + Hbond + desolv Energy     =  -11.22 kcal/mol
DOCKED: USER        Electrostatic Energy            =   +0.00 kcal/mol
DOCKED: USER    (2) Final Total Internal Energy     =   -1.67 kcal/mol
DOCKED: USER    (3) Torsional Free Energy           =   +1.79 kcal/mol
DOCKED: USER    (4) Unbound System's Energy  [=(2)] =   -1.67 kcal/mol
DOCKED: USER    
DOCKED: USER    
DOCKED: USER    NEWDPF move ligand.pdbqt
DOCKED: USER    NEWDPF about 0.320000 0.169000 0.303000
DOCKED: USER    NEWDPF tran0 18.764896 -10.279716 -1.391165
DOCKED: USER    NEWDPF quaternion0 -0.937385 0.225756 0.074081 -0.254668
DOCKED: USER    NEWDPF axisangle0 -0.969346 0.233454 0.076607 -150.492188
DOCKED: USER    NEWDPF quat0 -0.969346 0.233454 0.076607 -150.492188
DOCKED: USER    NEWDPF dihe0 2.76 -162.04 179.93 120.40 123.60 -126.83 
DOCKED: USER  keepresnum = 1 
DOCKED: USER  
DOCKED: REMARK  Name = 
DOCKED: REMARK  6 active torsions:
DOCKED: REMARK  status: ('A' for Active; 'I' for Inactive)
DOCKED: REMARK    1  A    between atoms: S_2  and  N_3
DOCKED: REMARK    2  A    between atoms: S_2  and  C_10
DOCKED: REMARK    3  A    between atoms: N_3  and  C_4
DOCKED: REMARK    4  A    between atoms: C_12  and  C_13
DOCKED: REMARK    5  A    between atoms: C_14  and  C_15
DOCKED: REMARK    6  A    between atoms: N_16  and  O_17
DOCKED: REMARK                            x       y       z     vdW  Elec       q    Type
DOCKED: REMARK                         _______ _______ _______ _____ _____    ______ ____
DOCKED: USER                              x       y       z     vdW  Elec       q    Type
DOCKED: USER                           _______ _______ _______ _____ _____    ______ ____
DOCKED: ROOT
DOCKED: ATOM      1  C   UNL     1      18.199 -11.618   0.459 -0.47 -0.00    +0.000 A 
DOCKED: ATOM      2  C   UNL     1      18.858 -11.216  -0.710 -0.43 -0.00    +0.000 A 
DOCKED: ATOM      3  C   UNL     1      20.179 -10.737  -0.661 -0.51 -0.00    +0.000 A 
DOCKED: ATOM      4  C   UNL     1      20.824 -10.651   0.590 -0.61 -0.00    +0.000 A 
DOCKED: ATOM      5  C   UNL     1      20.167 -11.059   1.754 -0.65 -0.00    +0.000 A 
DOCKED: ATOM      6  C   UNL     1      18.861 -11.546   1.690 -0.55 -0.00    +0.000 A 
DOCKED: ENDROOT
DOCKED: BRANCH   1   8
DOCKED: ATOM      7  O   UNL     1      16.505 -13.627  -0.117 -1.19 +0.00    +0.000 OA
DOCKED: ATOM      8  S   UNL     1      16.540 -12.207   0.375 -0.63 +0.00    +0.000 S 
DOCKED: ATOM      9  O   UNL     1      15.768 -11.339  -0.576 -0.35 +0.00    +0.000 OA
DOCKED: BRANCH   8  10
DOCKED: ATOM     10  N   UNL     1      15.800 -12.134   1.945 -0.43 +0.00    +0.000 N 
DOCKED: ATOM     11  H   UNL     1      15.577 -12.983   2.390 -0.05 +0.00    +0.000 HD
DOCKED: BRANCH  10  12
DOCKED: ATOM     12  C   UNL     1      15.495 -10.908   2.633 -0.42 +0.00    +0.000 A 
DOCKED: ATOM     13  C   UNL     1      15.022 -10.893   3.959 -0.41 +0.00    +0.000 A 
DOCKED: ATOM     14  C   UNL     1      14.744  -9.680   4.598 -0.38 +0.00    +0.000 A 
DOCKED: ATOM     15  C   UNL     1      14.930  -8.473   3.921 -0.34 +0.00    +0.000 A 
DOCKED: ATOM     16  C   UNL     1      15.391  -8.476   2.603 -0.29 +0.00    +0.000 A 
DOCKED: ATOM     17  C   UNL     1      15.671  -9.686   1.961 -0.31 +0.00    +0.000 A 
DOCKED: ENDBRANCH  10  12
DOCKED: ENDBRANCH   8  10
DOCKED: ENDBRANCH   1   8
DOCKED: BRANCH   3  18
DOCKED: ATOM     18  C   UNL     1      20.822 -10.303  -1.926 -0.58 -0.00    +0.000 C 
DOCKED: ATOM     19  C   UNL     1      20.607 -10.895  -3.110 -0.46 -0.00    +0.000 C 
DOCKED: BRANCH  19  20
DOCKED: ATOM     20  C   UNL     1      21.250 -10.460  -4.367 -0.49 -0.00    +0.000 C 
DOCKED: ATOM     21  N   UNL     1      21.322 -11.302  -5.525 -0.48 -0.00    +0.000 N 
DOCKED: ATOM     22  O   UNL     1      21.777  -9.315  -4.406 -0.42 -0.00    +0.000 OA
DOCKED: ATOM     23  H   UNL     1      21.018 -12.236  -5.472 -0.38 -0.00    +0.000 HD
DOCKED: BRANCH  21  24
DOCKED: ATOM     24  O   UNL     1      21.807 -10.814  -6.693 -0.38 -0.00    +0.000 OA
DOCKED: ATOM     25  H   UNL     1      22.099  -9.899  -6.565 -0.00 -0.00    +0.000 HD
DOCKED: ENDBRANCH  21  24
DOCKED: ENDBRANCH  19  20
DOCKED: ENDBRANCH   3  18
DOCKED: TORSDOF 6
DOCKED: TER
DOCKED: ENDMDL
________________________________________________________________________________


	BEGINNING GENETIC ALGORITHM DOCKING 21 of 100
Run: 21 Seed: 824453619 2072527521 [ Run 21 of 100 GA/GALS ]
Beginning LAMARCKIAN GENETIC ALGORITHM (LGA), with a maximum of 2500000 energy evaluations.

Final-Value: -14.516


	FINAL GENETIC ALGORITHM DOCKED STATE
	_______________________________________________


Detailed state:  trans 21.525 -11.177 -1.926 quatxyzw 0.299578 -0.267747 0.831433 -0.383776 center 0.320 0.169 0.303 ntor 6 23.0792 -164.3574 62.5263 -13.1748 113.0172 -60.9089
State:	 21.525 -11.177  -1.926   0.324 -0.290  0.900 -134.864     23.08 -164.36   62.53  -13.17  113.02  -60.91

DOCKED: MODEL       21
DOCKED: USER    Run = 21
DOCKED: USER    DPF = ligand_dock.biased.dpf
DOCKED: USER  
DOCKED: USER    Estimated Free Energy of Binding    =  -11.18 kcal/mol  [=(1)+(2)+(3)-(4)]
DOCKED: USER    Estimated Inhibition Constant, Ki   =    6.38 nM (nanomolar)  [Temperature = 298.15 K]
DOCKED: USER    
DOCKED: USER    (1) Final Intermolecular Energy     =  -12.97 kcal/mol
DOCKED: USER        vdW + Hbond + desolv Energy     =  -12.97 kcal/mol
DOCKED: USER        Electrostatic Energy            =   +0.00 kcal/mol
DOCKED: USER    (2) Final Total Internal Energy     =   -1.55 kcal/mol
DOCKED: USER    (3) Torsional Free Energy           =   +1.79 kcal/mol
DOCKED: USER    (4) Unbound System's Energy  [=(2)] =   -1.55 kcal/mol
DOCKED: USER    
DOCKED: USER    
DOCKED: USER    NEWDPF move ligand.pdbqt
DOCKED: USER    NEWDPF about 0.320000 0.169000 0.303000
DOCKED: USER    NEWDPF tran0 21.524987 -11.176862 -1.926229
DOCKED: USER    NEWDPF quaternion0 0.299578 -0.267747 0.831433 -0.383776
DOCKED: USER    NEWDPF axisangle0 0.324420 -0.289950 0.900378 -134.864476
DOCKED: USER    NEWDPF quat0 0.324420 -0.289950 0.900378 -134.864476
DOCKED: USER    NEWDPF dihe0 23.08 -164.36 62.53 -13.17 113.02 -60.91 
DOCKED: USER  keepresnum = 1 
DOCKED: USER  
DOCKED: REMARK  Name = 
DOCKED: REMARK  6 active torsions:
DOCKED: REMARK  status: ('A' for Active; 'I' for Inactive)
DOCKED: REMARK    1  A    between atoms: S_2  and  N_3
DOCKED: REMARK    2  A    between atoms: S_2  and  C_10
DOCKED: REMARK    3  A    between atoms: N_3  and  C_4
DOCKED: REMARK    4  A    between atoms: C_12  and  C_13
DOCKED: REMARK    5  A    between atoms: C_14  and  C_15
DOCKED: REMARK    6  A    between atoms: N_16  and  O_17
DOCKED: REMARK                            x       y       z     vdW  Elec       q    Type
DOCKED: REMARK                         _______ _______ _______ _____ _____    ______ ____
DOCKED: USER                              x       y       z     vdW  Elec       q    Type
DOCKED: USER                           _______ _______ _______ _____ _____    ______ ____
DOCKED: ROOT
DOCKED: ATOM      1  C   UNL     1      20.730 -10.132  -3.878 -0.42 -0.00    +0.000 A 
DOCKED: ATOM      2  C   UNL     1      20.772 -10.538  -2.538 -0.47 -0.00    +0.000 A 
DOCKED: ATOM      3  C   UNL     1      21.107  -9.627  -1.522 -0.55 -0.00    +0.000 A 
DOCKED: ATOM      4  C   UNL     1      21.418  -8.298  -1.876 -0.43 -0.00    +0.000 A 
DOCKED: ATOM      5  C   UNL     1      21.369  -7.893  -3.213 -0.36 -0.00    +0.000 A 
DOCKED: ATOM      6  C   UNL     1      21.021  -8.804  -4.211 -0.32 -0.00    +0.000 A 
DOCKED: ENDROOT
DOCKED: BRANCH   1   8
DOCKED: ATOM      7  O   UNL     1      19.507 -10.637  -6.220 -0.33 -0.00    +0.000 OA
DOCKED: ATOM      8  S   UNL     1      20.316 -11.293  -5.137 -0.62 -0.00    +0.000 S 
DOCKED: ATOM      9  O   UNL     1      19.509 -12.401  -4.525 -0.57 -0.00    +0.000 OA
DOCKED: BRANCH   8  10
DOCKED: ATOM     10  N   UNL     1      21.761 -11.958  -5.835 -0.41 -0.00    +0.000 N 
DOCKED: ATOM     11  H   UNL     1      21.944 -12.915  -5.695 -0.52 -0.00    +0.000 HD
DOCKED: BRANCH  10  12
DOCKED: ATOM     12  C   UNL     1      22.706 -11.193  -6.604 -0.39 -0.00    +0.000 A 
DOCKED: ATOM     13  C   UNL     1      23.819 -11.790  -7.228 -0.41 -0.00    +0.000 A 
DOCKED: ATOM     14  C   UNL     1      24.712 -11.014  -7.975 -0.37 -0.00    +0.000 A 
DOCKED: ATOM     15  C   UNL     1      24.507  -9.639  -8.105 -0.23 -0.00    +0.000 A 
DOCKED: ATOM     16  C   UNL     1      23.411  -9.035  -7.485 -0.20 -0.00    +0.000 A 
DOCKED: ATOM     17  C   UNL     1      22.516  -9.807  -6.737 -0.27 -0.00    +0.000 A 
DOCKED: ENDBRANCH  10  12
DOCKED: ENDBRANCH   8  10
DOCKED: ENDBRANCH   1   8
DOCKED: BRANCH   3  18
DOCKED: ATOM     18  C   UNL     1      21.159 -10.115  -0.121 -0.71 -0.00    +0.000 C 
DOCKED: ATOM     19  C   UNL     1      20.213 -10.889   0.431 -0.67 -0.00    +0.000 C 
DOCKED: BRANCH  19  20
DOCKED: ATOM     20  C   UNL     1      20.268 -11.373   1.827 -0.77 -0.00    +0.000 C 
DOCKED: ATOM     21  N   UNL     1      20.637 -10.522   2.921 -0.62 -0.00    +0.000 N 
DOCKED: ATOM     22  O   UNL     1      20.009 -12.585   2.052 -1.57 -0.00    +0.000 OA
DOCKED: ATOM     23  H   UNL     1      20.952  -9.607   2.746 -0.58 -0.00    +0.000 HD
DOCKED: BRANCH  21  24
DOCKED: ATOM     24  O   UNL     1      20.550 -10.975   4.195 -0.74 -0.00    +0.000 OA
DOCKED: ATOM     25  H   UNL     1      20.585 -11.944   4.196 -0.45 -0.00    +0.000 HD
DOCKED: ENDBRANCH  21  24
DOCKED: ENDBRANCH  19  20
DOCKED: ENDBRANCH   3  18
DOCKED: TORSDOF 6
DOCKED: TER
DOCKED: ENDMDL
________________________________________________________________________________


	BEGINNING GENETIC ALGORITHM DOCKING 22 of 100
Run: 22 Seed: 1422967862 736421195 [ Run 22 of 100 GA/GALS ]
Beginning LAMARCKIAN GENETIC ALGORITHM (LGA), with a maximum of 2500000 energy evaluations.

Final-Value: -13.842


	FINAL GENETIC ALGORITHM DOCKED STATE
	_______________________________________________


Detailed state:  trans 21.341 -11.131 -1.763 quatxyzw -0.192127 0.269489 -0.866402 0.373913 center 0.320 0.169 0.303 ntor 6 45.9236 -158.9291 -6.5803 -40.2913 175.3611 177.2343
State:	 21.341 -11.131  -1.763  -0.207  0.291 -0.934 136.086     45.92 -158.93   -6.58  -40.29  175.36  177.23

DOCKED: MODEL       22
DOCKED: USER    Run = 22
DOCKED: USER    DPF = ligand_dock.biased.dpf
DOCKED: USER  
DOCKED: USER    Estimated Free Energy of Binding    =  -10.74 kcal/mol  [=(1)+(2)+(3)-(4)]
DOCKED: USER    Estimated Inhibition Constant, Ki   =   13.39 nM (nanomolar)  [Temperature = 298.15 K]
DOCKED: USER    
DOCKED: USER    (1) Final Intermolecular Energy     =  -12.53 kcal/mol
DOCKED: USER        vdW + Hbond + desolv Energy     =  -12.53 kcal/mol
DOCKED: USER        Electrostatic Energy            =   +0.00 kcal/mol
DOCKED: USER    (2) Final Total Internal Energy     =   -1.31 kcal/mol
DOCKED: USER    (3) Torsional Free Energy           =   +1.79 kcal/mol
DOCKED: USER    (4) Unbound System's Energy  [=(2)] =   -1.31 kcal/mol
DOCKED: USER    
DOCKED: USER    
DOCKED: USER    NEWDPF move ligand.pdbqt
DOCKED: USER    NEWDPF about 0.320000 0.169000 0.303000
DOCKED: USER    NEWDPF tran0 21.341267 -11.130717 -1.762658
DOCKED: USER    NEWDPF quaternion0 -0.192127 0.269489 -0.866402 0.373913
DOCKED: USER    NEWDPF axisangle0 -0.207153 0.290565 -0.934162 136.085766
DOCKED: USER    NEWDPF quat0 -0.207153 0.290565 -0.934162 136.085766
DOCKED: USER    NEWDPF dihe0 45.92 -158.93 -6.58 -40.29 175.36 177.23 
DOCKED: USER  keepresnum = 1 
DOCKED: USER  
DOCKED: REMARK  Name = 
DOCKED: REMARK  6 active torsions:
DOCKED: REMARK  status: ('A' for Active; 'I' for Inactive)
DOCKED: REMARK    1  A    between atoms: S_2  and  N_3
DOCKED: REMARK    2  A    between atoms: S_2  and  C_10
DOCKED: REMARK    3  A    between atoms: N_3  and  C_4
DOCKED: REMARK    4  A    between atoms: C_12  and  C_13
DOCKED: REMARK    5  A    between atoms: C_14  and  C_15
DOCKED: REMARK    6  A    between atoms: N_16  and  O_17
DOCKED: REMARK                            x       y       z     vdW  Elec       q    Type
DOCKED: REMARK                         _______ _______ _______ _____ _____    ______ ____
DOCKED: USER                              x       y       z     vdW  Elec       q    Type
DOCKED: USER                           _______ _______ _______ _____ _____    ______ ____
DOCKED: ROOT
DOCKED: ATOM      1  C   UNL     1      20.987 -10.268  -3.923 -0.43 -0.00    +0.000 A 
DOCKED: ATOM      2  C   UNL     1      20.745 -10.547  -2.571 -0.47 -0.00    +0.000 A 
DOCKED: ATOM      3  C   UNL     1      20.888  -9.547  -1.594 -0.53 -0.00    +0.000 A 
DOCKED: ATOM      4  C   UNL     1      21.298  -8.259  -1.995 -0.44 -0.00    +0.000 A 
DOCKED: ATOM      5  C   UNL     1      21.532  -7.980  -3.345 -0.32 -0.00    +0.000 A 
DOCKED: ATOM      6  C   UNL     1      21.373  -8.979  -4.307 -0.33 -0.00    +0.000 A 
DOCKED: ENDROOT
DOCKED: BRANCH   1   8
DOCKED: ATOM      7  O   UNL     1      19.913 -12.633  -4.621 -0.66 -0.00    +0.000 OA
DOCKED: ATOM      8  S   UNL     1      20.811 -11.540  -5.129 -0.64 -0.00    +0.000 S 
DOCKED: ATOM      9  O   UNL     1      22.166 -12.116  -5.425 -0.75 -0.00    +0.000 OA
DOCKED: BRANCH   8  10
DOCKED: ATOM     10  N   UNL     1      20.136 -10.887  -6.591 -0.32 -0.00    +0.000 N 
DOCKED: ATOM     11  H   UNL     1      20.754 -10.500  -7.252 -0.02 -0.00    +0.000 HD
DOCKED: BRANCH  10  12
DOCKED: ATOM     12  C   UNL     1      18.729 -10.879  -6.891 -0.31 -0.00    +0.000 A 
DOCKED: ATOM     13  C   UNL     1      18.239 -10.527  -8.164 -0.22 -0.00    +0.000 A 
DOCKED: ATOM     14  C   UNL     1      16.864 -10.540  -8.421 -0.20 -0.00    +0.000 A 
DOCKED: ATOM     15  C   UNL     1      15.966 -10.897  -7.413 -0.22 -0.00    +0.000 A 
DOCKED: ATOM     16  C   UNL     1      16.440 -11.240  -6.146 -0.28 -0.00    +0.000 A 
DOCKED: ATOM     17  C   UNL     1      17.813 -11.230  -5.884 -0.32 -0.00    +0.000 A 
DOCKED: ENDBRANCH  10  12
DOCKED: ENDBRANCH   8  10
DOCKED: ENDBRANCH   1   8
DOCKED: BRANCH   3  18
DOCKED: ATOM     18  C   UNL     1      20.641  -9.903  -0.175 -0.65 -0.00    +0.000 C 
DOCKED: ATOM     19  C   UNL     1      20.600 -11.165   0.279 -0.65 -0.00    +0.000 C 
DOCKED: BRANCH  19  20
DOCKED: ATOM     20  C   UNL     1      20.353 -11.514   1.694 -0.77 -0.00    +0.000 C 
DOCKED: ATOM     21  N   UNL     1      20.643 -10.612   2.770 -0.63 -0.00    +0.000 N 
DOCKED: ATOM     22  O   UNL     1      19.896 -12.658   1.958 -1.59 -0.00    +0.000 OA
DOCKED: ATOM     23  H   UNL     1      21.105  -9.762   2.587 -0.59 -0.00    +0.000 HD
DOCKED: BRANCH  21  24
DOCKED: ATOM     24  O   UNL     1      20.281 -10.925   4.037 -0.80 -0.00    +0.000 OA
DOCKED: ATOM     25  H   UNL     1      20.526 -11.844   4.226 -0.39 -0.00    +0.000 HD
DOCKED: ENDBRANCH  21  24
DOCKED: ENDBRANCH  19  20
DOCKED: ENDBRANCH   3  18
DOCKED: TORSDOF 6
DOCKED: TER
DOCKED: ENDMDL
________________________________________________________________________________


	BEGINNING GENETIC ALGORITHM DOCKING 23 of 100
Run: 23 Seed: 457125955 253267273 [ Run 23 of 100 GA/GALS ]
Beginning LAMARCKIAN GENETIC ALGORITHM (LGA), with a maximum of 2500000 energy evaluations.

Final-Value: -13.753


	FINAL GENETIC ALGORITHM DOCKED STATE
	_______________________________________________


Detailed state:  trans 20.764 -7.929 -0.349 quatxyzw 0.084601 -0.044587 -0.492579 -0.864997 center 0.320 0.169 0.303 ntor 6 30.5054 40.0897 104.6816 -167.4812 -90.9108 -42.0719
State:	 20.764  -7.929  -0.349   0.169 -0.089 -0.982 -60.235     30.51   40.09  104.68 -167.48  -90.91  -42.07

DOCKED: MODEL       23
DOCKED: USER    Run = 23
DOCKED: USER    DPF = ligand_dock.biased.dpf
DOCKED: USER  
DOCKED: USER    Estimated Free Energy of Binding    =  -10.60 kcal/mol  [=(1)+(2)+(3)-(4)]
DOCKED: USER    Estimated Inhibition Constant, Ki   =   16.85 nM (nanomolar)  [Temperature = 298.15 K]
DOCKED: USER    
DOCKED: USER    (1) Final Intermolecular Energy     =  -12.39 kcal/mol
DOCKED: USER        vdW + Hbond + desolv Energy     =  -12.39 kcal/mol
DOCKED: USER        Electrostatic Energy            =   +0.00 kcal/mol
DOCKED: USER    (2) Final Total Internal Energy     =   -1.36 kcal/mol
DOCKED: USER    (3) Torsional Free Energy           =   +1.79 kcal/mol
DOCKED: USER    (4) Unbound System's Energy  [=(2)] =   -1.36 kcal/mol
DOCKED: USER    
DOCKED: USER    
DOCKED: USER    NEWDPF move ligand.pdbqt
DOCKED: USER    NEWDPF about 0.320000 0.169000 0.303000
DOCKED: USER    NEWDPF tran0 20.764122 -7.928822 -0.349414
DOCKED: USER    NEWDPF quaternion0 0.084601 -0.044587 -0.492579 -0.864997
DOCKED: USER    NEWDPF axisangle0 0.168604 -0.088858 -0.981671 -60.235194
DOCKED: USER    NEWDPF quat0 0.168604 -0.088858 -0.981671 -60.235194
DOCKED: USER    NEWDPF dihe0 30.51 40.09 104.68 -167.48 -90.91 -42.07 
DOCKED: USER  keepresnum = 1 
DOCKED: USER  
DOCKED: REMARK  Name = 
DOCKED: REMARK  6 active torsions:
DOCKED: REMARK  status: ('A' for Active; 'I' for Inactive)
DOCKED: REMARK    1  A    between atoms: S_2  and  N_3
DOCKED: REMARK    2  A    between atoms: S_2  and  C_10
DOCKED: REMARK    3  A    between atoms: N_3  and  C_4
DOCKED: REMARK    4  A    between atoms: C_12  and  C_13
DOCKED: REMARK    5  A    between atoms: C_14  and  C_15
DOCKED: REMARK    6  A    between atoms: N_16  and  O_17
DOCKED: REMARK                            x       y       z     vdW  Elec       q    Type
DOCKED: REMARK                         _______ _______ _______ _____ _____    ______ ____
DOCKED: USER                              x       y       z     vdW  Elec       q    Type
DOCKED: USER                           _______ _______ _______ _____ _____    ______ ____
DOCKED: ROOT
DOCKED: ATOM      1  C   UNL     1      21.289  -7.071  -2.476 -0.41 -0.00    +0.000 A 
DOCKED: ATOM      2  C   UNL     1      21.389  -7.865  -1.326 -0.23 -0.00    +0.000 A 
DOCKED: ATOM      3  C   UNL     1      21.016  -9.220  -1.355 -0.54 -0.00    +0.000 A 
DOCKED: ATOM      4  C   UNL     1      20.521  -9.764  -2.558 -0.45 -0.00    +0.000 A 
DOCKED: ATOM      5  C   UNL     1      20.428  -8.972  -3.705 -0.33 -0.00    +0.000 A 
DOCKED: ATOM      6  C   UNL     1      20.816  -7.631  -3.668 -0.31 -0.00    +0.000 A 
DOCKED: ENDROOT
DOCKED: BRANCH   1   8
DOCKED: ATOM      7  O   UNL     1      21.967  -4.831  -3.801 -0.20 -0.00    +0.000 OA
DOCKED: ATOM      8  S   UNL     1      21.754  -5.373  -2.416 -0.50 -0.00    +0.000 S 
DOCKED: ATOM      9  O   UNL     1      23.033  -5.250  -1.639 -0.65 +0.00    +0.000 OA
DOCKED: BRANCH   8  10
DOCKED: ATOM     10  N   UNL     1      20.516  -4.442  -1.629 -0.39 -0.00    +0.000 N 
DOCKED: ATOM     11  H   UNL     1      19.577  -4.657  -1.832 -0.04 -0.00    +0.000 HD
DOCKED: BRANCH  10  12
DOCKED: ATOM     12  C   UNL     1      20.782  -3.377  -0.698 -0.39 +0.00    +0.000 A 
DOCKED: ATOM     13  C   UNL     1      21.956  -2.601  -0.766 -0.30 -0.00    +0.000 A 
DOCKED: ATOM     14  C   UNL     1      22.175  -1.568   0.150 -0.30 -0.00    +0.000 A 
DOCKED: ATOM     15  C   UNL     1      21.231  -1.301   1.144 -0.35 -0.00    +0.000 A 
DOCKED: ATOM     16  C   UNL     1      20.067  -2.068   1.226 -0.40 -0.00    +0.000 A 
DOCKED: ATOM     17  C   UNL     1      19.843  -3.101   0.310 -0.32 -0.00    +0.000 A 
DOCKED: ENDBRANCH  10  12
DOCKED: ENDBRANCH   8  10
DOCKED: ENDBRANCH   1   8
DOCKED: BRANCH   3  18
DOCKED: ATOM     18  C   UNL     1      21.121 -10.010  -0.103 -0.70 -0.00    +0.000 C 
DOCKED: ATOM     19  C   UNL     1      20.060 -10.451   0.590 -0.63 -0.00    +0.000 C 
DOCKED: BRANCH  19  20
DOCKED: ATOM     20  C   UNL     1      20.170 -11.237   1.836 -0.75 -0.00    +0.000 C 
DOCKED: ATOM     21  N   UNL     1      20.299 -10.621   3.124 -0.69 -0.00    +0.000 N 
DOCKED: ATOM     22  O   UNL     1      20.178 -12.495   1.753 -1.65 -0.00    +0.000 OA
DOCKED: ATOM     23  H   UNL     1      20.409  -9.645   3.193 -0.58 -0.00    +0.000 HD
DOCKED: BRANCH  21  24
DOCKED: ATOM     24  O   UNL     1      20.268 -11.378   4.248 -0.79 -0.00    +0.000 OA
DOCKED: ATOM     25  H   UNL     1      20.629 -12.257   4.055 -0.52 -0.00    +0.000 HD
DOCKED: ENDBRANCH  21  24
DOCKED: ENDBRANCH  19  20
DOCKED: ENDBRANCH   3  18
DOCKED: TORSDOF 6
DOCKED: TER
DOCKED: ENDMDL
________________________________________________________________________________


	BEGINNING GENETIC ALGORITHM DOCKING 24 of 100
Run: 24 Seed: 1529807376 1308384714 [ Run 24 of 100 GA/GALS ]
Beginning LAMARCKIAN GENETIC ALGORITHM (LGA), with a maximum of 2500000 energy evaluations.

Final-Value: -13.071


	FINAL GENETIC ALGORITHM DOCKED STATE
	_______________________________________________


Detailed state:  trans 18.226 -10.202 -1.097 quatxyzw 0.839586 -0.174214 -0.514150 -0.019856 center 0.320 0.169 0.303 ntor 6 -5.4140 -42.8376 -172.0004 -28.7468 58.9929 54.5088
State:	 18.226 -10.202  -1.097   0.840 -0.174 -0.514 -177.725     -5.41  -42.84 -172.00  -28.75   58.99   54.51

DOCKED: MODEL       24
DOCKED: USER    Run = 24
DOCKED: USER    DPF = ligand_dock.biased.dpf
DOCKED: USER  
DOCKED: USER    Estimated Free Energy of Binding    =   -9.55 kcal/mol  [=(1)+(2)+(3)-(4)]
DOCKED: USER    Estimated Inhibition Constant, Ki   =  100.38 nM (nanomolar)  [Temperature = 298.15 K]
DOCKED: USER    
DOCKED: USER    (1) Final Intermolecular Energy     =  -11.34 kcal/mol
DOCKED: USER        vdW + Hbond + desolv Energy     =  -11.34 kcal/mol
DOCKED: USER        Electrostatic Energy            =   +0.00 kcal/mol
DOCKED: USER    (2) Final Total Internal Energy     =   -1.73 kcal/mol
DOCKED: USER    (3) Torsional Free Energy           =   +1.79 kcal/mol
DOCKED: USER    (4) Unbound System's Energy  [=(2)] =   -1.73 kcal/mol
DOCKED: USER    
DOCKED: USER    
DOCKED: USER    NEWDPF move ligand.pdbqt
DOCKED: USER    NEWDPF about 0.320000 0.169000 0.303000
DOCKED: USER    NEWDPF tran0 18.225693 -10.202288 -1.097115
DOCKED: USER    NEWDPF quaternion0 0.839586 -0.174214 -0.514150 -0.019856
DOCKED: USER    NEWDPF axisangle0 0.839752 -0.174248 -0.514252 -177.724546
DOCKED: USER    NEWDPF quat0 0.839752 -0.174248 -0.514252 -177.724546
DOCKED: USER    NEWDPF dihe0 -5.41 -42.84 -172.00 -28.75 58.99 54.51 
DOCKED: USER  keepresnum = 1 
DOCKED: USER  
DOCKED: REMARK  Name = 
DOCKED: REMARK  6 active torsions:
DOCKED: REMARK  status: ('A' for Active; 'I' for Inactive)
DOCKED: REMARK    1  A    between atoms: S_2  and  N_3
DOCKED: REMARK    2  A    between atoms: S_2  and  C_10
DOCKED: REMARK    3  A    between atoms: N_3  and  C_4
DOCKED: REMARK    4  A    between atoms: C_12  and  C_13
DOCKED: REMARK    5  A    between atoms: C_14  and  C_15
DOCKED: REMARK    6  A    between atoms: N_16  and  O_17
DOCKED: REMARK                            x       y       z     vdW  Elec       q    Type
DOCKED: REMARK                         _______ _______ _______ _____ _____    ______ ____
DOCKED: USER                              x       y       z     vdW  Elec       q    Type
DOCKED: USER                           _______ _______ _______ _____ _____    ______ ____
DOCKED: ROOT
DOCKED: ATOM      1  C   UNL     1      19.878 -10.828   0.456 -0.56 -0.00    +0.000 A 
DOCKED: ATOM      2  C   UNL     1      19.163 -10.794  -0.748 -0.42 -0.00    +0.000 A 
DOCKED: ATOM      3  C   UNL     1      19.686 -10.136  -1.875 -0.37 -0.00    +0.000 A 
DOCKED: ATOM      4  C   UNL     1      20.937  -9.495  -1.768 -0.52 -0.00    +0.000 A 
DOCKED: ATOM      5  C   UNL     1      21.652  -9.537  -0.568 -0.46 -0.00    +0.000 A 
DOCKED: ATOM      6  C   UNL     1      21.129 -10.206   0.540 -0.53 -0.00    +0.000 A 
DOCKED: ENDROOT
DOCKED: BRANCH   1   8
DOCKED: ATOM      7  O   UNL     1      18.596 -10.659   2.815 -0.64 -0.00    +0.000 OA
DOCKED: ATOM      8  S   UNL     1      19.199 -11.650   1.859 -0.84 -0.00    +0.000 S 
DOCKED: ATOM      9  O   UNL     1      20.297 -12.399   2.558 -1.40 -0.00    +0.000 OA
DOCKED: BRANCH   8  10
DOCKED: ATOM     10  N   UNL     1      17.971 -12.772   1.358 -0.42 +0.00    +0.000 N 
DOCKED: ATOM     11  H   UNL     1      18.220 -13.720   1.270 -0.24 +0.00    +0.000 HD
DOCKED: BRANCH  10  12
DOCKED: ATOM     12  C   UNL     1      16.613 -12.397   1.065 -0.38 +0.00    +0.000 A 
DOCKED: ATOM     13  C   UNL     1      15.819 -11.685   1.986 -0.41 +0.00    +0.000 A 
DOCKED: ATOM     14  C   UNL     1      14.506 -11.331   1.662 -0.39 +0.00    +0.000 A 
DOCKED: ATOM     15  C   UNL     1      13.970 -11.685   0.422 -0.38 +0.00    +0.000 A 
DOCKED: ATOM     16  C   UNL     1      14.744 -12.397  -0.495 -0.44 +0.00    +0.000 A 
DOCKED: ATOM     17  C   UNL     1      16.059 -12.753  -0.176 -0.49 +0.00    +0.000 A 
DOCKED: ENDBRANCH  10  12
DOCKED: ENDBRANCH   8  10
DOCKED: ENDBRANCH   1   8
DOCKED: BRANCH   3  18
DOCKED: ATOM     18  C   UNL     1      18.877 -10.110  -3.119 -0.34 -0.00    +0.000 C 
DOCKED: ATOM     19  C   UNL     1      19.083 -10.934  -4.157 -0.39 -0.00    +0.000 C 
DOCKED: BRANCH  19  20
DOCKED: ATOM     20  C   UNL     1      18.275 -10.905  -5.394 -0.35 -0.00    +0.000 C 
DOCKED: ATOM     21  N   UNL     1      18.642 -11.639  -6.569 -0.37 -0.00    +0.000 N 
DOCKED: ATOM     22  O   UNL     1      17.241 -10.184  -5.418 -0.22 -0.00    +0.000 OA
DOCKED: ATOM     23  H   UNL     1      19.504 -12.113  -6.603 -0.29 -0.00    +0.000 HD
DOCKED: BRANCH  21  24
DOCKED: ATOM     24  O   UNL     1      17.804 -11.684  -7.634 -0.42 -0.00    +0.000 OA
DOCKED: ATOM     25  H   UNL     1      16.971 -11.243  -7.408 -0.02 -0.00    +0.000 HD
DOCKED: ENDBRANCH  21  24
DOCKED: ENDBRANCH  19  20
DOCKED: ENDBRANCH   3  18
DOCKED: TORSDOF 6
DOCKED: TER
DOCKED: ENDMDL
________________________________________________________________________________


	BEGINNING GENETIC ALGORITHM DOCKING 25 of 100
Run: 25 Seed: 967919056 1660546847 [ Run 25 of 100 GA/GALS ]
Beginning LAMARCKIAN GENETIC ALGORITHM (LGA), with a maximum of 2500000 energy evaluations.

Final-Value: -13.810


	FINAL GENETIC ALGORITHM DOCKED STATE
	_______________________________________________


Detailed state:  trans 21.327 -11.257 -1.884 quatxyzw 0.122338 -0.323163 0.879520 -0.327174 center 0.320 0.169 0.303 ntor 6 9.5285 -74.5369 -67.9969 179.9944 -128.1377 -158.4529
State:	 21.327 -11.257  -1.884   0.129 -0.342  0.931 -141.805      9.53  -74.54  -68.00  179.99 -128.14 -158.45

DOCKED: MODEL       25
DOCKED: USER    Run = 25
DOCKED: USER    DPF = ligand_dock.biased.dpf
DOCKED: USER  
DOCKED: USER    Estimated Free Energy of Binding    =  -10.50 kcal/mol  [=(1)+(2)+(3)-(4)]
DOCKED: USER    Estimated Inhibition Constant, Ki   =   20.14 nM (nanomolar)  [Temperature = 298.15 K]
DOCKED: USER    
DOCKED: USER    (1) Final Intermolecular Energy     =  -12.29 kcal/mol
DOCKED: USER        vdW + Hbond + desolv Energy     =  -12.29 kcal/mol
DOCKED: USER        Electrostatic Energy            =   +0.00 kcal/mol
DOCKED: USER    (2) Final Total Internal Energy     =   -1.52 kcal/mol
DOCKED: USER    (3) Torsional Free Energy           =   +1.79 kcal/mol
DOCKED: USER    (4) Unbound System's Energy  [=(2)] =   -1.52 kcal/mol
DOCKED: USER    
DOCKED: USER    
DOCKED: USER    NEWDPF move ligand.pdbqt
DOCKED: USER    NEWDPF about 0.320000 0.169000 0.303000
DOCKED: USER    NEWDPF tran0 21.327110 -11.256971 -1.884263
DOCKED: USER    NEWDPF quaternion0 0.122338 -0.323163 0.879520 -0.327174
DOCKED: USER    NEWDPF axisangle0 0.129463 -0.341985 0.930745 -141.805264
DOCKED: USER    NEWDPF quat0 0.129463 -0.341985 0.930745 -141.805264
DOCKED: USER    NEWDPF dihe0 9.53 -74.54 -68.00 179.99 -128.14 -158.45 
DOCKED: USER  keepresnum = 1 
DOCKED: USER  
DOCKED: REMARK  Name = 
DOCKED: REMARK  6 active torsions:
DOCKED: REMARK  status: ('A' for Active; 'I' for Inactive)
DOCKED: REMARK    1  A    between atoms: S_2  and  N_3
DOCKED: REMARK    2  A    between atoms: S_2  and  C_10
DOCKED: REMARK    3  A    between atoms: N_3  and  C_4
DOCKED: REMARK    4  A    between atoms: C_12  and  C_13
DOCKED: REMARK    5  A    between atoms: C_14  and  C_15
DOCKED: REMARK    6  A    between atoms: N_16  and  O_17
DOCKED: REMARK                            x       y       z     vdW  Elec       q    Type
DOCKED: REMARK                         _______ _______ _______ _____ _____    ______ ____
DOCKED: USER                              x       y       z     vdW  Elec       q    Type
DOCKED: USER                           _______ _______ _______ _____ _____    ______ ____
DOCKED: ROOT
DOCKED: ATOM      1  C   UNL     1      21.357 -10.288  -4.028 -0.44 -0.00    +0.000 A 
DOCKED: ATOM      2  C   UNL     1      20.873 -10.647  -2.763 -0.44 -0.00    +0.000 A 
DOCKED: ATOM      3  C   UNL     1      20.792  -9.698  -1.729 -0.52 -0.00    +0.000 A 
DOCKED: ATOM      4  C   UNL     1      21.222  -8.379  -1.982 -0.44 -0.00    +0.000 A 
DOCKED: ATOM      5  C   UNL     1      21.697  -8.021  -3.246 -0.28 -0.00    +0.000 A 
DOCKED: ATOM      6  C   UNL     1      21.760  -8.969  -4.269 -0.28 -0.00    +0.000 A 
DOCKED: ENDROOT
DOCKED: BRANCH   1   8
DOCKED: ATOM      7  O   UNL     1      20.190 -12.297  -5.383 -0.64 -0.00    +0.000 OA
DOCKED: ATOM      8  S   UNL     1      21.460 -11.496  -5.306 -0.68 -0.00    +0.000 S 
DOCKED: ATOM      9  O   UNL     1      22.605 -12.419  -5.006 -0.61 -0.00    +0.000 OA
DOCKED: BRANCH   8  10
DOCKED: ATOM     10  N   UNL     1      21.735 -10.724  -6.837 -0.33 -0.00    +0.000 N 
DOCKED: ATOM     11  H   UNL     1      21.120 -10.005  -7.109 -0.00 -0.00    +0.000 HD
DOCKED: BRANCH  10  12
DOCKED: ATOM     12  C   UNL     1      22.807 -11.073  -7.732 -0.34 -0.00    +0.000 A 
DOCKED: ATOM     13  C   UNL     1      24.093 -10.513  -7.610 -0.31 -0.00    +0.000 A 
DOCKED: ATOM     14  C   UNL     1      25.112 -10.883  -8.493 -0.33 -0.00    +0.000 A 
DOCKED: ATOM     15  C   UNL     1      24.859 -11.810  -9.506 -0.30 -0.00    +0.000 A 
DOCKED: ATOM     16  C   UNL     1      23.586 -12.366  -9.642 -0.31 -0.00    +0.000 A 
DOCKED: ATOM     17  C   UNL     1      22.564 -11.999  -8.760 -0.28 -0.00    +0.000 A 
DOCKED: ENDBRANCH  10  12
DOCKED: ENDBRANCH   8  10
DOCKED: ENDBRANCH   1   8
DOCKED: BRANCH   3  18
DOCKED: ATOM     18  C   UNL     1      20.293 -10.137  -0.402 -0.61 -0.00    +0.000 C 
DOCKED: ATOM     19  C   UNL     1      21.003 -10.899   0.444 -0.69 -0.00    +0.000 C 
DOCKED: BRANCH  19  20
DOCKED: ATOM     20  C   UNL     1      20.502 -11.334   1.764 -0.76 -0.00    +0.000 C 
DOCKED: ATOM     21  N   UNL     1      20.638 -10.527   2.942 -0.63 -0.00    +0.000 N 
DOCKED: ATOM     22  O   UNL     1      19.960 -12.468   1.856 -1.69 -0.00    +0.000 OA
DOCKED: ATOM     23  H   UNL     1      21.159  -9.693   2.908 -0.59 -0.00    +0.000 HD
DOCKED: BRANCH  21  24
DOCKED: ATOM     24  O   UNL     1      20.051 -10.910   4.102 -0.71 -0.00    +0.000 OA
DOCKED: ATOM     25  H   UNL     1      19.709 -11.812   4.008 -0.07 -0.00    +0.000 HD
DOCKED: ENDBRANCH  21  24
DOCKED: ENDBRANCH  19  20
DOCKED: ENDBRANCH   3  18
DOCKED: TORSDOF 6
DOCKED: TER
DOCKED: ENDMDL
________________________________________________________________________________


	BEGINNING GENETIC ALGORITHM DOCKING 26 of 100
Run: 26 Seed: 749633714 1354600644 [ Run 26 of 100 GA/GALS ]
Beginning LAMARCKIAN GENETIC ALGORITHM (LGA), with a maximum of 2500000 energy evaluations.

Final-Value: -13.767


	FINAL GENETIC ALGORITHM DOCKED STATE
	_______________________________________________


Detailed state:  trans 21.480 -11.322 -2.330 quatxyzw 0.164656 -0.378353 0.874465 -0.255045 center 0.320 0.169 0.303 ntor 6 21.5007 -126.7697 -120.5376 6.4642 -78.6158 137.4328
State:	 21.480 -11.322  -2.330   0.170 -0.391  0.904 -150.447     21.50 -126.77 -120.54    6.46  -78.62  137.43

DOCKED: MODEL       26
DOCKED: USER    Run = 26
DOCKED: USER    DPF = ligand_dock.biased.dpf
DOCKED: USER  
DOCKED: USER    Estimated Free Energy of Binding    =  -10.37 kcal/mol  [=(1)+(2)+(3)-(4)]
DOCKED: USER    Estimated Inhibition Constant, Ki   =   24.97 nM (nanomolar)  [Temperature = 298.15 K]
DOCKED: USER    
DOCKED: USER    (1) Final Intermolecular Energy     =  -12.16 kcal/mol
DOCKED: USER        vdW + Hbond + desolv Energy     =  -12.16 kcal/mol
DOCKED: USER        Electrostatic Energy            =   +0.00 kcal/mol
DOCKED: USER    (2) Final Total Internal Energy     =   -1.61 kcal/mol
DOCKED: USER    (3) Torsional Free Energy           =   +1.79 kcal/mol
DOCKED: USER    (4) Unbound System's Energy  [=(2)] =   -1.61 kcal/mol
DOCKED: USER    
DOCKED: USER    
DOCKED: USER    NEWDPF move ligand.pdbqt
DOCKED: USER    NEWDPF about 0.320000 0.169000 0.303000
DOCKED: USER    NEWDPF tran0 21.480361 -11.322173 -2.329692
DOCKED: USER    NEWDPF quaternion0 0.164656 -0.378353 0.874465 -0.255045
DOCKED: USER    NEWDPF axisangle0 0.170288 -0.391293 0.904374 -150.447487
DOCKED: USER    NEWDPF quat0 0.170288 -0.391293 0.904374 -150.447487
DOCKED: USER    NEWDPF dihe0 21.50 -126.77 -120.54 6.46 -78.62 137.43 
DOCKED: USER  keepresnum = 1 
DOCKED: USER  
DOCKED: REMARK  Name = 
DOCKED: REMARK  6 active torsions:
DOCKED: REMARK  status: ('A' for Active; 'I' for Inactive)
DOCKED: REMARK    1  A    between atoms: S_2  and  N_3
DOCKED: REMARK    2  A    between atoms: S_2  and  C_10
DOCKED: REMARK    3  A    between atoms: N_3  and  C_4
DOCKED: REMARK    4  A    between atoms: C_12  and  C_13
DOCKED: REMARK    5  A    between atoms: C_14  and  C_15
DOCKED: REMARK    6  A    between atoms: N_16  and  O_17
DOCKED: REMARK                            x       y       z     vdW  Elec       q    Type
DOCKED: REMARK                         _______ _______ _______ _____ _____    ______ ____
DOCKED: USER                              x       y       z     vdW  Elec       q    Type
DOCKED: USER                           _______ _______ _______ _____ _____    ______ ____
DOCKED: ROOT
DOCKED: ATOM      1  C   UNL     1      21.371 -10.057  -4.310 -0.41 -0.00    +0.000 A 
DOCKED: ATOM      2  C   UNL     1      20.945 -10.658  -3.118 -0.44 -0.00    +0.000 A 
DOCKED: ATOM      3  C   UNL     1      20.736  -9.890  -1.960 -0.51 -0.00    +0.000 A 
DOCKED: ATOM      4  C   UNL     1      20.980  -8.502  -2.012 -0.43 -0.00    +0.000 A 
DOCKED: ATOM      5  C   UNL     1      21.398  -7.903  -3.203 -0.36 -0.00    +0.000 A 
DOCKED: ATOM      6  C   UNL     1      21.588  -8.675  -4.351 -0.29 -0.00    +0.000 A 
DOCKED: ENDROOT
DOCKED: BRANCH   1   8
DOCKED: ATOM      7  O   UNL     1      21.766 -12.492  -5.380 -0.83 -0.00    +0.000 OA
DOCKED: ATOM      8  S   UNL     1      21.635 -11.041  -5.747 -0.61 -0.00    +0.000 S 
DOCKED: ATOM      9  O   UNL     1      22.900 -10.588  -6.416 -0.40 -0.00    +0.000 OA
DOCKED: BRANCH   8  10
DOCKED: ATOM     10  N   UNL     1      20.306 -10.855  -6.851 -0.30 -0.00    +0.000 N 
DOCKED: ATOM     11  H   UNL     1      20.513 -10.701  -7.801 -0.04 -0.00    +0.000 HD
DOCKED: BRANCH  10  12
DOCKED: ATOM     12  C   UNL     1      18.923 -10.912  -6.459 -0.33 -0.00    +0.000 A 
DOCKED: ATOM     13  C   UNL     1      17.956 -11.591  -7.226 -0.28 -0.00    +0.000 A 
DOCKED: ATOM     14  C   UNL     1      16.623 -11.633  -6.809 -0.32 -0.00    +0.000 A 
DOCKED: ATOM     15  C   UNL     1      16.238 -10.996  -5.627 -0.24 -0.00    +0.000 A 
DOCKED: ATOM     16  C   UNL     1      17.186 -10.313  -4.862 -0.22 -0.00    +0.000 A 
DOCKED: ATOM     17  C   UNL     1      18.521 -10.270  -5.275 -0.26 -0.00    +0.000 A 
DOCKED: ENDBRANCH  10  12
DOCKED: ENDBRANCH   8  10
DOCKED: ENDBRANCH   1   8
DOCKED: BRANCH   3  18
DOCKED: ATOM     18  C   UNL     1      20.307 -10.581  -0.719 -0.60 -0.00    +0.000 C 
DOCKED: ATOM     19  C   UNL     1      20.986 -10.526   0.436 -0.69 -0.00    +0.000 C 
DOCKED: BRANCH  19  20
DOCKED: ATOM     20  C   UNL     1      20.554 -11.217   1.669 -0.74 -0.00    +0.000 C 
DOCKED: ATOM     21  N   UNL     1      20.641 -10.605   2.963 -0.64 -0.00    +0.000 N 
DOCKED: ATOM     22  O   UNL     1      20.120 -12.396   1.575 -1.68 -0.00    +0.000 OA
DOCKED: ATOM     23  H   UNL     1      21.083  -9.731   3.064 -0.59 -0.00    +0.000 HD
DOCKED: BRANCH  21  24
DOCKED: ATOM     24  O   UNL     1      20.115 -11.226   4.047 -0.81 -0.00    +0.000 OA
DOCKED: ATOM     25  H   UNL     1      20.030 -12.175   3.866 -0.14 -0.00    +0.000 HD
DOCKED: ENDBRANCH  21  24
DOCKED: ENDBRANCH  19  20
DOCKED: ENDBRANCH   3  18
DOCKED: TORSDOF 6
DOCKED: TER
DOCKED: ENDMDL
________________________________________________________________________________


	BEGINNING GENETIC ALGORITHM DOCKING 27 of 100
Run: 27 Seed: 894581765 269653643 [ Run 27 of 100 GA/GALS ]
Beginning LAMARCKIAN GENETIC ALGORITHM (LGA), with a maximum of 2500000 energy evaluations.

Final-Value: -14.665


	FINAL GENETIC ALGORITHM DOCKED STATE
	_______________________________________________


Detailed state:  trans 22.157 -10.910 -1.889 quatxyzw 0.279484 -0.269911 0.884978 -0.256613 center 0.320 0.169 0.303 ntor 6 25.4600 -52.1225 63.1354 101.7855 97.7099 105.1251
State:	 22.157 -10.910  -1.889   0.289 -0.279  0.916 -150.262     25.46  -52.12   63.14  101.79   97.71  105.13

DOCKED: MODEL       27
DOCKED: USER    Run = 27
DOCKED: USER    DPF = ligand_dock.biased.dpf
DOCKED: USER  
DOCKED: USER    Estimated Free Energy of Binding    =  -11.13 kcal/mol  [=(1)+(2)+(3)-(4)]
DOCKED: USER    Estimated Inhibition Constant, Ki   =    6.97 nM (nanomolar)  [Temperature = 298.15 K]
DOCKED: USER    
DOCKED: USER    (1) Final Intermolecular Energy     =  -12.92 kcal/mol
DOCKED: USER        vdW + Hbond + desolv Energy     =  -12.92 kcal/mol
DOCKED: USER        Electrostatic Energy            =   +0.00 kcal/mol
DOCKED: USER    (2) Final Total Internal Energy     =   -1.75 kcal/mol
DOCKED: USER    (3) Torsional Free Energy           =   +1.79 kcal/mol
DOCKED: USER    (4) Unbound System's Energy  [=(2)] =   -1.75 kcal/mol
DOCKED: USER    
DOCKED: USER    
DOCKED: USER    NEWDPF move ligand.pdbqt
DOCKED: USER    NEWDPF about 0.320000 0.169000 0.303000
DOCKED: USER    NEWDPF tran0 22.156851 -10.910142 -1.889322
DOCKED: USER    NEWDPF quaternion0 0.279484 -0.269911 0.884978 -0.256613
DOCKED: USER    NEWDPF axisangle0 0.289167 -0.279262 0.915639 -150.261615
DOCKED: USER    NEWDPF quat0 0.289167 -0.279262 0.915639 -150.261615
DOCKED: USER    NEWDPF dihe0 25.46 -52.12 63.14 101.79 97.71 105.13 
DOCKED: USER  keepresnum = 1 
DOCKED: USER  
DOCKED: REMARK  Name = 
DOCKED: REMARK  6 active torsions:
DOCKED: REMARK  status: ('A' for Active; 'I' for Inactive)
DOCKED: REMARK    1  A    between atoms: S_2  and  N_3
DOCKED: REMARK    2  A    between atoms: S_2  and  C_10
DOCKED: REMARK    3  A    between atoms: N_3  and  C_4
DOCKED: REMARK    4  A    between atoms: C_12  and  C_13
DOCKED: REMARK    5  A    between atoms: C_14  and  C_15
DOCKED: REMARK    6  A    between atoms: N_16  and  O_17
DOCKED: REMARK                            x       y       z     vdW  Elec       q    Type
DOCKED: REMARK                         _______ _______ _______ _____ _____    ______ ____
DOCKED: USER                              x       y       z     vdW  Elec       q    Type
DOCKED: USER                           _______ _______ _______ _____ _____    ______ ____
DOCKED: ROOT
DOCKED: ATOM      1  C   UNL     1      21.393  -9.983  -3.912 -0.43 -0.00    +0.000 A 
DOCKED: ATOM      2  C   UNL     1      21.358 -10.436  -2.587 -0.49 -0.00    +0.000 A 
DOCKED: ATOM      3  C   UNL     1      21.330  -9.525  -1.517 -0.53 -0.00    +0.000 A 
DOCKED: ATOM      4  C   UNL     1      21.355  -8.144  -1.799 -0.44 -0.00    +0.000 A 
DOCKED: ATOM      5  C   UNL     1      21.383  -7.694  -3.122 -0.37 -0.00    +0.000 A 
DOCKED: ATOM      6  C   UNL     1      21.397  -8.608  -4.176 -0.32 -0.00    +0.000 A 
DOCKED: ENDROOT
DOCKED: BRANCH   1   8
DOCKED: ATOM      7  O   UNL     1      22.515 -12.167  -5.011 -0.66 -0.00    +0.000 OA
DOCKED: ATOM      8  S   UNL     1      21.438 -11.142  -5.238 -0.66 -0.00    +0.000 S 
DOCKED: ATOM      9  O   UNL     1      21.724 -10.406  -6.514 -0.34 -0.00    +0.000 OA
DOCKED: BRANCH   8  10
DOCKED: ATOM     10  N   UNL     1      19.908 -11.952  -5.375 -0.45 -0.00    +0.000 N 
DOCKED: ATOM     11  H   UNL     1      19.909 -12.934  -5.442 -0.53 -0.00    +0.000 HD
DOCKED: BRANCH  10  12
DOCKED: ATOM     12  C   UNL     1      18.639 -11.273  -5.397 -0.35 -0.00    +0.000 A 
DOCKED: ATOM     13  C   UNL     1      18.174 -10.523  -4.299 -0.26 -0.00    +0.000 A 
DOCKED: ATOM     14  C   UNL     1      16.940  -9.870  -4.361 -0.21 -0.00    +0.000 A 
DOCKED: ATOM     15  C   UNL     1      16.156  -9.960  -5.513 -0.17 -0.00    +0.000 A 
DOCKED: ATOM     16  C   UNL     1      16.603 -10.706  -6.605 -0.24 -0.00    +0.000 A 
DOCKED: ATOM     17  C   UNL     1      17.838 -11.361  -6.548 -0.33 -0.00    +0.000 A 
DOCKED: ENDBRANCH  10  12
DOCKED: ENDBRANCH   8  10
DOCKED: ENDBRANCH   1   8
DOCKED: BRANCH   3  18
DOCKED: ATOM     18  C   UNL     1      21.315 -10.059  -0.132 -0.71 -0.00    +0.000 C 
DOCKED: ATOM     19  C   UNL     1      20.339 -10.841   0.353 -0.67 -0.00    +0.000 C 
DOCKED: BRANCH  19  20
DOCKED: ATOM     20  C   UNL     1      20.329 -11.370   1.732 -0.76 -0.00    +0.000 C 
DOCKED: ATOM     21  N   UNL     1      20.644 -10.556   2.870 -0.62 -0.00    +0.000 N 
DOCKED: ATOM     22  O   UNL     1      20.060 -12.590   1.905 -1.58 -0.00    +0.000 OA
DOCKED: ATOM     23  H   UNL     1      20.966  -9.635   2.740 -0.58 -0.00    +0.000 HD
DOCKED: BRANCH  21  24
DOCKED: ATOM     24  O   UNL     1      20.497 -11.051   4.123 -0.74 -0.00    +0.000 OA
DOCKED: ATOM     25  H   UNL     1      20.571 -12.017   4.100 -0.47 -0.00    +0.000 HD
DOCKED: ENDBRANCH  21  24
DOCKED: ENDBRANCH  19  20
DOCKED: ENDBRANCH   3  18
DOCKED: TORSDOF 6
DOCKED: TER
DOCKED: ENDMDL
________________________________________________________________________________


	BEGINNING GENETIC ALGORITHM DOCKING 28 of 100
Run: 28 Seed: 594005229 613661088 [ Run 28 of 100 GA/GALS ]
Beginning LAMARCKIAN GENETIC ALGORITHM (LGA), with a maximum of 2500000 energy evaluations.

Final-Value: -12.839


	FINAL GENETIC ALGORITHM DOCKED STATE
	_______________________________________________


Detailed state:  trans 16.321 -7.998 3.912 quatxyzw -0.274536 0.809133 -0.257318 -0.451355 center 0.320 0.169 0.303 ntor 6 -12.8999 -24.7835 -149.2827 -159.7945 -114.3175 6.5166
State:	 16.321  -7.998   3.912  -0.308  0.907 -0.288 -126.339    -12.90  -24.78 -149.28 -159.79 -114.32    6.52

DOCKED: MODEL       28
DOCKED: USER    Run = 28
DOCKED: USER    DPF = ligand_dock.biased.dpf
DOCKED: USER  
DOCKED: USER    Estimated Free Energy of Binding    =   -9.65 kcal/mol  [=(1)+(2)+(3)-(4)]
DOCKED: USER    Estimated Inhibition Constant, Ki   =   84.56 nM (nanomolar)  [Temperature = 298.15 K]
DOCKED: USER    
DOCKED: USER    (1) Final Intermolecular Energy     =  -11.44 kcal/mol
DOCKED: USER        vdW + Hbond + desolv Energy     =  -11.44 kcal/mol
DOCKED: USER        Electrostatic Energy            =   +0.00 kcal/mol
DOCKED: USER    (2) Final Total Internal Energy     =   -1.40 kcal/mol
DOCKED: USER    (3) Torsional Free Energy           =   +1.79 kcal/mol
DOCKED: USER    (4) Unbound System's Energy  [=(2)] =   -1.40 kcal/mol
DOCKED: USER    
DOCKED: USER    
DOCKED: USER    NEWDPF move ligand.pdbqt
DOCKED: USER    NEWDPF about 0.320000 0.169000 0.303000
DOCKED: USER    NEWDPF tran0 16.320691 -7.998427 3.911542
DOCKED: USER    NEWDPF quaternion0 -0.274536 0.809133 -0.257318 -0.451355
DOCKED: USER    NEWDPF axisangle0 -0.307656 0.906750 -0.288362 -126.338725
DOCKED: USER    NEWDPF quat0 -0.307656 0.906750 -0.288362 -126.338725
DOCKED: USER    NEWDPF dihe0 -12.90 -24.78 -149.28 -159.79 -114.32 6.52 
DOCKED: USER  keepresnum = 1 
DOCKED: USER  
DOCKED: REMARK  Name = 
DOCKED: REMARK  6 active torsions:
DOCKED: REMARK  status: ('A' for Active; 'I' for Inactive)
DOCKED: REMARK    1  A    between atoms: S_2  and  N_3
DOCKED: REMARK    2  A    between atoms: S_2  and  C_10
DOCKED: REMARK    3  A    between atoms: N_3  and  C_4
DOCKED: REMARK    4  A    between atoms: C_12  and  C_13
DOCKED: REMARK    5  A    between atoms: C_14  and  C_15
DOCKED: REMARK    6  A    between atoms: N_16  and  O_17
DOCKED: REMARK                            x       y       z     vdW  Elec       q    Type
DOCKED: REMARK                         _______ _______ _______ _____ _____    ______ ____
DOCKED: USER                              x       y       z     vdW  Elec       q    Type
DOCKED: USER                           _______ _______ _______ _____ _____    ______ ____
DOCKED: ROOT
DOCKED: ATOM      1  C   UNL     1      14.453  -6.973   4.909 -0.37 +0.00    +0.000 A 
DOCKED: ATOM      2  C   UNL     1      15.192  -7.734   3.994 -0.35 +0.00    +0.000 A 
DOCKED: ATOM      3  C   UNL     1      15.123  -9.138   4.005 -0.35 +0.00    +0.000 A 
DOCKED: ATOM      4  C   UNL     1      14.308  -9.771   4.966 -0.38 +0.00    +0.000 A 
DOCKED: ATOM      5  C   UNL     1      13.565  -9.010   5.873 -0.47 +0.00    +0.000 A 
DOCKED: ATOM      6  C   UNL     1      13.632  -7.616   5.843 -0.39 +0.00    +0.000 A 
DOCKED: ENDROOT
DOCKED: BRANCH   1   8
DOCKED: ATOM      7  O   UNL     1      14.380  -4.652   6.265 -0.90 +0.00    +0.000 OA
DOCKED: ATOM      8  S   UNL     1      14.563  -5.215   4.884 -0.54 +0.00    +0.000 S 
DOCKED: ATOM      9  O   UNL     1      13.484  -4.677   3.988 -0.24 +0.00    +0.000 OA
DOCKED: BRANCH   8  10
DOCKED: ATOM     10  N   UNL     1      16.112  -4.722   4.273 -0.39 -0.00    +0.000 N 
DOCKED: ATOM     11  H   UNL     1      16.888  -5.296   4.465 -0.60 -0.00    +0.000 HD
DOCKED: BRANCH  10  12
DOCKED: ATOM     12  C   UNL     1      16.328  -3.525   3.503 -0.37 -0.00    +0.000 A 
DOCKED: ATOM     13  C   UNL     1      15.380  -3.055   2.573 -0.29 -0.00    +0.000 A 
DOCKED: ATOM     14  C   UNL     1      15.621  -1.882   1.850 -0.26 -0.00    +0.000 A 
DOCKED: ATOM     15  C   UNL     1      16.808  -1.172   2.042 -0.30 -0.00    +0.000 A 
DOCKED: ATOM     16  C   UNL     1      17.757  -1.633   2.955 -0.38 -0.00    +0.000 A 
DOCKED: ATOM     17  C   UNL     1      17.520  -2.804   3.682 -0.38 -0.00    +0.000 A 
DOCKED: ENDBRANCH  10  12
DOCKED: ENDBRANCH   8  10
DOCKED: ENDBRANCH   1   8
DOCKED: BRANCH   3  18
DOCKED: ATOM     18  C   UNL     1      15.944  -9.895   3.028 -0.45 +0.00    +0.000 C 
DOCKED: ATOM     19  C   UNL     1      17.217 -10.256   3.249 -0.41 +0.00    +0.000 C 
DOCKED: BRANCH  19  20
DOCKED: ATOM     20  C   UNL     1      18.031 -11.010   2.273 -0.53 -0.00    +0.000 C 
DOCKED: ATOM     21  N   UNL     1      19.287 -11.610   2.619 -0.61 -0.00    +0.000 N 
DOCKED: ATOM     22  O   UNL     1      17.613 -11.102   1.087 -0.45 -0.00    +0.000 OA
DOCKED: ATOM     23  H   UNL     1      19.679 -11.449   3.507 -0.04 -0.00    +0.000 HD
DOCKED: BRANCH  21  24
DOCKED: ATOM     24  O   UNL     1      19.934 -12.399   1.727 -1.75 -0.00    +0.000 OA
DOCKED: ATOM     25  H   UNL     1      19.335 -12.620   0.998 -0.23 -0.00    +0.000 HD
DOCKED: ENDBRANCH  21  24
DOCKED: ENDBRANCH  19  20
DOCKED: ENDBRANCH   3  18
DOCKED: TORSDOF 6
DOCKED: TER
DOCKED: ENDMDL
________________________________________________________________________________


	BEGINNING GENETIC ALGORITHM DOCKING 29 of 100
Run: 29 Seed: 1214886033 720192012 [ Run 29 of 100 GA/GALS ]
Beginning LAMARCKIAN GENETIC ALGORITHM (LGA), with a maximum of 2500000 energy evaluations.

Final-Value: -13.265


	FINAL GENETIC ALGORITHM DOCKED STATE
	_______________________________________________


Detailed state:  trans 18.457 -10.950 -1.599 quatxyzw -0.861725 0.068477 0.466819 0.186604 center 0.320 0.169 0.303 ntor 6 7.2508 -42.1017 -18.9406 -20.6995 -89.0949 35.1491
State:	 18.457 -10.950  -1.599  -0.877  0.070  0.475 158.491      7.25  -42.10  -18.94  -20.70  -89.09   35.15

DOCKED: MODEL       29
DOCKED: USER    Run = 29
DOCKED: USER    DPF = ligand_dock.biased.dpf
DOCKED: USER  
DOCKED: USER    Estimated Free Energy of Binding    =   -9.67 kcal/mol  [=(1)+(2)+(3)-(4)]
DOCKED: USER    Estimated Inhibition Constant, Ki   =   81.34 nM (nanomolar)  [Temperature = 298.15 K]
DOCKED: USER    
DOCKED: USER    (1) Final Intermolecular Energy     =  -11.46 kcal/mol
DOCKED: USER        vdW + Hbond + desolv Energy     =  -11.46 kcal/mol
DOCKED: USER        Electrostatic Energy            =   +0.00 kcal/mol
DOCKED: USER    (2) Final Total Internal Energy     =   -1.80 kcal/mol
DOCKED: USER    (3) Torsional Free Energy           =   +1.79 kcal/mol
DOCKED: USER    (4) Unbound System's Energy  [=(2)] =   -1.80 kcal/mol
DOCKED: USER    
DOCKED: USER    
DOCKED: USER    NEWDPF move ligand.pdbqt
DOCKED: USER    NEWDPF about 0.320000 0.169000 0.303000
DOCKED: USER    NEWDPF tran0 18.457011 -10.949796 -1.599326
DOCKED: USER    NEWDPF quaternion0 -0.861725 0.068477 0.466819 0.186604
DOCKED: USER    NEWDPF axisangle0 -0.877131 0.069702 0.475165 158.490669
DOCKED: USER    NEWDPF quat0 -0.877131 0.069702 0.475165 158.490669
DOCKED: USER    NEWDPF dihe0 7.25 -42.10 -18.94 -20.70 -89.09 35.15 
DOCKED: USER  keepresnum = 1 
DOCKED: USER  
DOCKED: REMARK  Name = 
DOCKED: REMARK  6 active torsions:
DOCKED: REMARK  status: ('A' for Active; 'I' for Inactive)
DOCKED: REMARK    1  A    between atoms: S_2  and  N_3
DOCKED: REMARK    2  A    between atoms: S_2  and  C_10
DOCKED: REMARK    3  A    between atoms: N_3  and  C_4
DOCKED: REMARK    4  A    between atoms: C_12  and  C_13
DOCKED: REMARK    5  A    between atoms: C_14  and  C_15
DOCKED: REMARK    6  A    between atoms: N_16  and  O_17
DOCKED: REMARK                            x       y       z     vdW  Elec       q    Type
DOCKED: REMARK                         _______ _______ _______ _____ _____    ______ ____
DOCKED: USER                              x       y       z     vdW  Elec       q    Type
DOCKED: USER                           _______ _______ _______ _____ _____    ______ ____
DOCKED: ROOT
DOCKED: ATOM      1  C   UNL     1      20.106 -10.665   0.054 -0.56 -0.00    +0.000 A 
DOCKED: ATOM      2  C   UNL     1      19.513 -11.099  -1.139 -0.38 -0.00    +0.000 A 
DOCKED: ATOM      3  C   UNL     1      19.856 -10.507  -2.368 -0.42 -0.00    +0.000 A 
DOCKED: ATOM      4  C   UNL     1      20.795  -9.456  -2.378 -0.47 -0.00    +0.000 A 
DOCKED: ATOM      5  C   UNL     1      21.391  -9.030  -1.187 -0.51 -0.00    +0.000 A 
DOCKED: ATOM      6  C   UNL     1      21.053  -9.635   0.025 -0.56 -0.00    +0.000 A 
DOCKED: ENDROOT
DOCKED: BRANCH   1   8
DOCKED: ATOM      7  O   UNL     1      19.079 -10.393   2.525 -0.69 -0.00    +0.000 OA
DOCKED: ATOM      8  S   UNL     1      19.655 -11.414   1.584 -0.87 -0.00    +0.000 S 
DOCKED: ATOM      9  O   UNL     1      20.881 -12.018   2.206 -1.30 -0.00    +0.000 OA
DOCKED: BRANCH   8  10
DOCKED: ATOM     10  N   UNL     1      18.478 -12.662   1.314 -0.51 -0.00    +0.000 N 
DOCKED: ATOM     11  H   UNL     1      18.772 -13.598   1.389 -0.41 -0.00    +0.000 HD
DOCKED: BRANCH  10  12
DOCKED: ATOM     12  C   UNL     1      17.099 -12.409   0.987 -0.43 +0.00    +0.000 A 
DOCKED: ATOM     13  C   UNL     1      16.287 -11.571   1.775 -0.40 +0.00    +0.000 A 
DOCKED: ATOM     14  C   UNL     1      14.954 -11.341   1.421 -0.38 +0.00    +0.000 A 
DOCKED: ATOM     15  C   UNL     1      14.417 -11.946   0.283 -0.41 +0.00    +0.000 A 
DOCKED: ATOM     16  C   UNL     1      15.211 -12.785  -0.502 -0.48 +0.00    +0.000 A 
DOCKED: ATOM     17  C   UNL     1      16.545 -13.017  -0.152 -0.47 +0.00    +0.000 A 
DOCKED: ENDBRANCH  10  12
DOCKED: ENDBRANCH   8  10
DOCKED: ENDBRANCH   1   8
DOCKED: BRANCH   3  18
DOCKED: ATOM     18  C   UNL     1      19.181 -10.990  -3.598 -0.38 -0.00    +0.000 C 
DOCKED: ATOM     19  C   UNL     1      18.316 -10.251  -4.310 -0.30 -0.00    +0.000 C 
DOCKED: BRANCH  19  20
DOCKED: ATOM     20  C   UNL     1      17.646 -10.736  -5.535 -0.31 -0.00    +0.000 C 
DOCKED: ATOM     21  N   UNL     1      18.307 -11.576  -6.490 -0.39 -0.00    +0.000 N 
DOCKED: ATOM     22  O   UNL     1      16.460 -10.372  -5.754 -0.22 -0.00    +0.000 OA
DOCKED: ATOM     23  H   UNL     1      19.266 -11.774  -6.390 -0.17 -0.00    +0.000 HD
DOCKED: BRANCH  21  24
DOCKED: ATOM     24  O   UNL     1      17.615 -12.100  -7.531 -0.41 -0.00    +0.000 OA
DOCKED: ATOM     25  H   UNL     1      16.722 -11.722  -7.548 -0.03 -0.00    +0.000 HD
DOCKED: ENDBRANCH  21  24
DOCKED: ENDBRANCH  19  20
DOCKED: ENDBRANCH   3  18
DOCKED: TORSDOF 6
DOCKED: TER
DOCKED: ENDMDL
________________________________________________________________________________


	BEGINNING GENETIC ALGORITHM DOCKING 30 of 100
Run: 30 Seed: 191309526 1004311619 [ Run 30 of 100 GA/GALS ]
Beginning LAMARCKIAN GENETIC ALGORITHM (LGA), with a maximum of 2500000 energy evaluations.

Final-Value: -14.606


	FINAL GENETIC ALGORITHM DOCKED STATE
	_______________________________________________


Detailed state:  trans 17.289 -9.112 3.218 quatxyzw -0.128332 -0.437345 -0.851086 -0.260601 center 0.320 0.169 0.303 ntor 6 1.5456 12.2234 -180.0000 -9.3616 -129.2316 -62.3021
State:	 17.289  -9.112   3.218  -0.133 -0.453 -0.882 -149.789      1.55   12.22 -180.00   -9.36 -129.23  -62.30

DOCKED: MODEL       30
DOCKED: USER    Run = 30
DOCKED: USER    DPF = ligand_dock.biased.dpf
DOCKED: USER  
DOCKED: USER    Estimated Free Energy of Binding    =  -11.23 kcal/mol  [=(1)+(2)+(3)-(4)]
DOCKED: USER    Estimated Inhibition Constant, Ki   =    5.87 nM (nanomolar)  [Temperature = 298.15 K]
DOCKED: USER    
DOCKED: USER    (1) Final Intermolecular Energy     =  -13.02 kcal/mol
DOCKED: USER        vdW + Hbond + desolv Energy     =  -13.02 kcal/mol
DOCKED: USER        Electrostatic Energy            =   +0.00 kcal/mol
DOCKED: USER    (2) Final Total Internal Energy     =   -1.59 kcal/mol
DOCKED: USER    (3) Torsional Free Energy           =   +1.79 kcal/mol
DOCKED: USER    (4) Unbound System's Energy  [=(2)] =   -1.59 kcal/mol
DOCKED: USER    
DOCKED: USER    
DOCKED: USER    NEWDPF move ligand.pdbqt
DOCKED: USER    NEWDPF about 0.320000 0.169000 0.303000
DOCKED: USER    NEWDPF tran0 17.288684 -9.112496 3.217549
DOCKED: USER    NEWDPF quaternion0 -0.128332 -0.437345 -0.851086 -0.260601
DOCKED: USER    NEWDPF axisangle0 -0.132925 -0.452997 -0.881547 -149.788586
DOCKED: USER    NEWDPF quat0 -0.132925 -0.452997 -0.881547 -149.788586
DOCKED: USER    NEWDPF dihe0 1.55 12.22 -180.00 -9.36 -129.23 -62.30 
DOCKED: USER  keepresnum = 1 
DOCKED: USER  
DOCKED: REMARK  Name = 
DOCKED: REMARK  6 active torsions:
DOCKED: REMARK  status: ('A' for Active; 'I' for Inactive)
DOCKED: REMARK    1  A    between atoms: S_2  and  N_3
DOCKED: REMARK    2  A    between atoms: S_2  and  C_10
DOCKED: REMARK    3  A    between atoms: N_3  and  C_4
DOCKED: REMARK    4  A    between atoms: C_12  and  C_13
DOCKED: REMARK    5  A    between atoms: C_14  and  C_15
DOCKED: REMARK    6  A    between atoms: N_16  and  O_17
DOCKED: REMARK                            x       y       z     vdW  Elec       q    Type
DOCKED: REMARK                         _______ _______ _______ _____ _____    ______ ____
DOCKED: USER                              x       y       z     vdW  Elec       q    Type
DOCKED: USER                           _______ _______ _______ _____ _____    ______ ____
DOCKED: ROOT
DOCKED: ATOM      1  C   UNL     1      17.949 -11.020   2.010 -0.45 -0.00    +0.000 A 
DOCKED: ATOM      2  C   UNL     1      17.281 -10.247   2.969 -0.41 +0.00    +0.000 A 
DOCKED: ATOM      3  C   UNL     1      15.915  -9.950   2.827 -0.38 +0.00    +0.000 A 
DOCKED: ATOM      4  C   UNL     1      15.229 -10.430   1.692 -0.30 +0.00    +0.000 A 
DOCKED: ATOM      5  C   UNL     1      15.896 -11.207   0.740 -0.34 +0.00    +0.000 A 
DOCKED: ATOM      6  C   UNL     1      17.250 -11.507   0.900 -0.42 +0.00    +0.000 A 
DOCKED: ENDROOT
DOCKED: BRANCH   1   8
DOCKED: ATOM      7  O   UNL     1      19.975 -12.770   1.744 -1.53 -0.00    +0.000 OA
DOCKED: ATOM      8  S   UNL     1      19.665 -11.372   2.203 -0.90 -0.00    +0.000 S 
DOCKED: ATOM      9  O   UNL     1      20.024 -11.243   3.655 -0.85 -0.00    +0.000 OA
DOCKED: BRANCH   8  10
DOCKED: ATOM     10  N   UNL     1      20.613 -10.250   1.278 -0.57 -0.00    +0.000 N 
DOCKED: ATOM     11  H   UNL     1      21.232  -9.658   1.763 -0.55 -0.00    +0.000 HD
DOCKED: BRANCH  10  12
DOCKED: ATOM     12  C   UNL     1      20.548 -10.134  -0.155 -0.58 -0.00    +0.000 A 
DOCKED: ATOM     13  C   UNL     1      19.678 -10.926  -0.930 -0.45 -0.00    +0.000 A 
DOCKED: ATOM     14  C   UNL     1      19.636 -10.779  -2.320 -0.39 -0.00    +0.000 A 
DOCKED: ATOM     15  C   UNL     1      20.462  -9.846  -2.951 -0.43 -0.00    +0.000 A 
DOCKED: ATOM     16  C   UNL     1      21.334  -9.061  -2.194 -0.46 -0.00    +0.000 A 
DOCKED: ATOM     17  C   UNL     1      21.378  -9.204  -0.804 -0.54 -0.00    +0.000 A 
DOCKED: ENDBRANCH  10  12
DOCKED: ENDBRANCH   8  10
DOCKED: ENDBRANCH   1   8
DOCKED: BRANCH   3  18
DOCKED: ATOM     18  C   UNL     1      15.262  -9.109   3.860 -0.41 +0.00    +0.000 C 
DOCKED: ATOM     19  C   UNL     1      15.484  -7.792   3.996 -0.38 +0.00    +0.000 C 
DOCKED: BRANCH  19  20
DOCKED: ATOM     20  C   UNL     1      14.831  -6.959   5.027 -0.46 +0.00    +0.000 C 
DOCKED: ATOM     21  N   UNL     1      15.340  -5.675   5.412 -0.45 +0.00    +0.000 N 
DOCKED: ATOM     22  O   UNL     1      13.806  -7.411   5.604 -0.47 +0.00    +0.000 OA
DOCKED: ATOM     23  H   UNL     1      16.201  -5.360   5.053 -0.38 -0.00    +0.000 HD
DOCKED: BRANCH  21  24
DOCKED: ATOM     24  O   UNL     1      14.638  -4.892   6.267 -0.88 +0.00    +0.000 OA
DOCKED: ATOM     25  H   UNL     1      13.832  -5.356   6.541 -0.04 +0.00    +0.000 HD
DOCKED: ENDBRANCH  21  24
DOCKED: ENDBRANCH  19  20
DOCKED: ENDBRANCH   3  18
DOCKED: TORSDOF 6
DOCKED: TER
DOCKED: ENDMDL
________________________________________________________________________________


	BEGINNING GENETIC ALGORITHM DOCKING 31 of 100
Run: 31 Seed: 157007861 1806657030 [ Run 31 of 100 GA/GALS ]
Beginning LAMARCKIAN GENETIC ALGORITHM (LGA), with a maximum of 2500000 energy evaluations.

Final-Value: -12.925


	FINAL GENETIC ALGORITHM DOCKED STATE
	_______________________________________________


Detailed state:  trans 18.065 -10.344 -1.426 quatxyzw 0.798394 -0.207761 -0.558847 -0.084217 center 0.320 0.169 0.303 ntor 6 10.5685 121.4552 -178.6327 -20.6478 24.4094 57.5022
State:	 18.065 -10.344  -1.426   0.801 -0.209 -0.561 -170.338     10.57  121.46 -178.63  -20.65   24.41   57.50

DOCKED: MODEL       31
DOCKED: USER    Run = 31
DOCKED: USER    DPF = ligand_dock.biased.dpf
DOCKED: USER  
DOCKED: USER    Estimated Free Energy of Binding    =   -9.37 kcal/mol  [=(1)+(2)+(3)-(4)]
DOCKED: USER    Estimated Inhibition Constant, Ki   =  134.86 nM (nanomolar)  [Temperature = 298.15 K]
DOCKED: USER    
DOCKED: USER    (1) Final Intermolecular Energy     =  -11.16 kcal/mol
DOCKED: USER        vdW + Hbond + desolv Energy     =  -11.16 kcal/mol
DOCKED: USER        Electrostatic Energy            =   +0.00 kcal/mol
DOCKED: USER    (2) Final Total Internal Energy     =   -1.76 kcal/mol
DOCKED: USER    (3) Torsional Free Energy           =   +1.79 kcal/mol
DOCKED: USER    (4) Unbound System's Energy  [=(2)] =   -1.76 kcal/mol
DOCKED: USER    
DOCKED: USER    
DOCKED: USER    NEWDPF move ligand.pdbqt
DOCKED: USER    NEWDPF about 0.320000 0.169000 0.303000
DOCKED: USER    NEWDPF tran0 18.064553 -10.343894 -1.425724
DOCKED: USER    NEWDPF quaternion0 0.798394 -0.207761 -0.558847 -0.084217
DOCKED: USER    NEWDPF axisangle0 0.801240 -0.208502 -0.560839 -170.338050
DOCKED: USER    NEWDPF quat0 0.801240 -0.208502 -0.560839 -170.338050
DOCKED: USER    NEWDPF dihe0 10.57 121.46 -178.63 -20.65 24.41 57.50 
DOCKED: USER  keepresnum = 1 
DOCKED: USER  
DOCKED: REMARK  Name = 
DOCKED: REMARK  6 active torsions:
DOCKED: REMARK  status: ('A' for Active; 'I' for Inactive)
DOCKED: REMARK    1  A    between atoms: S_2  and  N_3
DOCKED: REMARK    2  A    between atoms: S_2  and  C_10
DOCKED: REMARK    3  A    between atoms: N_3  and  C_4
DOCKED: REMARK    4  A    between atoms: C_12  and  C_13
DOCKED: REMARK    5  A    between atoms: C_14  and  C_15
DOCKED: REMARK    6  A    between atoms: N_16  and  O_17
DOCKED: REMARK                            x       y       z     vdW  Elec       q    Type
DOCKED: REMARK                         _______ _______ _______ _____ _____    ______ ____
DOCKED: USER                              x       y       z     vdW  Elec       q    Type
DOCKED: USER                           _______ _______ _______ _____ _____    ______ ____
DOCKED: ROOT
DOCKED: ATOM      1  C   UNL     1      19.917 -10.792  -0.047 -0.54 -0.00    +0.000 A 
DOCKED: ATOM      2  C   UNL     1      19.043 -10.900  -1.136 -0.41 -0.00    +0.000 A 
DOCKED: ATOM      3  C   UNL     1      19.403 -10.399  -2.399 -0.37 -0.00    +0.000 A 
DOCKED: ATOM      4  C   UNL     1      20.655  -9.770  -2.549 -0.47 -0.00    +0.000 A 
DOCKED: ATOM      5  C   UNL     1      21.530  -9.669  -1.463 -0.43 -0.00    +0.000 A 
DOCKED: ATOM      6  C   UNL     1      21.166 -10.182  -0.217 -0.63 -0.00    +0.000 A 
DOCKED: ENDROOT
DOCKED: BRANCH   1   8
DOCKED: ATOM      7  O   UNL     1      18.905 -10.314   2.399 -0.65 -0.00    +0.000 OA
DOCKED: ATOM      8  S   UNL     1      19.441 -11.417   1.530 -0.84 -0.00    +0.000 S 
DOCKED: ATOM      9  O   UNL     1      20.645 -12.022   2.193 -1.44 -0.00    +0.000 OA
DOCKED: BRANCH   8  10
DOCKED: ATOM     10  N   UNL     1      18.217 -12.636   1.344 -0.49 +0.00    +0.000 N 
DOCKED: ATOM     11  H   UNL     1      18.476 -13.575   1.484 -0.34 -0.00    +0.000 HD
DOCKED: BRANCH  10  12
DOCKED: ATOM     12  C   UNL     1      16.849 -12.354   0.999 -0.43 +0.00    +0.000 A 
DOCKED: ATOM     13  C   UNL     1      16.308 -12.701  -0.255 -0.44 +0.00    +0.000 A 
DOCKED: ATOM     14  C   UNL     1      14.971 -12.418  -0.551 -0.45 +0.00    +0.000 A 
DOCKED: ATOM     15  C   UNL     1      14.163 -11.785   0.396 -0.39 +0.00    +0.000 A 
DOCKED: ATOM     16  C   UNL     1      14.690 -11.429   1.638 -0.40 +0.00    +0.000 A 
DOCKED: ATOM     17  C   UNL     1      16.026 -11.711   1.939 -0.39 +0.00    +0.000 A 
DOCKED: ENDBRANCH  10  12
DOCKED: ENDBRANCH   8  10
DOCKED: ENDBRANCH   1   8
DOCKED: BRANCH   3  18
DOCKED: ATOM     18  C   UNL     1      18.430 -10.521  -3.513 -0.31 -0.00    +0.000 C 
DOCKED: ATOM     19  C   UNL     1      18.758 -10.938  -4.745 -0.37 -0.00    +0.000 C 
DOCKED: BRANCH  19  20
DOCKED: ATOM     20  C   UNL     1      17.784 -11.057  -5.850 -0.35 -0.00    +0.000 C 
DOCKED: ATOM     21  N   UNL     1      18.189 -11.157  -7.222 -0.35 -0.00    +0.000 N 
DOCKED: ATOM     22  O   UNL     1      16.555 -11.041  -5.572 -0.30 -0.00    +0.000 OA
DOCKED: ATOM     23  H   UNL     1      19.138 -11.055  -7.463 -0.03 -0.00    +0.000 HD
DOCKED: BRANCH  21  24
DOCKED: ATOM     24  O   UNL     1      17.268 -11.393  -8.189 -0.33 -0.00    +0.000 OA
DOCKED: ATOM     25  H   UNL     1      16.378 -11.303  -7.815 -0.01 -0.00    +0.000 HD
DOCKED: ENDBRANCH  21  24
DOCKED: ENDBRANCH  19  20
DOCKED: ENDBRANCH   3  18
DOCKED: TORSDOF 6
DOCKED: TER
DOCKED: ENDMDL
________________________________________________________________________________


	BEGINNING GENETIC ALGORITHM DOCKING 32 of 100
Run: 32 Seed: 2110719416 1897100617 [ Run 32 of 100 GA/GALS ]
Beginning LAMARCKIAN GENETIC ALGORITHM (LGA), with a maximum of 2500000 energy evaluations.

Final-Value: -12.704


	FINAL GENETIC ALGORITHM DOCKED STATE
	_______________________________________________


Detailed state:  trans 18.745 -10.172 -1.424 quatxyzw 0.388289 -0.188753 0.782965 0.447851 center 0.320 0.169 0.303 ntor 6 29.2378 117.6774 -139.9127 27.4958 -124.0781 24.8095
State:	 18.745 -10.172  -1.424   0.434 -0.211  0.876 126.788     29.24  117.68 -139.91   27.50 -124.08   24.81

DOCKED: MODEL       32
DOCKED: USER    Run = 32
DOCKED: USER    DPF = ligand_dock.biased.dpf
DOCKED: USER  
DOCKED: USER    Estimated Free Energy of Binding    =   -8.97 kcal/mol  [=(1)+(2)+(3)-(4)]
DOCKED: USER    Estimated Inhibition Constant, Ki   =  267.15 nM (nanomolar)  [Temperature = 298.15 K]
DOCKED: USER    
DOCKED: USER    (1) Final Intermolecular Energy     =  -10.76 kcal/mol
DOCKED: USER        vdW + Hbond + desolv Energy     =  -10.76 kcal/mol
DOCKED: USER        Electrostatic Energy            =   +0.00 kcal/mol
DOCKED: USER    (2) Final Total Internal Energy     =   -1.95 kcal/mol
DOCKED: USER    (3) Torsional Free Energy           =   +1.79 kcal/mol
DOCKED: USER    (4) Unbound System's Energy  [=(2)] =   -1.95 kcal/mol
DOCKED: USER    
DOCKED: USER    
DOCKED: USER    NEWDPF move ligand.pdbqt
DOCKED: USER    NEWDPF about 0.320000 0.169000 0.303000
DOCKED: USER    NEWDPF tran0 18.745043 -10.172019 -1.424201
DOCKED: USER    NEWDPF quaternion0 0.388289 -0.188753 0.782965 0.447851
DOCKED: USER    NEWDPF axisangle0 0.434275 -0.211108 0.875693 126.788254
DOCKED: USER    NEWDPF quat0 0.434275 -0.211108 0.875693 126.788254
DOCKED: USER    NEWDPF dihe0 29.24 117.68 -139.91 27.50 -124.08 24.81 
DOCKED: USER  keepresnum = 1 
DOCKED: USER  
DOCKED: REMARK  Name = 
DOCKED: REMARK  6 active torsions:
DOCKED: REMARK  status: ('A' for Active; 'I' for Inactive)
DOCKED: REMARK    1  A    between atoms: S_2  and  N_3
DOCKED: REMARK    2  A    between atoms: S_2  and  C_10
DOCKED: REMARK    3  A    between atoms: N_3  and  C_4
DOCKED: REMARK    4  A    between atoms: C_12  and  C_13
DOCKED: REMARK    5  A    between atoms: C_14  and  C_15
DOCKED: REMARK    6  A    between atoms: N_16  and  O_17
DOCKED: REMARK                            x       y       z     vdW  Elec       q    Type
DOCKED: REMARK                         _______ _______ _______ _____ _____    ______ ____
DOCKED: USER                              x       y       z     vdW  Elec       q    Type
DOCKED: USER                           _______ _______ _______ _____ _____    ______ ____
DOCKED: ROOT
DOCKED: ATOM      1  C   UNL     1      17.384 -10.150  -3.343 -0.23 -0.00    +0.000 A 
DOCKED: ATOM      2  C   UNL     1      18.044 -10.655  -2.214 -0.21 -0.00    +0.000 A 
DOCKED: ATOM      3  C   UNL     1      17.333 -10.945  -1.037 -0.30 -0.00    +0.000 A 
DOCKED: ATOM      4  C   UNL     1      15.944 -10.703  -1.004 -0.28 -0.00    +0.000 A 
DOCKED: ATOM      5  C   UNL     1      15.287 -10.206  -2.133 -0.25 -0.00    +0.000 A 
DOCKED: ATOM      6  C   UNL     1      16.002  -9.935  -3.301 -0.22 -0.00    +0.000 A 
DOCKED: ENDROOT
DOCKED: BRANCH   1   8
DOCKED: ATOM      7  O   UNL     1      17.969  -8.405  -5.304 -0.15 -0.00    +0.000 OA
DOCKED: ATOM      8  S   UNL     1      18.296  -9.785  -4.805 -0.31 -0.00    +0.000 S 
DOCKED: ATOM      9  O   UNL     1      17.935 -10.787  -5.863 -0.32 -0.00    +0.000 OA
DOCKED: BRANCH   8  10
DOCKED: ATOM     10  N   UNL     1      20.001  -9.880  -4.485 -0.28 -0.00    +0.000 N 
DOCKED: ATOM     11  H   UNL     1      20.602 -10.080  -5.239 +0.00 -0.00    +0.000 HD
DOCKED: BRANCH  10  12
DOCKED: ATOM     12  C   UNL     1      20.586  -9.686  -3.185 -0.42 -0.00    +0.000 A 
DOCKED: ATOM     13  C   UNL     1      21.093 -10.759  -2.426 -0.38 -0.00    +0.000 A 
DOCKED: ATOM     14  C   UNL     1      21.663 -10.530  -1.170 -0.49 -0.00    +0.000 A 
DOCKED: ATOM     15  C   UNL     1      21.729  -9.233  -0.657 -0.29 -0.00    +0.000 A 
DOCKED: ATOM     16  C   UNL     1      21.223  -8.162  -1.396 -0.37 -0.00    +0.000 A 
DOCKED: ATOM     17  C   UNL     1      20.653  -8.387  -2.654 -0.35 -0.00    +0.000 A 
DOCKED: ENDBRANCH  10  12
DOCKED: ENDBRANCH   8  10
DOCKED: ENDBRANCH   1   8
DOCKED: BRANCH   3  18
DOCKED: ATOM     18  C   UNL     1      18.084 -11.456   0.136 -0.50 -0.00    +0.000 C 
DOCKED: ATOM     19  C   UNL     1      18.830 -10.680   0.937 -0.51 -0.00    +0.000 C 
DOCKED: BRANCH  19  20
DOCKED: ATOM     20  C   UNL     1      19.577 -11.194   2.104 -0.70 -0.00    +0.000 C 
DOCKED: ATOM     21  N   UNL     1      19.980 -10.350   3.191 -0.64 -0.00    +0.000 N 
DOCKED: ATOM     22  O   UNL     1      19.891 -12.414   2.125 -1.69 -0.00    +0.000 OA
DOCKED: ATOM     23  H   UNL     1      19.842  -9.377   3.134 -0.58 -0.00    +0.000 HD
DOCKED: BRANCH  21  24
DOCKED: ATOM     24  O   UNL     1      20.548 -10.889   4.297 -0.75 -0.00    +0.000 OA
DOCKED: ATOM     25  H   UNL     1      21.023 -11.698   4.054 -0.53 -0.00    +0.000 HD
DOCKED: ENDBRANCH  21  24
DOCKED: ENDBRANCH  19  20
DOCKED: ENDBRANCH   3  18
DOCKED: TORSDOF 6
DOCKED: TER
DOCKED: ENDMDL
________________________________________________________________________________


	BEGINNING GENETIC ALGORITHM DOCKING 33 of 100
Run: 33 Seed: 234778907 1516039122 [ Run 33 of 100 GA/GALS ]
Beginning LAMARCKIAN GENETIC ALGORITHM (LGA), with a maximum of 2500000 energy evaluations.

Final-Value: -13.743


	FINAL GENETIC ALGORITHM DOCKED STATE
	_______________________________________________


Detailed state:  trans 20.702 -8.146 -0.490 quatxyzw -0.150327 0.037380 0.469225 0.869387 center 0.320 0.169 0.303 ntor 6 16.9828 -164.5607 157.0634 -146.6551 -135.8014 -28.0822
State:	 20.702  -8.146  -0.490  -0.304  0.076  0.950 59.225     16.98 -164.56  157.06 -146.66 -135.80  -28.08

DOCKED: MODEL       33
DOCKED: USER    Run = 33
DOCKED: USER    DPF = ligand_dock.biased.dpf
DOCKED: USER  
DOCKED: USER    Estimated Free Energy of Binding    =  -10.52 kcal/mol  [=(1)+(2)+(3)-(4)]
DOCKED: USER    Estimated Inhibition Constant, Ki   =   19.51 nM (nanomolar)  [Temperature = 298.15 K]
DOCKED: USER    
DOCKED: USER    (1) Final Intermolecular Energy     =  -12.31 kcal/mol
DOCKED: USER        vdW + Hbond + desolv Energy     =  -12.31 kcal/mol
DOCKED: USER        Electrostatic Energy            =   +0.00 kcal/mol
DOCKED: USER    (2) Final Total Internal Energy     =   -1.44 kcal/mol
DOCKED: USER    (3) Torsional Free Energy           =   +1.79 kcal/mol
DOCKED: USER    (4) Unbound System's Energy  [=(2)] =   -1.44 kcal/mol
DOCKED: USER    
DOCKED: USER    
DOCKED: USER    NEWDPF move ligand.pdbqt
DOCKED: USER    NEWDPF about 0.320000 0.169000 0.303000
DOCKED: USER    NEWDPF tran0 20.702464 -8.145708 -0.489547
DOCKED: USER    NEWDPF quaternion0 -0.150327 0.037380 0.469225 0.869387
DOCKED: USER    NEWDPF axisangle0 -0.304223 0.075647 0.949592 59.225146
DOCKED: USER    NEWDPF quat0 -0.304223 0.075647 0.949592 59.225146
DOCKED: USER    NEWDPF dihe0 16.98 -164.56 157.06 -146.66 -135.80 -28.08 
DOCKED: USER  keepresnum = 1 
DOCKED: USER  
DOCKED: REMARK  Name = 
DOCKED: REMARK  6 active torsions:
DOCKED: REMARK  status: ('A' for Active; 'I' for Inactive)
DOCKED: REMARK    1  A    between atoms: S_2  and  N_3
DOCKED: REMARK    2  A    between atoms: S_2  and  C_10
DOCKED: REMARK    3  A    between atoms: N_3  and  C_4
DOCKED: REMARK    4  A    between atoms: C_12  and  C_13
DOCKED: REMARK    5  A    between atoms: C_14  and  C_15
DOCKED: REMARK    6  A    between atoms: N_16  and  O_17
DOCKED: REMARK                            x       y       z     vdW  Elec       q    Type
DOCKED: REMARK                         _______ _______ _______ _____ _____    ______ ____
DOCKED: USER                              x       y       z     vdW  Elec       q    Type
DOCKED: USER                           _______ _______ _______ _____ _____    ______ ____
DOCKED: ROOT
DOCKED: ATOM      1  C   UNL     1      21.291  -7.016  -2.468 -0.41 -0.00    +0.000 A 
DOCKED: ATOM      2  C   UNL     1      21.374  -7.936  -1.414 -0.31 -0.00    +0.000 A 
DOCKED: ATOM      3  C   UNL     1      21.077  -9.294  -1.622 -0.53 -0.00    +0.000 A 
DOCKED: ATOM      4  C   UNL     1      20.677  -9.714  -2.907 -0.45 -0.00    +0.000 A 
DOCKED: ATOM      5  C   UNL     1      20.602  -8.796  -3.958 -0.32 -0.00    +0.000 A 
DOCKED: ATOM      6  C   UNL     1      20.912  -7.453  -3.743 -0.30 -0.00    +0.000 A 
DOCKED: ENDROOT
DOCKED: BRANCH   1   8
DOCKED: ATOM      7  O   UNL     1      21.578  -4.534  -3.464 -0.19 -0.00    +0.000 OA
DOCKED: ATOM      8  S   UNL     1      21.658  -5.317  -2.183 -0.53 -0.00    +0.000 S 
DOCKED: ATOM      9  O   UNL     1      23.049  -5.210  -1.628 -0.67 +0.00    +0.000 OA
DOCKED: BRANCH   8  10
DOCKED: ATOM     10  N   UNL     1      20.534  -4.646  -1.040 -0.46 +0.00    +0.000 N 
DOCKED: ATOM     11  H   UNL     1      19.682  -5.118  -0.900 -0.06 -0.00    +0.000 HD
DOCKED: BRANCH  10  12
DOCKED: ATOM     12  C   UNL     1      20.775  -3.443  -0.288 -0.38 +0.00    +0.000 A 
DOCKED: ATOM     13  C   UNL     1      19.874  -2.981   0.690 -0.33 +0.00    +0.000 A 
DOCKED: ATOM     14  C   UNL     1      20.147  -1.812   1.408 -0.40 -0.00    +0.000 A 
DOCKED: ATOM     15  C   UNL     1      21.316  -1.091   1.154 -0.34 -0.00    +0.000 A 
DOCKED: ATOM     16  C   UNL     1      22.213  -1.536   0.181 -0.29 -0.00    +0.000 A 
DOCKED: ATOM     17  C   UNL     1      21.945  -2.705  -0.538 -0.32 +0.00    +0.000 A 
DOCKED: ENDBRANCH  10  12
DOCKED: ENDBRANCH   8  10
DOCKED: ENDBRANCH   1   8
DOCKED: BRANCH   3  18
DOCKED: ATOM     18  C   UNL     1      21.160 -10.222  -0.466 -0.71 -0.00    +0.000 C 
DOCKED: ATOM     19  C   UNL     1      20.352 -10.151   0.603 -0.63 -0.00    +0.000 C 
DOCKED: BRANCH  19  20
DOCKED: ATOM     20  C   UNL     1      20.439 -11.077   1.752 -0.73 -0.00    +0.000 C 
DOCKED: ATOM     21  N   UNL     1      20.308 -10.633   3.108 -0.69 -0.00    +0.000 N 
DOCKED: ATOM     22  O   UNL     1      20.664 -12.296   1.524 -1.43 -0.00    +0.000 OA
DOCKED: ATOM     23  H   UNL     1      20.247  -9.670   3.306 -0.56 -0.00    +0.000 HD
DOCKED: BRANCH  21  24
DOCKED: ATOM     24  O   UNL     1      20.265 -11.534   4.120 -0.80 -0.00    +0.000 OA
DOCKED: ATOM     25  H   UNL     1      20.598 -12.388   3.805 -0.49 -0.00    +0.000 HD
DOCKED: ENDBRANCH  21  24
DOCKED: ENDBRANCH  19  20
DOCKED: ENDBRANCH   3  18
DOCKED: TORSDOF 6
DOCKED: TER
DOCKED: ENDMDL
________________________________________________________________________________


	BEGINNING GENETIC ALGORITHM DOCKING 34 of 100
Run: 34 Seed: 2095811257 112968176 [ Run 34 of 100 GA/GALS ]
Beginning LAMARCKIAN GENETIC ALGORITHM (LGA), with a maximum of 2500000 energy evaluations.

Final-Value: -14.659


	FINAL GENETIC ALGORITHM DOCKED STATE
	_______________________________________________


Detailed state:  trans 21.559 -11.244 -1.920 quatxyzw -0.306166 0.275799 -0.832118 0.371184 center 0.320 0.169 0.303 ntor 6 29.7984 34.0692 72.9725 -17.4235 100.3977 -56.6781
State:	 21.559 -11.244  -1.920  -0.330  0.297 -0.896 136.423     29.80   34.07   72.97  -17.42  100.40  -56.68

DOCKED: MODEL       34
DOCKED: USER    Run = 34
DOCKED: USER    DPF = ligand_dock.biased.dpf
DOCKED: USER  
DOCKED: USER    Estimated Free Energy of Binding    =  -11.36 kcal/mol  [=(1)+(2)+(3)-(4)]
DOCKED: USER    Estimated Inhibition Constant, Ki   =    4.74 nM (nanomolar)  [Temperature = 298.15 K]
DOCKED: USER    
DOCKED: USER    (1) Final Intermolecular Energy     =  -13.15 kcal/mol
DOCKED: USER        vdW + Hbond + desolv Energy     =  -13.15 kcal/mol
DOCKED: USER        Electrostatic Energy            =   +0.00 kcal/mol
DOCKED: USER    (2) Final Total Internal Energy     =   -1.51 kcal/mol
DOCKED: USER    (3) Torsional Free Energy           =   +1.79 kcal/mol
DOCKED: USER    (4) Unbound System's Energy  [=(2)] =   -1.51 kcal/mol
DOCKED: USER    
DOCKED: USER    
DOCKED: USER    NEWDPF move ligand.pdbqt
DOCKED: USER    NEWDPF about 0.320000 0.169000 0.303000
DOCKED: USER    NEWDPF tran0 21.558621 -11.243658 -1.920147
DOCKED: USER    NEWDPF quaternion0 -0.306166 0.275799 -0.832118 0.371184
DOCKED: USER    NEWDPF axisangle0 -0.329721 0.297018 -0.896138 136.422675
DOCKED: USER    NEWDPF quat0 -0.329721 0.297018 -0.896138 136.422675
DOCKED: USER    NEWDPF dihe0 29.80 34.07 72.97 -17.42 100.40 -56.68 
DOCKED: USER  keepresnum = 1 
DOCKED: USER  
DOCKED: REMARK  Name = 
DOCKED: REMARK  6 active torsions:
DOCKED: REMARK  status: ('A' for Active; 'I' for Inactive)
DOCKED: REMARK    1  A    between atoms: S_2  and  N_3
DOCKED: REMARK    2  A    between atoms: S_2  and  C_10
DOCKED: REMARK    3  A    between atoms: N_3  and  C_4
DOCKED: REMARK    4  A    between atoms: C_12  and  C_13
DOCKED: REMARK    5  A    between atoms: C_14  and  C_15
DOCKED: REMARK    6  A    between atoms: N_16  and  O_17
DOCKED: REMARK                            x       y       z     vdW  Elec       q    Type
DOCKED: REMARK                         _______ _______ _______ _____ _____    ______ ____
DOCKED: USER                              x       y       z     vdW  Elec       q    Type
DOCKED: USER                           _______ _______ _______ _____ _____    ______ ____
DOCKED: ROOT
DOCKED: ATOM      1  C   UNL     1      20.747 -10.165  -3.847 -0.42 -0.00    +0.000 A 
DOCKED: ATOM      2  C   UNL     1      20.794 -10.604  -2.517 -0.45 -0.00    +0.000 A 
DOCKED: ATOM      3  C   UNL     1      21.109  -9.713  -1.477 -0.56 -0.00    +0.000 A 
DOCKED: ATOM      4  C   UNL     1      21.394  -8.369  -1.796 -0.45 -0.00    +0.000 A 
DOCKED: ATOM      5  C   UNL     1      21.339  -7.932  -3.122 -0.37 -0.00    +0.000 A 
DOCKED: ATOM      6  C   UNL     1      21.011  -8.824  -4.145 -0.33 -0.00    +0.000 A 
DOCKED: ENDROOT
DOCKED: BRANCH   1   8
DOCKED: ATOM      7  O   UNL     1      19.628 -10.610  -6.252 -0.33 -0.00    +0.000 OA
DOCKED: ATOM      8  S   UNL     1      20.359 -11.302  -5.136 -0.62 -0.00    +0.000 S 
DOCKED: ATOM      9  O   UNL     1      19.486 -12.387  -4.576 -0.56 -0.00    +0.000 OA
DOCKED: BRANCH   8  10
DOCKED: ATOM     10  N   UNL     1      21.815 -12.009  -5.767 -0.48 -0.00    +0.000 N 
DOCKED: ATOM     11  H   UNL     1      21.989 -12.958  -5.573 -0.44 -0.00    +0.000 HD
DOCKED: BRANCH  10  12
DOCKED: ATOM     12  C   UNL     1      22.780 -11.290  -6.555 -0.39 -0.00    +0.000 A 
DOCKED: ATOM     13  C   UNL     1      22.891  -9.886  -6.503 -0.24 -0.00    +0.000 A 
DOCKED: ATOM     14  C   UNL     1      23.848  -9.223  -7.278 -0.23 -0.00    +0.000 A 
DOCKED: ATOM     15  C   UNL     1      24.698  -9.949  -8.114 -0.26 -0.00    +0.000 A 
DOCKED: ATOM     16  C   UNL     1      24.593 -11.340  -8.180 -0.38 -0.00    +0.000 A 
DOCKED: ATOM     17  C   UNL     1      23.639 -12.008  -7.406 -0.48 -0.00    +0.000 A 
DOCKED: ENDBRANCH  10  12
DOCKED: ENDBRANCH   8  10
DOCKED: ENDBRANCH   1   8
DOCKED: BRANCH   3  18
DOCKED: ATOM     18  C   UNL     1      21.167 -10.236  -0.090 -0.71 -0.00    +0.000 C 
DOCKED: ATOM     19  C   UNL     1      20.135 -10.835   0.523 -0.66 -0.00    +0.000 C 
DOCKED: BRANCH  19  20
DOCKED: ATOM     20  C   UNL     1      20.198 -11.354   1.905 -0.76 -0.00    +0.000 C 
DOCKED: ATOM     21  N   UNL     1      20.591 -10.537   3.016 -0.64 -0.00    +0.000 N 
DOCKED: ATOM     22  O   UNL     1      19.922 -12.568   2.103 -1.60 -0.00    +0.000 OA
DOCKED: ATOM     23  H   UNL     1      20.919  -9.622   2.860 -0.59 -0.00    +0.000 HD
DOCKED: BRANCH  21  24
DOCKED: ATOM     24  O   UNL     1      20.510 -11.020   4.279 -0.71 -0.00    +0.000 OA
DOCKED: ATOM     25  H   UNL     1      20.637 -11.981   4.266 -0.48 -0.00    +0.000 HD
DOCKED: ENDBRANCH  21  24
DOCKED: ENDBRANCH  19  20
DOCKED: ENDBRANCH   3  18
DOCKED: TORSDOF 6
DOCKED: TER
DOCKED: ENDMDL
________________________________________________________________________________


	BEGINNING GENETIC ALGORITHM DOCKING 35 of 100
Run: 35 Seed: 821345690 1663062688 [ Run 35 of 100 GA/GALS ]
Beginning LAMARCKIAN GENETIC ALGORITHM (LGA), with a maximum of 2500000 energy evaluations.

Final-Value: -14.434


	FINAL GENETIC ALGORITHM DOCKED STATE
	_______________________________________________


Detailed state:  trans 17.340 -8.637 2.464 quatxyzw -0.201434 -0.577062 -0.759667 -0.222101 center 0.320 0.169 0.303 ntor 6 3.1372 11.9118 -76.8032 -6.4330 120.9079 -44.0691
State:	 17.340  -8.637   2.464  -0.207 -0.592 -0.779 -154.335      3.14   11.91  -76.80   -6.43  120.91  -44.07

DOCKED: MODEL       35
DOCKED: USER    Run = 35
DOCKED: USER    DPF = ligand_dock.biased.dpf
DOCKED: USER  
DOCKED: USER    Estimated Free Energy of Binding    =  -10.96 kcal/mol  [=(1)+(2)+(3)-(4)]
DOCKED: USER    Estimated Inhibition Constant, Ki   =    9.32 nM (nanomolar)  [Temperature = 298.15 K]
DOCKED: USER    
DOCKED: USER    (1) Final Intermolecular Energy     =  -12.75 kcal/mol
DOCKED: USER        vdW + Hbond + desolv Energy     =  -12.75 kcal/mol
DOCKED: USER        Electrostatic Energy            =   +0.00 kcal/mol
DOCKED: USER    (2) Final Total Internal Energy     =   -1.69 kcal/mol
DOCKED: USER    (3) Torsional Free Energy           =   +1.79 kcal/mol
DOCKED: USER    (4) Unbound System's Energy  [=(2)] =   -1.69 kcal/mol
DOCKED: USER    
DOCKED: USER    
DOCKED: USER    NEWDPF move ligand.pdbqt
DOCKED: USER    NEWDPF about 0.320000 0.169000 0.303000
DOCKED: USER    NEWDPF tran0 17.339645 -8.637020 2.464059
DOCKED: USER    NEWDPF quaternion0 -0.201434 -0.577062 -0.759667 -0.222101
DOCKED: USER    NEWDPF axisangle0 -0.206594 -0.591845 -0.779127 -154.335057
DOCKED: USER    NEWDPF quat0 -0.206594 -0.591845 -0.779127 -154.335057
DOCKED: USER    NEWDPF dihe0 3.14 11.91 -76.80 -6.43 120.91 -44.07 
DOCKED: USER  keepresnum = 1 
DOCKED: USER  
DOCKED: REMARK  Name = 
DOCKED: REMARK  6 active torsions:
DOCKED: REMARK  status: ('A' for Active; 'I' for Inactive)
DOCKED: REMARK    1  A    between atoms: S_2  and  N_3
DOCKED: REMARK    2  A    between atoms: S_2  and  C_10
DOCKED: REMARK    3  A    between atoms: N_3  and  C_4
DOCKED: REMARK    4  A    between atoms: C_12  and  C_13
DOCKED: REMARK    5  A    between atoms: C_14  and  C_15
DOCKED: REMARK    6  A    between atoms: N_16  and  O_17
DOCKED: REMARK                            x       y       z     vdW  Elec       q    Type
DOCKED: REMARK                         _______ _______ _______ _____ _____    ______ ____
DOCKED: USER                              x       y       z     vdW  Elec       q    Type
DOCKED: USER                           _______ _______ _______ _____ _____    ______ ____
DOCKED: ROOT
DOCKED: ATOM      1  C   UNL     1      17.868 -10.883   2.005 -0.45 -0.00    +0.000 A 
DOCKED: ATOM      2  C   UNL     1      17.278  -9.783   2.641 -0.40 +0.00    +0.000 A 
DOCKED: ATOM      3  C   UNL     1      15.918  -9.485   2.446 -0.34 +0.00    +0.000 A 
DOCKED: ATOM      4  C   UNL     1      15.160 -10.303   1.583 -0.29 +0.00    +0.000 A 
DOCKED: ATOM      5  C   UNL     1      15.749 -11.404   0.954 -0.36 +0.00    +0.000 A 
DOCKED: ATOM      6  C   UNL     1      17.097 -11.697   1.167 -0.42 +0.00    +0.000 A 
DOCKED: ENDROOT
DOCKED: BRANCH   1   8
DOCKED: ATOM      7  O   UNL     1      19.887 -12.656   1.887 -1.60 -0.00    +0.000 OA
DOCKED: ATOM      8  S   UNL     1      19.576 -11.232   2.256 -0.88 -0.00    +0.000 S 
DOCKED: ATOM      9  O   UNL     1      19.904 -11.019   3.706 -0.81 -0.00    +0.000 OA
DOCKED: BRANCH   8  10
DOCKED: ATOM     10  N   UNL     1      20.552 -10.171   1.288 -0.56 -0.00    +0.000 N 
DOCKED: ATOM     11  H   UNL     1      21.196  -9.586   1.749 -0.55 -0.00    +0.000 HD
DOCKED: BRANCH  10  12
DOCKED: ATOM     12  C   UNL     1      20.476 -10.096  -0.147 -0.57 -0.00    +0.000 A 
DOCKED: ATOM     13  C   UNL     1      19.576 -10.886  -0.890 -0.46 -0.00    +0.000 A 
DOCKED: ATOM     14  C   UNL     1      19.525 -10.780  -2.283 -0.39 -0.00    +0.000 A 
DOCKED: ATOM     15  C   UNL     1      20.370  -9.890  -2.949 -0.42 -0.00    +0.000 A 
DOCKED: ATOM     16  C   UNL     1      21.271  -9.108  -2.225 -0.47 -0.00    +0.000 A 
DOCKED: ATOM     17  C   UNL     1      21.326  -9.210  -0.831 -0.54 -0.00    +0.000 A 
DOCKED: ENDBRANCH  10  12
DOCKED: ENDBRANCH   8  10
DOCKED: ENDBRANCH   1   8
DOCKED: BRANCH   3  18
DOCKED: ATOM     18  C   UNL     1      15.349  -8.296   3.127 -0.36 +0.00    +0.000 C 
DOCKED: ATOM     19  C   UNL     1      15.685  -7.919   4.370 -0.20 +0.00    +0.000 C 
DOCKED: BRANCH  19  20
DOCKED: ATOM     20  C   UNL     1      15.116  -6.734   5.044 -0.47 +0.00    +0.000 C 
DOCKED: ATOM     21  N   UNL     1      15.767  -5.456   5.033 -0.47 +0.00    +0.000 N 
DOCKED: ATOM     22  O   UNL     1      14.031  -6.865   5.672 -0.52 +0.00    +0.000 OA
DOCKED: ATOM     23  H   UNL     1      16.668  -5.368   4.645 -0.60 -0.00    +0.000 HD
DOCKED: BRANCH  21  24
DOCKED: ATOM     24  O   UNL     1      15.146  -4.370   5.553 -0.57 +0.00    +0.000 OA
DOCKED: ATOM     25  H   UNL     1      14.295  -4.637   5.934 -0.04 +0.00    +0.000 HD
DOCKED: ENDBRANCH  21  24
DOCKED: ENDBRANCH  19  20
DOCKED: ENDBRANCH   3  18
DOCKED: TORSDOF 6
DOCKED: TER
DOCKED: ENDMDL
________________________________________________________________________________


	BEGINNING GENETIC ALGORITHM DOCKING 36 of 100
Run: 36 Seed: 1850039159 311131188 [ Run 36 of 100 GA/GALS ]
Beginning LAMARCKIAN GENETIC ALGORITHM (LGA), with a maximum of 2500000 energy evaluations.

Final-Value: -13.036


	FINAL GENETIC ALGORITHM DOCKED STATE
	_______________________________________________


Detailed state:  trans 20.131 -8.570 -0.730 quatxyzw -0.230755 0.172483 0.360987 0.886955 center 0.320 0.169 0.303 ntor 6 36.6286 -125.2806 179.5023 -131.5635 165.9990 125.2142
State:	 20.131  -8.570  -0.730  -0.500  0.373  0.782 55.014     36.63 -125.28  179.50 -131.56  166.00  125.21

DOCKED: MODEL       36
DOCKED: USER    Run = 36
DOCKED: USER    DPF = ligand_dock.biased.dpf
DOCKED: USER  
DOCKED: USER    Estimated Free Energy of Binding    =   -9.93 kcal/mol  [=(1)+(2)+(3)-(4)]
DOCKED: USER    Estimated Inhibition Constant, Ki   =   52.60 nM (nanomolar)  [Temperature = 298.15 K]
DOCKED: USER    
DOCKED: USER    (1) Final Intermolecular Energy     =  -11.72 kcal/mol
DOCKED: USER        vdW + Hbond + desolv Energy     =  -11.72 kcal/mol
DOCKED: USER        Electrostatic Energy            =   +0.00 kcal/mol
DOCKED: USER    (2) Final Total Internal Energy     =   -1.32 kcal/mol
DOCKED: USER    (3) Torsional Free Energy           =   +1.79 kcal/mol
DOCKED: USER    (4) Unbound System's Energy  [=(2)] =   -1.32 kcal/mol
DOCKED: USER    
DOCKED: USER    
DOCKED: USER    NEWDPF move ligand.pdbqt
DOCKED: USER    NEWDPF about 0.320000 0.169000 0.303000
DOCKED: USER    NEWDPF tran0 20.131006 -8.570394 -0.730040
DOCKED: USER    NEWDPF quaternion0 -0.230755 0.172483 0.360987 0.886955
DOCKED: USER    NEWDPF axisangle0 -0.499626 0.373457 0.781603 55.013776
DOCKED: USER    NEWDPF quat0 -0.499626 0.373457 0.781603 55.013776
DOCKED: USER    NEWDPF dihe0 36.63 -125.28 179.50 -131.56 166.00 125.21 
DOCKED: USER  keepresnum = 1 
DOCKED: USER  
DOCKED: REMARK  Name = 
DOCKED: REMARK  6 active torsions:
DOCKED: REMARK  status: ('A' for Active; 'I' for Inactive)
DOCKED: REMARK    1  A    between atoms: S_2  and  N_3
DOCKED: REMARK    2  A    between atoms: S_2  and  C_10
DOCKED: REMARK    3  A    between atoms: N_3  and  C_4
DOCKED: REMARK    4  A    between atoms: C_12  and  C_13
DOCKED: REMARK    5  A    between atoms: C_14  and  C_15
DOCKED: REMARK    6  A    between atoms: N_16  and  O_17
DOCKED: REMARK                            x       y       z     vdW  Elec       q    Type
DOCKED: REMARK                         _______ _______ _______ _____ _____    ______ ____
DOCKED: USER                              x       y       z     vdW  Elec       q    Type
DOCKED: USER                           _______ _______ _______ _____ _____    ______ ____
DOCKED: ROOT
DOCKED: ATOM      1  C   UNL     1      21.151  -7.302  -2.429 -0.40 -0.00    +0.000 A 
DOCKED: ATOM      2  C   UNL     1      21.029  -8.225  -1.382 -0.38 -0.00    +0.000 A 
DOCKED: ATOM      3  C   UNL     1      21.050  -9.607  -1.637 -0.55 -0.00    +0.000 A 
DOCKED: ATOM      4  C   UNL     1      21.180 -10.051  -2.969 -0.48 -0.00    +0.000 A 
DOCKED: ATOM      5  C   UNL     1      21.309  -9.129  -4.011 -0.36 -0.00    +0.000 A 
DOCKED: ATOM      6  C   UNL     1      21.301  -7.759  -3.743 -0.32 -0.00    +0.000 A 
DOCKED: ENDROOT
DOCKED: BRANCH   1   8
DOCKED: ATOM      7  O   UNL     1      20.266  -5.291  -0.878 -0.55 +0.00    +0.000 OA
DOCKED: ATOM      8  S   UNL     1      21.112  -5.574  -2.087 -0.55 -0.00    +0.000 S 
DOCKED: ATOM      9  O   UNL     1      20.528  -4.861  -3.272 -0.24 -0.00    +0.000 OA
DOCKED: BRANCH   8  10
DOCKED: ATOM     10  N   UNL     1      22.721  -4.985  -1.802 -0.35 +0.00    +0.000 N 
DOCKED: ATOM     11  H   UNL     1      23.456  -5.639  -1.785 -0.01 +0.00    +0.000 HD
DOCKED: BRANCH  10  12
DOCKED: ATOM     12  C   UNL     1      23.043  -3.599  -1.589 -0.26 +0.00    +0.000 A 
DOCKED: ATOM     13  C   UNL     1      24.154  -2.987  -2.200 -0.22 -0.00    +0.000 A 
DOCKED: ATOM     14  C   UNL     1      24.430  -1.634  -1.976 -0.13 -0.00    +0.000 A 
DOCKED: ATOM     15  C   UNL     1      23.604  -0.881  -1.139 -0.16 -0.00    +0.000 A 
DOCKED: ATOM     16  C   UNL     1      22.504  -1.478  -0.521 -0.25 -0.00    +0.000 A 
DOCKED: ATOM     17  C   UNL     1      22.224  -2.830  -0.743 -0.29 +0.00    +0.000 A 
DOCKED: ENDBRANCH  10  12
DOCKED: ENDBRANCH   8  10
DOCKED: ENDBRANCH   1   8
DOCKED: BRANCH   3  18
DOCKED: ATOM     18  C   UNL     1      20.894 -10.541  -0.494 -0.68 -0.00    +0.000 C 
DOCKED: ATOM     19  C   UNL     1      20.596 -10.145   0.754 -0.63 -0.00    +0.000 C 
DOCKED: BRANCH  19  20
DOCKED: ATOM     20  C   UNL     1      20.442 -11.079   1.889 -0.73 -0.00    +0.000 C 
DOCKED: ATOM     21  N   UNL     1      20.516 -10.647   3.254 -0.68 -0.00    +0.000 N 
DOCKED: ATOM     22  O   UNL     1      20.267 -12.302   1.640 -1.68 -0.00    +0.000 OA
DOCKED: ATOM     23  H   UNL     1      20.766  -9.718   3.462 -0.57 -0.00    +0.000 HD
DOCKED: BRANCH  21  24
DOCKED: ATOM     24  O   UNL     1      20.241 -11.514   4.259 -0.78 -0.00    +0.000 OA
DOCKED: ATOM     25  H   UNL     1      20.570 -12.396   4.024 -0.48 -0.00    +0.000 HD
DOCKED: ENDBRANCH  21  24
DOCKED: ENDBRANCH  19  20
DOCKED: ENDBRANCH   3  18
DOCKED: TORSDOF 6
DOCKED: TER
DOCKED: ENDMDL
________________________________________________________________________________


	BEGINNING GENETIC ALGORITHM DOCKING 37 of 100
Run: 37 Seed: 640954792 601192429 [ Run 37 of 100 GA/GALS ]
Beginning LAMARCKIAN GENETIC ALGORITHM (LGA), with a maximum of 2500000 energy evaluations.

Final-Value: -13.183


	FINAL GENETIC ALGORITHM DOCKED STATE
	_______________________________________________


Detailed state:  trans 18.318 -11.468 -1.457 quatxyzw 0.243623 -0.127307 0.374620 -0.885495 center 0.320 0.169 0.303 ntor 6 12.6876 -116.9242 89.8501 103.3251 169.6542 2.3169
State:	 18.318 -11.468  -1.457   0.524 -0.274  0.806 -55.375     12.69 -116.92   89.85  103.33  169.65    2.32

DOCKED: MODEL       37
DOCKED: USER    Run = 37
DOCKED: USER    DPF = ligand_dock.biased.dpf
DOCKED: USER  
DOCKED: USER    Estimated Free Energy of Binding    =   -9.10 kcal/mol  [=(1)+(2)+(3)-(4)]
DOCKED: USER    Estimated Inhibition Constant, Ki   =  214.36 nM (nanomolar)  [Temperature = 298.15 K]
DOCKED: USER    
DOCKED: USER    (1) Final Intermolecular Energy     =  -10.89 kcal/mol
DOCKED: USER        vdW + Hbond + desolv Energy     =  -10.89 kcal/mol
DOCKED: USER        Electrostatic Energy            =   +0.00 kcal/mol
DOCKED: USER    (2) Final Total Internal Energy     =   -2.29 kcal/mol
DOCKED: USER    (3) Torsional Free Energy           =   +1.79 kcal/mol
DOCKED: USER    (4) Unbound System's Energy  [=(2)] =   -2.29 kcal/mol
DOCKED: USER    
DOCKED: USER    
DOCKED: USER    NEWDPF move ligand.pdbqt
DOCKED: USER    NEWDPF about 0.320000 0.169000 0.303000
DOCKED: USER    NEWDPF tran0 18.318353 -11.468204 -1.456638
DOCKED: USER    NEWDPF quaternion0 0.243623 -0.127307 0.374620 -0.885495
DOCKED: USER    NEWDPF axisangle0 0.524315 -0.273985 0.806242 -55.375065
DOCKED: USER    NEWDPF quat0 0.524315 -0.273985 0.806242 -55.375065
DOCKED: USER    NEWDPF dihe0 12.69 -116.92 89.85 103.33 169.65 2.32 
DOCKED: USER  keepresnum = 1 
DOCKED: USER  
DOCKED: REMARK  Name = 
DOCKED: REMARK  6 active torsions:
DOCKED: REMARK  status: ('A' for Active; 'I' for Inactive)
DOCKED: REMARK    1  A    between atoms: S_2  and  N_3
DOCKED: REMARK    2  A    between atoms: S_2  and  C_10
DOCKED: REMARK    3  A    between atoms: N_3  and  C_4
DOCKED: REMARK    4  A    between atoms: C_12  and  C_13
DOCKED: REMARK    5  A    between atoms: C_14  and  C_15
DOCKED: REMARK    6  A    between atoms: N_16  and  O_17
DOCKED: REMARK                            x       y       z     vdW  Elec       q    Type
DOCKED: REMARK                         _______ _______ _______ _____ _____    ______ ____
DOCKED: USER                              x       y       z     vdW  Elec       q    Type
DOCKED: USER                           _______ _______ _______ _____ _____    ______ ____
DOCKED: ROOT
DOCKED: ATOM      1  C   UNL     1      17.763 -10.271  -3.404 -0.22 -0.00    +0.000 A 
DOCKED: ATOM      2  C   UNL     1      18.279 -10.519  -2.125 -0.28 -0.00    +0.000 A 
DOCKED: ATOM      3  C   UNL     1      19.665 -10.623  -1.918 -0.41 -0.00    +0.000 A 
DOCKED: ATOM      4  C   UNL     1      20.530 -10.491  -3.025 -0.46 -0.00    +0.000 A 
DOCKED: ATOM      5  C   UNL     1      20.013 -10.236  -4.298 -0.35 -0.00    +0.000 A 
DOCKED: ATOM      6  C   UNL     1      18.635 -10.121  -4.488 -0.27 -0.00    +0.000 A 
DOCKED: ENDROOT
DOCKED: BRANCH   1   8
DOCKED: ATOM      7  O   UNL     1      15.649 -10.543  -5.045 -0.24 -0.00    +0.000 OA
DOCKED: ATOM      8  S   UNL     1      16.021 -10.154  -3.642 -0.31 -0.00    +0.000 S 
DOCKED: ATOM      9  O   UNL     1      15.595  -8.735  -3.398 -0.20 -0.00    +0.000 OA
DOCKED: BRANCH   8  10
DOCKED: ATOM     10  N   UNL     1      15.194 -11.198  -2.527 -0.26 -0.00    +0.000 N 
DOCKED: ATOM     11  H   UNL     1      14.514 -11.812  -2.888 -0.03 -0.00    +0.000 HD
DOCKED: BRANCH  10  12
DOCKED: ATOM     12  C   UNL     1      15.444 -11.219  -1.110 -0.30 +0.00    +0.000 A 
DOCKED: ATOM     13  C   UNL     1      15.722 -12.414  -0.419 -0.44 +0.00    +0.000 A 
DOCKED: ATOM     14  C   UNL     1      15.968 -12.394   0.958 -0.40 +0.00    +0.000 A 
DOCKED: ATOM     15  C   UNL     1      15.936 -11.186   1.658 -0.37 +0.00    +0.000 A 
DOCKED: ATOM     16  C   UNL     1      15.653  -9.996   0.984 -0.27 +0.00    +0.000 A 
DOCKED: ATOM     17  C   UNL     1      15.408 -10.012  -0.393 -0.25 -0.00    +0.000 A 
DOCKED: ENDBRANCH  10  12
DOCKED: ENDBRANCH   8  10
DOCKED: ENDBRANCH   1   8
DOCKED: BRANCH   3  18
DOCKED: ATOM     18  C   UNL     1      20.157 -10.909  -0.548 -0.57 -0.00    +0.000 C 
DOCKED: ATOM     19  C   UNL     1      19.360 -11.279   0.466 -0.61 -0.00    +0.000 C 
DOCKED: BRANCH  19  20
DOCKED: ATOM     20  C   UNL     1      19.855 -11.563   1.829 -0.74 -0.00    +0.000 C 
DOCKED: ATOM     21  N   UNL     1      20.319 -10.530   2.709 -0.65 -0.00    +0.000 N 
DOCKED: ATOM     22  O   UNL     1      19.894 -12.762   2.216 -1.46 -0.00    +0.000 OA
DOCKED: ATOM     23  H   UNL     1      20.402  -9.606   2.380 -0.52 -0.00    +0.000 HD
DOCKED: BRANCH  21  24
DOCKED: ATOM     24  O   UNL     1      20.642 -10.822   3.992 -0.80 -0.00    +0.000 OA
DOCKED: ATOM     25  H   UNL     1      20.698 -11.783   4.100 -0.48 -0.00    +0.000 HD
DOCKED: ENDBRANCH  21  24
DOCKED: ENDBRANCH  19  20
DOCKED: ENDBRANCH   3  18
DOCKED: TORSDOF 6
DOCKED: TER
DOCKED: ENDMDL
________________________________________________________________________________


	BEGINNING GENETIC ALGORITHM DOCKING 38 of 100
Run: 38 Seed: 1167004405 66304618 [ Run 38 of 100 GA/GALS ]
Beginning LAMARCKIAN GENETIC ALGORITHM (LGA), with a maximum of 2500000 energy evaluations.

Final-Value: -13.487


	FINAL GENETIC ALGORITHM DOCKED STATE
	_______________________________________________


Detailed state:  trans 20.029 -11.904 -2.089 quatxyzw -0.605601 -0.569354 -0.165511 0.530745 center 0.320 0.169 0.303 ntor 6 14.6390 -179.6477 158.3449 138.2887 -94.0729 161.6043
State:	 20.029 -11.904  -2.089  -0.715 -0.672 -0.195 115.888     14.64 -179.65  158.34  138.29  -94.07  161.60

DOCKED: MODEL       38
DOCKED: USER    Run = 38
DOCKED: USER    DPF = ligand_dock.biased.dpf
DOCKED: USER  
DOCKED: USER    Estimated Free Energy of Binding    =  -10.18 kcal/mol  [=(1)+(2)+(3)-(4)]
DOCKED: USER    Estimated Inhibition Constant, Ki   =   34.61 nM (nanomolar)  [Temperature = 298.15 K]
DOCKED: USER    
DOCKED: USER    (1) Final Intermolecular Energy     =  -11.97 kcal/mol
DOCKED: USER        vdW + Hbond + desolv Energy     =  -11.97 kcal/mol
DOCKED: USER        Electrostatic Energy            =   +0.00 kcal/mol
DOCKED: USER    (2) Final Total Internal Energy     =   -1.52 kcal/mol
DOCKED: USER    (3) Torsional Free Energy           =   +1.79 kcal/mol
DOCKED: USER    (4) Unbound System's Energy  [=(2)] =   -1.52 kcal/mol
DOCKED: USER    
DOCKED: USER    
DOCKED: USER    NEWDPF move ligand.pdbqt
DOCKED: USER    NEWDPF about 0.320000 0.169000 0.303000
DOCKED: USER    NEWDPF tran0 20.028990 -11.904212 -2.088881
DOCKED: USER    NEWDPF quaternion0 -0.605601 -0.569354 -0.165511 0.530745
DOCKED: USER    NEWDPF axisangle0 -0.714547 -0.671779 -0.195286 115.888427
DOCKED: USER    NEWDPF quat0 -0.714547 -0.671779 -0.195286 115.888427
DOCKED: USER    NEWDPF dihe0 14.64 -179.65 158.34 138.29 -94.07 161.60 
DOCKED: USER  keepresnum = 1 
DOCKED: USER  
DOCKED: REMARK  Name = 
DOCKED: REMARK  6 active torsions:
DOCKED: REMARK  status: ('A' for Active; 'I' for Inactive)
DOCKED: REMARK    1  A    between atoms: S_2  and  N_3
DOCKED: REMARK    2  A    between atoms: S_2  and  C_10
DOCKED: REMARK    3  A    between atoms: N_3  and  C_4
DOCKED: REMARK    4  A    between atoms: C_12  and  C_13
DOCKED: REMARK    5  A    between atoms: C_14  and  C_15
DOCKED: REMARK    6  A    between atoms: N_16  and  O_17
DOCKED: REMARK                            x       y       z     vdW  Elec       q    Type
DOCKED: REMARK                         _______ _______ _______ _____ _____    ______ ____
DOCKED: USER                              x       y       z     vdW  Elec       q    Type
DOCKED: USER                           _______ _______ _______ _____ _____    ______ ____
DOCKED: ROOT
DOCKED: ATOM      1  C   UNL     1      18.315 -11.173  -0.653 -0.40 -0.00    +0.000 A 
DOCKED: ATOM      2  C   UNL     1      19.444 -11.106  -1.480 -0.34 -0.00    +0.000 A 
DOCKED: ATOM      3  C   UNL     1      19.357 -10.553  -2.770 -0.38 -0.00    +0.000 A 
DOCKED: ATOM      4  C   UNL     1      18.109 -10.080  -3.224 -0.25 -0.00    +0.000 A 
DOCKED: ATOM      5  C   UNL     1      16.986 -10.140  -2.394 -0.18 -0.00    +0.000 A 
DOCKED: ATOM      6  C   UNL     1      17.088 -10.680  -1.111 -0.26 -0.00    +0.000 A 
DOCKED: ENDROOT
DOCKED: BRANCH   1   8
DOCKED: ATOM      7  O   UNL     1      19.877 -12.196   1.283 -1.57 -0.00    +0.000 OA
DOCKED: ATOM      8  S   UNL     1      18.444 -11.880   0.956 -0.73 -0.00    +0.000 S 
DOCKED: ATOM      9  O   UNL     1      17.642 -13.148   0.992 -1.01 +0.00    +0.000 OA
DOCKED: BRANCH   8  10
DOCKED: ATOM     10  N   UNL     1      17.823 -10.777   2.145 -0.46 -0.00    +0.000 N 
DOCKED: ATOM     11  H   UNL     1      18.461 -10.183   2.602 -0.03 -0.00    +0.000 HD
DOCKED: BRANCH  10  12
DOCKED: ATOM     12  C   UNL     1      16.432 -10.680   2.501 -0.41 +0.00    +0.000 A 
DOCKED: ATOM     13  C   UNL     1      15.997  -9.942   3.619 -0.40 +0.00    +0.000 A 
DOCKED: ATOM     14  C   UNL     1      14.635  -9.863   3.928 -0.38 +0.00    +0.000 A 
DOCKED: ATOM     15  C   UNL     1      13.697 -10.521   3.131 -0.28 +0.00    +0.000 A 
DOCKED: ATOM     16  C   UNL     1      14.117 -11.262   2.025 -0.39 +0.00    +0.000 A 
DOCKED: ATOM     17  C   UNL     1      15.477 -11.342   1.711 -0.39 +0.00    +0.000 A 
DOCKED: ENDBRANCH  10  12
DOCKED: ENDBRANCH   8  10
DOCKED: ENDBRANCH   1   8
DOCKED: BRANCH   3  18
DOCKED: ATOM     18  C   UNL     1      20.578 -10.527  -3.613 -0.50 -0.00    +0.000 C 
DOCKED: ATOM     19  C   UNL     1      20.768 -11.331  -4.670 -0.52 -0.00    +0.000 C 
DOCKED: BRANCH  19  20
DOCKED: ATOM     20  C   UNL     1      21.986 -11.301  -5.507 -0.53 -0.00    +0.000 C 
DOCKED: ATOM     21  N   UNL     1      22.602 -12.494  -6.010 -0.56 -0.00    +0.000 N 
DOCKED: ATOM     22  O   UNL     1      22.513 -10.185  -5.760 -0.39 -0.00    +0.000 OA
DOCKED: ATOM     23  H   UNL     1      22.268 -13.376  -5.726 -0.45 -0.00    +0.000 HD
DOCKED: BRANCH  21  24
DOCKED: ATOM     24  O   UNL     1      23.640 -12.412  -6.877 -1.13 -0.00    +0.000 OA
DOCKED: ATOM     25  H   UNL     1      23.990 -11.508  -6.876 -0.04 -0.00    +0.000 HD
DOCKED: ENDBRANCH  21  24
DOCKED: ENDBRANCH  19  20
DOCKED: ENDBRANCH   3  18
DOCKED: TORSDOF 6
DOCKED: TER
DOCKED: ENDMDL
________________________________________________________________________________


	BEGINNING GENETIC ALGORITHM DOCKING 39 of 100
Run: 39 Seed: 1668726686 1680957116 [ Run 39 of 100 GA/GALS ]
Beginning LAMARCKIAN GENETIC ALGORITHM (LGA), with a maximum of 2500000 energy evaluations.

Final-Value: -14.452


	FINAL GENETIC ALGORITHM DOCKED STATE
	_______________________________________________


Detailed state:  trans 21.278 -10.976 -1.955 quatxyzw -0.263495 0.281838 -0.826279 0.410366 center 0.320 0.169 0.303 ntor 6 27.0231 -151.4209 26.7262 -21.9255 147.6622 -56.0167
State:	 21.278 -10.976  -1.955  -0.289  0.309 -0.906 131.544     27.02 -151.42   26.73  -21.93  147.66  -56.02

DOCKED: MODEL       39
DOCKED: USER    Run = 39
DOCKED: USER    DPF = ligand_dock.biased.dpf
DOCKED: USER  
DOCKED: USER    Estimated Free Energy of Binding    =  -11.09 kcal/mol  [=(1)+(2)+(3)-(4)]
DOCKED: USER    Estimated Inhibition Constant, Ki   =    7.41 nM (nanomolar)  [Temperature = 298.15 K]
DOCKED: USER    
DOCKED: USER    (1) Final Intermolecular Energy     =  -12.88 kcal/mol
DOCKED: USER        vdW + Hbond + desolv Energy     =  -12.88 kcal/mol
DOCKED: USER        Electrostatic Energy            =   +0.00 kcal/mol
DOCKED: USER    (2) Final Total Internal Energy     =   -1.57 kcal/mol
DOCKED: USER    (3) Torsional Free Energy           =   +1.79 kcal/mol
DOCKED: USER    (4) Unbound System's Energy  [=(2)] =   -1.57 kcal/mol
DOCKED: USER    
DOCKED: USER    
DOCKED: USER    NEWDPF move ligand.pdbqt
DOCKED: USER    NEWDPF about 0.320000 0.169000 0.303000
DOCKED: USER    NEWDPF tran0 21.278497 -10.975569 -1.954931
DOCKED: USER    NEWDPF quaternion0 -0.263495 0.281838 -0.826279 0.410366
DOCKED: USER    NEWDPF axisangle0 -0.288946 0.309059 -0.906087 131.544308
DOCKED: USER    NEWDPF quat0 -0.288946 0.309059 -0.906087 131.544308
DOCKED: USER    NEWDPF dihe0 27.02 -151.42 26.73 -21.93 147.66 -56.02 
DOCKED: USER  keepresnum = 1 
DOCKED: USER  
DOCKED: REMARK  Name = 
DOCKED: REMARK  6 active torsions:
DOCKED: REMARK  status: ('A' for Active; 'I' for Inactive)
DOCKED: REMARK    1  A    between atoms: S_2  and  N_3
DOCKED: REMARK    2  A    between atoms: S_2  and  C_10
DOCKED: REMARK    3  A    between atoms: N_3  and  C_4
DOCKED: REMARK    4  A    between atoms: C_12  and  C_13
DOCKED: REMARK    5  A    between atoms: C_14  and  C_15
DOCKED: REMARK    6  A    between atoms: N_16  and  O_17
DOCKED: REMARK                            x       y       z     vdW  Elec       q    Type
DOCKED: REMARK                         _______ _______ _______ _____ _____    ______ ____
DOCKED: USER                              x       y       z     vdW  Elec       q    Type
DOCKED: USER                           _______ _______ _______ _____ _____    ______ ____
DOCKED: ROOT
DOCKED: ATOM      1  C   UNL     1      20.669  -9.912  -3.963 -0.39 -0.00    +0.000 A 
DOCKED: ATOM      2  C   UNL     1      20.610 -10.294  -2.616 -0.47 -0.00    +0.000 A 
DOCKED: ATOM      3  C   UNL     1      20.960  -9.391  -1.597 -0.53 -0.00    +0.000 A 
DOCKED: ATOM      4  C   UNL     1      21.389  -8.096  -1.955 -0.44 -0.00    +0.000 A 
DOCKED: ATOM      5  C   UNL     1      21.441  -7.715  -3.298 -0.34 -0.00    +0.000 A 
DOCKED: ATOM      6  C   UNL     1      21.078  -8.616  -4.300 -0.30 -0.00    +0.000 A 
DOCKED: ENDROOT
DOCKED: BRANCH   1   8
DOCKED: ATOM      7  O   UNL     1      19.645 -10.354  -6.410 -0.29 -0.00    +0.000 OA
DOCKED: ATOM      8  S   UNL     1      20.235 -11.063  -5.224 -0.58 -0.00    +0.000 S 
DOCKED: ATOM      9  O   UNL     1      19.222 -12.024  -4.672 -0.51 -0.00    +0.000 OA
DOCKED: BRANCH   8  10
DOCKED: ATOM     10  N   UNL     1      21.641 -11.946  -5.736 -0.44 -0.00    +0.000 N 
DOCKED: ATOM     11  H   UNL     1      21.735 -12.879  -5.435 -0.45 -0.00    +0.000 HD
DOCKED: BRANCH  10  12
DOCKED: ATOM     12  C   UNL     1      22.674 -11.396  -6.573 -0.42 -0.00    +0.000 A 
DOCKED: ATOM     13  C   UNL     1      23.597 -12.213  -7.255 -0.45 -0.00    +0.000 A 
DOCKED: ATOM     14  C   UNL     1      24.582 -11.642  -8.066 -0.41 -0.00    +0.000 A 
DOCKED: ATOM     15  C   UNL     1      24.660 -10.254  -8.203 -0.28 -0.00    +0.000 A 
DOCKED: ATOM     16  C   UNL     1      23.756  -9.434  -7.525 -0.23 -0.00    +0.000 A 
DOCKED: ATOM     17  C   UNL     1      22.768 -10.001  -6.714 -0.27 -0.00    +0.000 A 
DOCKED: ENDBRANCH  10  12
DOCKED: ENDBRANCH   8  10
DOCKED: ENDBRANCH   1   8
DOCKED: BRANCH   3  18
DOCKED: ATOM     18  C   UNL     1      20.900  -9.854  -0.189 -0.68 -0.00    +0.000 C 
DOCKED: ATOM     19  C   UNL     1      20.328 -11.007   0.191 -0.65 -0.00    +0.000 C 
DOCKED: BRANCH  19  20
DOCKED: ATOM     20  C   UNL     1      20.271 -11.464   1.595 -0.76 -0.00    +0.000 C 
DOCKED: ATOM     21  N   UNL     1      20.666 -10.629   2.691 -0.60 -0.00    +0.000 N 
DOCKED: ATOM     22  O   UNL     1      19.885 -12.641   1.827 -1.62 -0.00    +0.000 OA
DOCKED: ATOM     23  H   UNL     1      21.076  -9.752   2.517 -0.58 -0.00    +0.000 HD
DOCKED: BRANCH  21  24
DOCKED: ATOM     24  O   UNL     1      20.476 -11.045   3.967 -0.78 -0.00    +0.000 OA
DOCKED: ATOM     25  H   UNL     1      20.480 -12.014   3.995 -0.41 -0.00    +0.000 HD
DOCKED: ENDBRANCH  21  24
DOCKED: ENDBRANCH  19  20
DOCKED: ENDBRANCH   3  18
DOCKED: TORSDOF 6
DOCKED: TER
DOCKED: ENDMDL
________________________________________________________________________________


	BEGINNING GENETIC ALGORITHM DOCKING 40 of 100
Run: 40 Seed: 1549198335 613368137 [ Run 40 of 100 GA/GALS ]
Beginning LAMARCKIAN GENETIC ALGORITHM (LGA), with a maximum of 2500000 energy evaluations.

Final-Value: -14.238


	FINAL GENETIC ALGORITHM DOCKED STATE
	_______________________________________________


Detailed state:  trans 21.887 -10.981 -1.985 quatxyzw 0.241219 -0.259420 0.885786 -0.299830 center 0.320 0.169 0.303 ntor 6 41.4114 92.0020 31.5378 157.5817 130.4256 -138.3188
State:	 21.887 -10.981  -1.985   0.253 -0.272  0.929 -145.105     41.41   92.00   31.54  157.58  130.43 -138.32

DOCKED: MODEL       40
DOCKED: USER    Run = 40
DOCKED: USER    DPF = ligand_dock.biased.dpf
DOCKED: USER  
DOCKED: USER    Estimated Free Energy of Binding    =  -11.06 kcal/mol  [=(1)+(2)+(3)-(4)]
DOCKED: USER    Estimated Inhibition Constant, Ki   =    7.76 nM (nanomolar)  [Temperature = 298.15 K]
DOCKED: USER    
DOCKED: USER    (1) Final Intermolecular Energy     =  -12.85 kcal/mol
DOCKED: USER        vdW + Hbond + desolv Energy     =  -12.85 kcal/mol
DOCKED: USER        Electrostatic Energy            =   +0.00 kcal/mol
DOCKED: USER    (2) Final Total Internal Energy     =   -1.38 kcal/mol
DOCKED: USER    (3) Torsional Free Energy           =   +1.79 kcal/mol
DOCKED: USER    (4) Unbound System's Energy  [=(2)] =   -1.38 kcal/mol
DOCKED: USER    
DOCKED: USER    
DOCKED: USER    NEWDPF move ligand.pdbqt
DOCKED: USER    NEWDPF about 0.320000 0.169000 0.303000
DOCKED: USER    NEWDPF tran0 21.886530 -10.980871 -1.984980
DOCKED: USER    NEWDPF quaternion0 0.241219 -0.259420 0.885786 -0.299830
DOCKED: USER    NEWDPF axisangle0 0.252853 -0.271931 0.928504 -145.105239
DOCKED: USER    NEWDPF quat0 0.252853 -0.271931 0.928504 -145.105239
DOCKED: USER    NEWDPF dihe0 41.41 92.00 31.54 157.58 130.43 -138.32 
DOCKED: USER  keepresnum = 1 
DOCKED: USER  
DOCKED: REMARK  Name = 
DOCKED: REMARK  6 active torsions:
DOCKED: REMARK  status: ('A' for Active; 'I' for Inactive)
DOCKED: REMARK    1  A    between atoms: S_2  and  N_3
DOCKED: REMARK    2  A    between atoms: S_2  and  C_10
DOCKED: REMARK    3  A    between atoms: N_3  and  C_4
DOCKED: REMARK    4  A    between atoms: C_12  and  C_13
DOCKED: REMARK    5  A    between atoms: C_14  and  C_15
DOCKED: REMARK    6  A    between atoms: N_16  and  O_17
DOCKED: REMARK                            x       y       z     vdW  Elec       q    Type
DOCKED: REMARK                         _______ _______ _______ _____ _____    ______ ____
DOCKED: USER                              x       y       z     vdW  Elec       q    Type
DOCKED: USER                           _______ _______ _______ _____ _____    ______ ____
DOCKED: ROOT
DOCKED: ATOM      1  C   UNL     1      21.286 -10.121  -4.091 -0.42 -0.00    +0.000 A 
DOCKED: ATOM      2  C   UNL     1      21.161 -10.483  -2.743 -0.49 -0.00    +0.000 A 
DOCKED: ATOM      3  C   UNL     1      21.177  -9.506  -1.733 -0.53 -0.00    +0.000 A 
DOCKED: ATOM      4  C   UNL     1      21.340  -8.154  -2.097 -0.44 -0.00    +0.000 A 
DOCKED: ATOM      5  C   UNL     1      21.457  -7.794  -3.443 -0.33 -0.00    +0.000 A 
DOCKED: ATOM      6  C   UNL     1      21.426  -8.773  -4.438 -0.31 -0.00    +0.000 A 
DOCKED: ENDROOT
DOCKED: BRANCH   1   8
DOCKED: ATOM      7  O   UNL     1      19.925 -12.026  -5.416 -0.59 -0.00    +0.000 OA
DOCKED: ATOM      8  S   UNL     1      21.272 -11.363  -5.340 -0.66 -0.00    +0.000 S 
DOCKED: ATOM      9  O   UNL     1      22.309 -12.397  -5.005 -0.63 -0.00    +0.000 OA
DOCKED: BRANCH   8  10
DOCKED: ATOM     10  N   UNL     1      21.645 -10.661  -6.885 -0.31 -0.00    +0.000 N 
DOCKED: ATOM     11  H   UNL     1      20.944 -10.136  -7.334 -0.00 -0.00    +0.000 HD
DOCKED: BRANCH  10  12
DOCKED: ATOM     12  C   UNL     1      22.915 -10.803  -7.546 -0.33 -0.00    +0.000 A 
DOCKED: ATOM     13  C   UNL     1      23.252 -11.958  -8.278 -0.40 -0.00    +0.000 A 
DOCKED: ATOM     14  C   UNL     1      24.493 -12.055  -8.915 -0.38 -0.00    +0.000 A 
DOCKED: ATOM     15  C   UNL     1      25.411 -11.006  -8.824 -0.33 -0.00    +0.000 A 
DOCKED: ATOM     16  C   UNL     1      25.091  -9.860  -8.094 -0.27 -0.00    +0.000 A 
DOCKED: ATOM     17  C   UNL     1      23.851  -9.758  -7.458 -0.25 -0.00    +0.000 A 
DOCKED: ENDBRANCH  10  12
DOCKED: ENDBRANCH   8  10
DOCKED: ENDBRANCH   1   8
DOCKED: BRANCH   3  18
DOCKED: ATOM     18  C   UNL     1      21.063  -9.946  -0.320 -0.69 -0.00    +0.000 C 
DOCKED: ATOM     19  C   UNL     1      20.421 -11.061   0.061 -0.62 -0.00    +0.000 C 
DOCKED: BRANCH  19  20
DOCKED: ATOM     20  C   UNL     1      20.310 -11.495   1.470 -0.76 -0.00    +0.000 C 
DOCKED: ATOM     21  N   UNL     1      20.633 -10.632   2.568 -0.62 -0.00    +0.000 N 
DOCKED: ATOM     22  O   UNL     1      19.944 -12.678   1.706 -1.59 -0.00    +0.000 OA
DOCKED: ATOM     23  H   UNL     1      21.029  -9.747   2.396 -0.58 -0.00    +0.000 HD
DOCKED: BRANCH  21  24
DOCKED: ATOM     24  O   UNL     1      20.394 -11.030   3.841 -0.81 -0.00    +0.000 OA
DOCKED: ATOM     25  H   UNL     1      20.642 -11.962   3.939 -0.52 -0.00    +0.000 HD
DOCKED: ENDBRANCH  21  24
DOCKED: ENDBRANCH  19  20
DOCKED: ENDBRANCH   3  18
DOCKED: TORSDOF 6
DOCKED: TER
DOCKED: ENDMDL
________________________________________________________________________________


	BEGINNING GENETIC ALGORITHM DOCKING 41 of 100
Run: 41 Seed: 771508378 2011558194 [ Run 41 of 100 GA/GALS ]
Beginning LAMARCKIAN GENETIC ALGORITHM (LGA), with a maximum of 2500000 energy evaluations.

Final-Value: -13.918


	FINAL GENETIC ALGORITHM DOCKED STATE
	_______________________________________________


Detailed state:  trans 21.593 -11.550 -2.063 quatxyzw 0.243890 -0.387437 0.845897 -0.273622 center 0.320 0.169 0.303 ntor 6 29.6090 -46.4008 180.0000 90.7270 -17.7493 102.0293
State:	 21.593 -11.550  -2.063   0.254 -0.403  0.879 -148.240     29.61  -46.40  180.00   90.73  -17.75  102.03

DOCKED: MODEL       41
DOCKED: USER    Run = 41
DOCKED: USER    DPF = ligand_dock.biased.dpf
DOCKED: USER  
DOCKED: USER    Estimated Free Energy of Binding    =  -10.49 kcal/mol  [=(1)+(2)+(3)-(4)]
DOCKED: USER    Estimated Inhibition Constant, Ki   =   20.54 nM (nanomolar)  [Temperature = 298.15 K]
DOCKED: USER    
DOCKED: USER    (1) Final Intermolecular Energy     =  -12.28 kcal/mol
DOCKED: USER        vdW + Hbond + desolv Energy     =  -12.28 kcal/mol
DOCKED: USER        Electrostatic Energy            =   +0.00 kcal/mol
DOCKED: USER    (2) Final Total Internal Energy     =   -1.64 kcal/mol
DOCKED: USER    (3) Torsional Free Energy           =   +1.79 kcal/mol
DOCKED: USER    (4) Unbound System's Energy  [=(2)] =   -1.64 kcal/mol
DOCKED: USER    
DOCKED: USER    
DOCKED: USER    NEWDPF move ligand.pdbqt
DOCKED: USER    NEWDPF about 0.320000 0.169000 0.303000
DOCKED: USER    NEWDPF tran0 21.593085 -11.550179 -2.063243
DOCKED: USER    NEWDPF quaternion0 0.243890 -0.387437 0.845897 -0.273622
DOCKED: USER    NEWDPF axisangle0 0.253566 -0.402809 0.879460 -148.240169
DOCKED: USER    NEWDPF quat0 0.253566 -0.402809 0.879460 -148.240169
DOCKED: USER    NEWDPF dihe0 29.61 -46.40 180.00 90.73 -17.75 102.03 
DOCKED: USER  keepresnum = 1 
DOCKED: USER  
DOCKED: REMARK  Name = 
DOCKED: REMARK  6 active torsions:
DOCKED: REMARK  status: ('A' for Active; 'I' for Inactive)
DOCKED: REMARK    1  A    between atoms: S_2  and  N_3
DOCKED: REMARK    2  A    between atoms: S_2  and  C_10
DOCKED: REMARK    3  A    between atoms: N_3  and  C_4
DOCKED: REMARK    4  A    between atoms: C_12  and  C_13
DOCKED: REMARK    5  A    between atoms: C_14  and  C_15
DOCKED: REMARK    6  A    between atoms: N_16  and  O_17
DOCKED: REMARK                            x       y       z     vdW  Elec       q    Type
DOCKED: REMARK                         _______ _______ _______ _____ _____    ______ ____
DOCKED: USER                              x       y       z     vdW  Elec       q    Type
DOCKED: USER                           _______ _______ _______ _____ _____    ______ ____
DOCKED: ROOT
DOCKED: ATOM      1  C   UNL     1      21.168 -10.150  -3.905 -0.43 -0.00    +0.000 A 
DOCKED: ATOM      2  C   UNL     1      20.937 -10.841  -2.708 -0.36 -0.00    +0.000 A 
DOCKED: ATOM      3  C   UNL     1      20.911 -10.159  -1.479 -0.56 -0.00    +0.000 A 
DOCKED: ATOM      4  C   UNL     1      21.137  -8.768  -1.468 -0.49 -0.00    +0.000 A 
DOCKED: ATOM      5  C   UNL     1      21.360  -8.079  -2.664 -0.41 -0.00    +0.000 A 
DOCKED: ATOM      6  C   UNL     1      21.371  -8.765  -3.880 -0.35 -0.00    +0.000 A 
DOCKED: ENDROOT
DOCKED: BRANCH   1   8
DOCKED: ATOM      7  O   UNL     1      22.175 -12.173  -5.363 -0.76 -0.00    +0.000 OA
DOCKED: ATOM      8  S   UNL     1      21.207 -11.025  -5.433 -0.61 -0.00    +0.000 S 
DOCKED: ATOM      9  O   UNL     1      21.642 -10.083  -6.518 -0.31 -0.00    +0.000 OA
DOCKED: BRANCH   8  10
DOCKED: ATOM     10  N   UNL     1      19.627 -11.640  -5.810 -0.41 -0.00    +0.000 N 
DOCKED: ATOM     11  H   UNL     1      19.565 -12.528  -6.230 -0.38 -0.00    +0.000 HD
DOCKED: BRANCH  10  12
DOCKED: ATOM     12  C   UNL     1      18.404 -10.929  -5.545 -0.32 -0.00    +0.000 A 
DOCKED: ATOM     13  C   UNL     1      18.054 -10.505  -4.248 -0.25 -0.00    +0.000 A 
DOCKED: ATOM     14  C   UNL     1      16.861  -9.808  -4.030 -0.21 -0.00    +0.000 A 
DOCKED: ATOM     15  C   UNL     1      16.005  -9.533  -5.099 -0.15 -0.00    +0.000 A 
DOCKED: ATOM     16  C   UNL     1      16.339  -9.955  -6.387 -0.15 -0.00    +0.000 A 
DOCKED: ATOM     17  C   UNL     1      17.531 -10.651  -6.610 -0.28 -0.00    +0.000 A 
DOCKED: ENDBRANCH  10  12
DOCKED: ENDBRANCH   8  10
DOCKED: ENDBRANCH   1   8
DOCKED: BRANCH   3  18
DOCKED: ATOM     18  C   UNL     1      20.684 -10.943  -0.240 -0.61 -0.00    +0.000 C 
DOCKED: ATOM     19  C   UNL     1      20.575 -10.393   0.979 -0.65 -0.00    +0.000 C 
DOCKED: BRANCH  19  20
DOCKED: ATOM     20  C   UNL     1      20.349 -11.178   2.210 -0.75 -0.00    +0.000 C 
DOCKED: ATOM     21  N   UNL     1      20.610 -10.650   3.517 -0.68 -0.00    +0.000 N 
DOCKED: ATOM     22  O   UNL     1      19.939 -12.364   2.098 -1.70 -0.00    +0.000 OA
DOCKED: ATOM     23  H   UNL     1      21.038  -9.769   3.614 -0.55 -0.00    +0.000 HD
DOCKED: BRANCH  21  24
DOCKED: ATOM     24  O   UNL     1      20.268 -11.359   4.620 -0.61 -0.00    +0.000 OA
DOCKED: ATOM     25  H   UNL     1      20.308 -12.307   4.419 -0.29 -0.00    +0.000 HD
DOCKED: ENDBRANCH  21  24
DOCKED: ENDBRANCH  19  20
DOCKED: ENDBRANCH   3  18
DOCKED: TORSDOF 6
DOCKED: TER
DOCKED: ENDMDL
________________________________________________________________________________


	BEGINNING GENETIC ALGORITHM DOCKING 42 of 100
Run: 42 Seed: 1853493045 392822810 [ Run 42 of 100 GA/GALS ]
Beginning LAMARCKIAN GENETIC ALGORITHM (LGA), with a maximum of 2500000 energy evaluations.

Final-Value: -13.154


	FINAL GENETIC ALGORITHM DOCKED STATE
	_______________________________________________


Detailed state:  trans 20.406 -11.550 -2.294 quatxyzw 0.476176 0.737259 0.029806 -0.478348 center 0.320 0.169 0.303 ntor 6 -117.4714 35.6120 -90.2445 104.8970 179.0765 -172.6231
State:	 20.406 -11.550  -2.294   0.542  0.840  0.034 -122.845   -117.47   35.61  -90.24  104.90  179.08 -172.62

DOCKED: MODEL       42
DOCKED: USER    Run = 42
DOCKED: USER    DPF = ligand_dock.biased.dpf
DOCKED: USER  
DOCKED: USER    Estimated Free Energy of Binding    =  -10.39 kcal/mol  [=(1)+(2)+(3)-(4)]
DOCKED: USER    Estimated Inhibition Constant, Ki   =   24.08 nM (nanomolar)  [Temperature = 298.15 K]
DOCKED: USER    
DOCKED: USER    (1) Final Intermolecular Energy     =  -12.18 kcal/mol
DOCKED: USER        vdW + Hbond + desolv Energy     =  -12.18 kcal/mol
DOCKED: USER        Electrostatic Energy            =   +0.00 kcal/mol
DOCKED: USER    (2) Final Total Internal Energy     =   -0.97 kcal/mol
DOCKED: USER    (3) Torsional Free Energy           =   +1.79 kcal/mol
DOCKED: USER    (4) Unbound System's Energy  [=(2)] =   -0.97 kcal/mol
DOCKED: USER    
DOCKED: USER    
DOCKED: USER    NEWDPF move ligand.pdbqt
DOCKED: USER    NEWDPF about 0.320000 0.169000 0.303000
DOCKED: USER    NEWDPF tran0 20.406447 -11.549866 -2.293635
DOCKED: USER    NEWDPF quaternion0 0.476176 0.737259 0.029806 -0.478348
DOCKED: USER    NEWDPF axisangle0 0.542236 0.839540 0.033941 -122.844855
DOCKED: USER    NEWDPF quat0 0.542236 0.839540 0.033941 -122.844855
DOCKED: USER    NEWDPF dihe0 -117.47 35.61 -90.24 104.90 179.08 -172.62 
DOCKED: USER  keepresnum = 1 
DOCKED: USER  
DOCKED: REMARK  Name = 
DOCKED: REMARK  6 active torsions:
DOCKED: REMARK  status: ('A' for Active; 'I' for Inactive)
DOCKED: REMARK    1  A    between atoms: S_2  and  N_3
DOCKED: REMARK    2  A    between atoms: S_2  and  C_10
DOCKED: REMARK    3  A    between atoms: N_3  and  C_4
DOCKED: REMARK    4  A    between atoms: C_12  and  C_13
DOCKED: REMARK    5  A    between atoms: C_14  and  C_15
DOCKED: REMARK    6  A    between atoms: N_16  and  O_17
DOCKED: REMARK                            x       y       z     vdW  Elec       q    Type
DOCKED: REMARK                         _______ _______ _______ _____ _____    ______ ____
DOCKED: USER                              x       y       z     vdW  Elec       q    Type
DOCKED: USER                           _______ _______ _______ _____ _____    ______ ____
DOCKED: ROOT
DOCKED: ATOM      1  C   UNL     1      19.104 -10.698  -0.529 -0.41 -0.00    +0.000 A 
DOCKED: ATOM      2  C   UNL     1      19.852 -10.709  -1.714 -0.41 -0.00    +0.000 A 
DOCKED: ATOM      3  C   UNL     1      19.218 -10.612  -2.965 -0.37 -0.00    +0.000 A 
DOCKED: ATOM      4  C   UNL     1      17.812 -10.520  -3.009 -0.18 -0.00    +0.000 A 
DOCKED: ATOM      5  C   UNL     1      17.068 -10.501  -1.826 -0.22 -0.00    +0.000 A 
DOCKED: ATOM      6  C   UNL     1      17.710 -10.585  -0.589 -0.23 -0.00    +0.000 A 
DOCKED: ENDROOT
DOCKED: BRANCH   1   8
DOCKED: ATOM      7  O   UNL     1      21.275 -10.185   0.973 -0.66 -0.00    +0.000 OA
DOCKED: ATOM      8  S   UNL     1      19.919 -10.831   1.027 -0.82 -0.00    +0.000 S 
DOCKED: ATOM      9  O   UNL     1      20.080 -12.285   1.365 -1.61 -0.00    +0.000 OA
DOCKED: BRANCH   8  10
DOCKED: ATOM     10  N   UNL     1      18.975 -10.058   2.264 -0.54 -0.00    +0.000 N 
DOCKED: ATOM     11  H   UNL     1      19.420  -9.394   2.837 -0.51 -0.00    +0.000 HD
DOCKED: BRANCH  10  12
DOCKED: ATOM     12  C   UNL     1      17.582 -10.332   2.499 -0.45 -0.00    +0.000 A 
DOCKED: ATOM     13  C   UNL     1      16.986 -11.552   2.123 -0.30 +0.00    +0.000 A 
DOCKED: ATOM     14  C   UNL     1      15.631 -11.785   2.376 -0.40 +0.00    +0.000 A 
DOCKED: ATOM     15  C   UNL     1      14.856 -10.805   3.001 -0.41 +0.00    +0.000 A 
DOCKED: ATOM     16  C   UNL     1      15.433  -9.589   3.370 -0.38 +0.00    +0.000 A 
DOCKED: ATOM     17  C   UNL     1      16.789  -9.352   3.121 -0.30 +0.00    +0.000 A 
DOCKED: ENDBRANCH  10  12
DOCKED: ENDBRANCH   8  10
DOCKED: ENDBRANCH   1   8
DOCKED: BRANCH   3  18
DOCKED: ATOM     18  C   UNL     1      20.057 -10.652  -4.189 -0.45 -0.00    +0.000 C 
DOCKED: ATOM     19  C   UNL     1      21.301 -11.152  -4.221 -0.46 -0.00    +0.000 C 
DOCKED: BRANCH  19  20
DOCKED: ATOM     20  C   UNL     1      22.132 -11.189  -5.443 -0.49 -0.00    +0.000 C 
DOCKED: ATOM     21  N   UNL     1      22.425 -12.410  -6.136 -0.43 -0.00    +0.000 N 
DOCKED: ATOM     22  O   UNL     1      22.620 -10.108  -5.869 -0.35 -0.00    +0.000 OA
DOCKED: ATOM     23  H   UNL     1      22.147 -13.272  -5.751 -0.54 -0.00    +0.000 HD
DOCKED: BRANCH  21  24
DOCKED: ATOM     24  O   UNL     1      23.083 -12.379  -7.321 -0.65 -0.00    +0.000 OA
DOCKED: ATOM     25  H   UNL     1      22.512 -12.740  -8.016 -0.61 -0.00    +0.000 HD
DOCKED: ENDBRANCH  21  24
DOCKED: ENDBRANCH  19  20
DOCKED: ENDBRANCH   3  18
DOCKED: TORSDOF 6
DOCKED: TER
DOCKED: ENDMDL
________________________________________________________________________________


	BEGINNING GENETIC ALGORITHM DOCKING 43 of 100
Run: 43 Seed: 123713566 202070351 [ Run 43 of 100 GA/GALS ]
Beginning LAMARCKIAN GENETIC ALGORITHM (LGA), with a maximum of 2500000 energy evaluations.

Final-Value: -12.776


	FINAL GENETIC ALGORITHM DOCKED STATE
	_______________________________________________


Detailed state:  trans 18.014 -10.334 -1.078 quatxyzw 0.797596 -0.166224 -0.568289 -0.115144 center 0.320 0.169 0.303 ntor 6 15.0283 -149.4969 153.1931 115.1176 -155.1063 -7.5541
State:	 18.014 -10.334  -1.078   0.803 -0.167 -0.572 -166.776     15.03 -149.50  153.19  115.12 -155.11   -7.55

DOCKED: MODEL       43
DOCKED: USER    Run = 43
DOCKED: USER    DPF = ligand_dock.biased.dpf
DOCKED: USER  
DOCKED: USER    Estimated Free Energy of Binding    =   -8.90 kcal/mol  [=(1)+(2)+(3)-(4)]
DOCKED: USER    Estimated Inhibition Constant, Ki   =  299.32 nM (nanomolar)  [Temperature = 298.15 K]
DOCKED: USER    
DOCKED: USER    (1) Final Intermolecular Energy     =  -10.69 kcal/mol
DOCKED: USER        vdW + Hbond + desolv Energy     =  -10.69 kcal/mol
DOCKED: USER        Electrostatic Energy            =   +0.00 kcal/mol
DOCKED: USER    (2) Final Total Internal Energy     =   -2.09 kcal/mol
DOCKED: USER    (3) Torsional Free Energy           =   +1.79 kcal/mol
DOCKED: USER    (4) Unbound System's Energy  [=(2)] =   -2.09 kcal/mol
DOCKED: USER    
DOCKED: USER    
DOCKED: USER    NEWDPF move ligand.pdbqt
DOCKED: USER    NEWDPF about 0.320000 0.169000 0.303000
DOCKED: USER    NEWDPF tran0 18.013569 -10.334015 -1.077662
DOCKED: USER    NEWDPF quaternion0 0.797596 -0.166224 -0.568289 -0.115144
DOCKED: USER    NEWDPF axisangle0 0.802937 -0.167337 -0.572094 -166.776193
DOCKED: USER    NEWDPF quat0 0.802937 -0.167337 -0.572094 -166.776193
DOCKED: USER    NEWDPF dihe0 15.03 -149.50 153.19 115.12 -155.11 -7.55 
DOCKED: USER  keepresnum = 1 
DOCKED: USER  
DOCKED: REMARK  Name = 
DOCKED: REMARK  6 active torsions:
DOCKED: REMARK  status: ('A' for Active; 'I' for Inactive)
DOCKED: REMARK    1  A    between atoms: S_2  and  N_3
DOCKED: REMARK    2  A    between atoms: S_2  and  C_10
DOCKED: REMARK    3  A    between atoms: N_3  and  C_4
DOCKED: REMARK    4  A    between atoms: C_12  and  C_13
DOCKED: REMARK    5  A    between atoms: C_14  and  C_15
DOCKED: REMARK    6  A    between atoms: N_16  and  O_17
DOCKED: REMARK                            x       y       z     vdW  Elec       q    Type
DOCKED: REMARK                         _______ _______ _______ _____ _____    ______ ____
DOCKED: USER                              x       y       z     vdW  Elec       q    Type
DOCKED: USER                           _______ _______ _______ _____ _____    ______ ____
DOCKED: ROOT
DOCKED: ATOM      1  C   UNL     1      19.950 -10.595   0.233 -0.55 -0.00    +0.000 A 
DOCKED: ATOM      2  C   UNL     1      19.051 -10.790  -0.824 -0.41 -0.00    +0.000 A 
DOCKED: ATOM      3  C   UNL     1      19.315 -10.258  -2.098 -0.33 -0.00    +0.000 A 
DOCKED: ATOM      4  C   UNL     1      20.493  -9.507  -2.291 -0.44 -0.00    +0.000 A 
DOCKED: ATOM      5  C   UNL     1      21.391  -9.320  -1.237 -0.54 -0.00    +0.000 A 
DOCKED: ATOM      6  C   UNL     1      21.125  -9.865   0.020 -0.61 -0.00    +0.000 A 
DOCKED: ENDROOT
DOCKED: BRANCH   1   8
DOCKED: ATOM      7  O   UNL     1      20.437 -10.601   2.878 -0.83 -0.00    +0.000 OA
DOCKED: ATOM      8  S   UNL     1      19.594 -11.263   1.824 -0.87 -0.00    +0.000 S 
DOCKED: ATOM      9  O   UNL     1      19.895 -12.734   1.808 -1.58 -0.00    +0.000 OA
DOCKED: BRANCH   8  10
DOCKED: ATOM     10  N   UNL     1      17.917 -11.027   2.210 -0.46 -0.00    +0.000 N 
DOCKED: ATOM     11  H   UNL     1      17.698 -10.472   2.993 -0.02 +0.00    +0.000 HD
DOCKED: BRANCH  10  12
DOCKED: ATOM     12  C   UNL     1      16.832 -11.594   1.455 -0.40 +0.00    +0.000 A 
DOCKED: ATOM     13  C   UNL     1      15.521 -11.086   1.534 -0.35 +0.00    +0.000 A 
DOCKED: ATOM     14  C   UNL     1      14.493 -11.658   0.778 -0.39 +0.00    +0.000 A 
DOCKED: ATOM     15  C   UNL     1      14.760 -12.742  -0.060 -0.46 +0.00    +0.000 A 
DOCKED: ATOM     16  C   UNL     1      16.054 -13.260  -0.141 -0.47 +0.00    +0.000 A 
DOCKED: ATOM     17  C   UNL     1      17.085 -12.690   0.612 -0.45 +0.00    +0.000 A 
DOCKED: ENDBRANCH  10  12
DOCKED: ENDBRANCH   8  10
DOCKED: ENDBRANCH   1   8
DOCKED: BRANCH   3  18
DOCKED: ATOM     18  C   UNL     1      18.319 -10.476  -3.177 -0.31 -0.00    +0.000 C 
DOCKED: ATOM     19  C   UNL     1      16.999 -10.301  -3.016 -0.21 -0.00    +0.000 C 
DOCKED: BRANCH  19  20
DOCKED: ATOM     20  C   UNL     1      16.011 -10.519  -4.093 -0.23 -0.00    +0.000 C 
DOCKED: ATOM     21  N   UNL     1      14.787 -11.235  -3.880 -0.29 -0.00    +0.000 N 
DOCKED: ATOM     22  O   UNL     1      16.274 -10.082  -5.245 -0.20 -0.00    +0.000 OA
DOCKED: ATOM     23  H   UNL     1      14.623 -11.680  -3.017 -0.03 -0.00    +0.000 HD
DOCKED: BRANCH  21  24
DOCKED: ATOM     24  O   UNL     1      13.855 -11.299  -4.862 -0.30 -0.00    +0.000 OA
DOCKED: ATOM     25  H   UNL     1      14.253 -11.027  -5.703 -0.00 -0.00    +0.000 HD
DOCKED: ENDBRANCH  21  24
DOCKED: ENDBRANCH  19  20
DOCKED: ENDBRANCH   3  18
DOCKED: TORSDOF 6
DOCKED: TER
DOCKED: ENDMDL
________________________________________________________________________________


	BEGINNING GENETIC ALGORITHM DOCKING 44 of 100
Run: 44 Seed: 1220054080 2040258051 [ Run 44 of 100 GA/GALS ]
Beginning LAMARCKIAN GENETIC ALGORITHM (LGA), with a maximum of 2500000 energy evaluations.

Final-Value: -14.080


	FINAL GENETIC ALGORITHM DOCKED STATE
	_______________________________________________


Detailed state:  trans 21.582 -10.961 -1.915 quatxyzw -0.253961 0.274888 -0.859438 0.348290 center 0.320 0.169 0.303 ntor 6 41.5679 -119.3761 29.1884 -40.9612 138.3956 167.2568
State:	 21.582 -10.961  -1.915  -0.271  0.293 -0.917 139.234     41.57 -119.38   29.19  -40.96  138.40  167.26

DOCKED: MODEL       44
DOCKED: USER    Run = 44
DOCKED: USER    DPF = ligand_dock.biased.dpf
DOCKED: USER  
DOCKED: USER    Estimated Free Energy of Binding    =  -10.84 kcal/mol  [=(1)+(2)+(3)-(4)]
DOCKED: USER    Estimated Inhibition Constant, Ki   =   11.34 nM (nanomolar)  [Temperature = 298.15 K]
DOCKED: USER    
DOCKED: USER    (1) Final Intermolecular Energy     =  -12.63 kcal/mol
DOCKED: USER        vdW + Hbond + desolv Energy     =  -12.63 kcal/mol
DOCKED: USER        Electrostatic Energy            =   +0.00 kcal/mol
DOCKED: USER    (2) Final Total Internal Energy     =   -1.45 kcal/mol
DOCKED: USER    (3) Torsional Free Energy           =   +1.79 kcal/mol
DOCKED: USER    (4) Unbound System's Energy  [=(2)] =   -1.45 kcal/mol
DOCKED: USER    
DOCKED: USER    
DOCKED: USER    NEWDPF move ligand.pdbqt
DOCKED: USER    NEWDPF about 0.320000 0.169000 0.303000
DOCKED: USER    NEWDPF tran0 21.581806 -10.960636 -1.915336
DOCKED: USER    NEWDPF quaternion0 -0.253961 0.274888 -0.859438 0.348290
DOCKED: USER    NEWDPF axisangle0 -0.270924 0.293250 -0.916845 139.234499
DOCKED: USER    NEWDPF quat0 -0.270924 0.293250 -0.916845 139.234499
DOCKED: USER    NEWDPF dihe0 41.57 -119.38 29.19 -40.96 138.40 167.26 
DOCKED: USER  keepresnum = 1 
DOCKED: USER  
DOCKED: REMARK  Name = 
DOCKED: REMARK  6 active torsions:
DOCKED: REMARK  status: ('A' for Active; 'I' for Inactive)
DOCKED: REMARK    1  A    between atoms: S_2  and  N_3
DOCKED: REMARK    2  A    between atoms: S_2  and  C_10
DOCKED: REMARK    3  A    between atoms: N_3  and  C_4
DOCKED: REMARK    4  A    between atoms: C_12  and  C_13
DOCKED: REMARK    5  A    between atoms: C_14  and  C_15
DOCKED: REMARK    6  A    between atoms: N_16  and  O_17
DOCKED: REMARK                            x       y       z     vdW  Elec       q    Type
DOCKED: REMARK                         _______ _______ _______ _____ _____    ______ ____
DOCKED: USER                              x       y       z     vdW  Elec       q    Type
DOCKED: USER                           _______ _______ _______ _____ _____    ______ ____
DOCKED: ROOT
DOCKED: ATOM      1  C   UNL     1      20.969  -9.986  -3.967 -0.41 -0.00    +0.000 A 
DOCKED: ATOM      2  C   UNL     1      20.874 -10.371  -2.623 -0.49 -0.00    +0.000 A 
DOCKED: ATOM      3  C   UNL     1      21.042  -9.429  -1.593 -0.54 -0.00    +0.000 A 
DOCKED: ATOM      4  C   UNL     1      21.324  -8.091  -1.935 -0.44 -0.00    +0.000 A 
DOCKED: ATOM      5  C   UNL     1      21.411  -7.708  -3.276 -0.35 -0.00    +0.000 A 
DOCKED: ATOM      6  C   UNL     1      21.229  -8.649  -4.290 -0.31 -0.00    +0.000 A 
DOCKED: ENDROOT
DOCKED: BRANCH   1   8
DOCKED: ATOM      7  O   UNL     1      20.214 -12.466  -4.682 -0.68 -0.00    +0.000 OA
DOCKED: ATOM      8  S   UNL     1      20.765 -11.185  -5.242 -0.62 -0.00    +0.000 S 
DOCKED: ATOM      9  O   UNL     1      22.104 -11.458  -5.866 -0.56 -0.00    +0.000 OA
DOCKED: BRANCH   8  10
DOCKED: ATOM     10  N   UNL     1      19.680 -10.586  -6.458 -0.29 -0.00    +0.000 N 
DOCKED: ATOM     11  H   UNL     1      20.055 -10.032  -7.180 -0.00 -0.00    +0.000 HD
DOCKED: BRANCH  10  12
DOCKED: ATOM     12  C   UNL     1      18.265 -10.850  -6.472 -0.31 -0.00    +0.000 A 
DOCKED: ATOM     13  C   UNL     1      17.603 -11.312  -7.627 -0.31 -0.00    +0.000 A 
DOCKED: ATOM     14  C   UNL     1      16.228 -11.567  -7.600 -0.31 -0.00    +0.000 A 
DOCKED: ATOM     15  C   UNL     1      15.501 -11.360  -6.426 -0.26 -0.00    +0.000 A 
DOCKED: ATOM     16  C   UNL     1      16.144 -10.895  -5.278 -0.22 -0.00    +0.000 A 
DOCKED: ATOM     17  C   UNL     1      17.519 -10.641  -5.300 -0.25 -0.00    +0.000 A 
DOCKED: ENDBRANCH  10  12
DOCKED: ENDBRANCH   8  10
DOCKED: ENDBRANCH   1   8
DOCKED: BRANCH   3  18
DOCKED: ATOM     18  C   UNL     1      20.953  -9.895  -0.187 -0.69 -0.00    +0.000 C 
DOCKED: ATOM     19  C   UNL     1      20.348 -11.034   0.183 -0.65 -0.00    +0.000 C 
DOCKED: BRANCH  19  20
DOCKED: ATOM     20  C   UNL     1      20.262 -11.493   1.585 -0.76 -0.00    +0.000 C 
DOCKED: ATOM     21  N   UNL     1      20.617 -10.653   2.691 -0.63 -0.00    +0.000 N 
DOCKED: ATOM     22  O   UNL     1      19.890 -12.676   1.806 -1.61 -0.00    +0.000 OA
DOCKED: ATOM     23  H   UNL     1      21.017  -9.769   2.528 -0.59 -0.00    +0.000 HD
DOCKED: BRANCH  21  24
DOCKED: ATOM     24  O   UNL     1      20.401 -11.073   3.962 -0.80 -0.00    +0.000 OA
DOCKED: ATOM     25  H   UNL     1      20.643 -12.008   4.038 -0.53 -0.00    +0.000 HD
DOCKED: ENDBRANCH  21  24
DOCKED: ENDBRANCH  19  20
DOCKED: ENDBRANCH   3  18
DOCKED: TORSDOF 6
DOCKED: TER
DOCKED: ENDMDL
________________________________________________________________________________


	BEGINNING GENETIC ALGORITHM DOCKING 45 of 100
Run: 45 Seed: 1062024677 1556997234 [ Run 45 of 100 GA/GALS ]
Beginning LAMARCKIAN GENETIC ALGORITHM (LGA), with a maximum of 2500000 energy evaluations.

Final-Value: -13.440


	FINAL GENETIC ALGORITHM DOCKED STATE
	_______________________________________________


Detailed state:  trans 20.404 -8.210 -0.874 quatxyzw -0.201967 0.126576 0.454974 0.858013 center 0.320 0.169 0.303 ntor 6 38.0155 -167.1767 -176.3015 -147.2643 171.9642 -21.7343
State:	 20.404  -8.210  -0.874  -0.393  0.246  0.886 61.812     38.02 -167.18 -176.30 -147.26  171.96  -21.73

DOCKED: MODEL       45
DOCKED: USER    Run = 45
DOCKED: USER    DPF = ligand_dock.biased.dpf
DOCKED: USER  
DOCKED: USER    Estimated Free Energy of Binding    =  -10.34 kcal/mol  [=(1)+(2)+(3)-(4)]
DOCKED: USER    Estimated Inhibition Constant, Ki   =   26.19 nM (nanomolar)  [Temperature = 298.15 K]
DOCKED: USER    
DOCKED: USER    (1) Final Intermolecular Energy     =  -12.13 kcal/mol
DOCKED: USER        vdW + Hbond + desolv Energy     =  -12.13 kcal/mol
DOCKED: USER        Electrostatic Energy            =   +0.00 kcal/mol
DOCKED: USER    (2) Final Total Internal Energy     =   -1.31 kcal/mol
DOCKED: USER    (3) Torsional Free Energy           =   +1.79 kcal/mol
DOCKED: USER    (4) Unbound System's Energy  [=(2)] =   -1.31 kcal/mol
DOCKED: USER    
DOCKED: USER    
DOCKED: USER    NEWDPF move ligand.pdbqt
DOCKED: USER    NEWDPF about 0.320000 0.169000 0.303000
DOCKED: USER    NEWDPF tran0 20.404463 -8.209873 -0.873881
DOCKED: USER    NEWDPF quaternion0 -0.201967 0.126576 0.454974 0.858013
DOCKED: USER    NEWDPF axisangle0 -0.393217 0.246436 0.885805 61.811637
DOCKED: USER    NEWDPF quat0 -0.393217 0.246436 0.885805 61.811637
DOCKED: USER    NEWDPF dihe0 38.02 -167.18 -176.30 -147.26 171.96 -21.73 
DOCKED: USER  keepresnum = 1 
DOCKED: USER  
DOCKED: REMARK  Name = 
DOCKED: REMARK  6 active torsions:
DOCKED: REMARK  status: ('A' for Active; 'I' for Inactive)
DOCKED: REMARK    1  A    between atoms: S_2  and  N_3
DOCKED: REMARK    2  A    between atoms: S_2  and  C_10
DOCKED: REMARK    3  A    between atoms: N_3  and  C_4
DOCKED: REMARK    4  A    between atoms: C_12  and  C_13
DOCKED: REMARK    5  A    between atoms: C_14  and  C_15
DOCKED: REMARK    6  A    between atoms: N_16  and  O_17
DOCKED: REMARK                            x       y       z     vdW  Elec       q    Type
DOCKED: REMARK                         _______ _______ _______ _____ _____    ______ ____
DOCKED: USER                              x       y       z     vdW  Elec       q    Type
DOCKED: USER                           _______ _______ _______ _____ _____    ______ ____
DOCKED: ROOT
DOCKED: ATOM      1  C   UNL     1      21.400  -7.072  -2.676 -0.39 -0.00    +0.000 A 
DOCKED: ATOM      2  C   UNL     1      21.255  -8.000  -1.637 -0.41 -0.00    +0.000 A 
DOCKED: ATOM      3  C   UNL     1      20.997  -9.354  -1.914 -0.51 -0.00    +0.000 A 
DOCKED: ATOM      4  C   UNL     1      20.869  -9.760  -3.258 -0.44 -0.00    +0.000 A 
DOCKED: ATOM      5  C   UNL     1      21.021  -8.834  -4.294 -0.31 -0.00    +0.000 A 
DOCKED: ATOM      6  C   UNL     1      21.290  -7.495  -4.006 -0.29 -0.00    +0.000 A 
DOCKED: ENDROOT
DOCKED: BRANCH   1   8
DOCKED: ATOM      7  O   UNL     1      21.754  -4.558  -3.565 -0.19 -0.00    +0.000 OA
DOCKED: ATOM      8  S   UNL     1      21.713  -5.378  -2.306 -0.51 -0.00    +0.000 S 
DOCKED: ATOM      9  O   UNL     1      23.039  -5.273  -1.609 -0.63 +0.00    +0.000 OA
DOCKED: BRANCH   8  10
DOCKED: ATOM     10  N   UNL     1      20.470  -4.754  -1.265 -0.44 +0.00    +0.000 N 
DOCKED: ATOM     11  H   UNL     1      19.610  -5.233  -1.233 -0.04 -0.00    +0.000 HD
DOCKED: BRANCH  10  12
DOCKED: ATOM     12  C   UNL     1      20.621  -3.579  -0.448 -0.39 +0.00    +0.000 A 
DOCKED: ATOM     13  C   UNL     1      19.597  -3.126   0.406 -0.24 -0.00    +0.000 A 
DOCKED: ATOM     14  C   UNL     1      19.785  -1.985   1.192 -0.37 -0.00    +0.000 A 
DOCKED: ATOM     15  C   UNL     1      20.990  -1.283   1.132 -0.34 -0.00    +0.000 A 
DOCKED: ATOM     16  C   UNL     1      22.010  -1.719   0.284 -0.31 -0.00    +0.000 A 
DOCKED: ATOM     17  C   UNL     1      21.827  -2.860  -0.503 -0.32 +0.00    +0.000 A 
DOCKED: ENDBRANCH  10  12
DOCKED: ENDBRANCH   8  10
DOCKED: ENDBRANCH   1   8
DOCKED: BRANCH   3  18
DOCKED: ATOM     18  C   UNL     1      20.831 -10.290  -0.775 -0.66 -0.00    +0.000 C 
DOCKED: ATOM     19  C   UNL     1      20.660  -9.893   0.495 -0.59 -0.00    +0.000 C 
DOCKED: BRANCH  19  20
DOCKED: ATOM     20  C   UNL     1      20.495 -10.830   1.626 -0.69 -0.00    +0.000 C 
DOCKED: ATOM     21  N   UNL     1      20.619 -10.415   2.992 -0.54 -0.00    +0.000 N 
DOCKED: ATOM     22  O   UNL     1      20.264 -12.043   1.371 -1.60 -0.00    +0.000 OA
DOCKED: ATOM     23  H   UNL     1      20.911  -9.498   3.202 -0.60 -0.00    +0.000 HD
DOCKED: BRANCH  21  24
DOCKED: ATOM     24  O   UNL     1      20.333 -11.279   3.996 -0.80 -0.00    +0.000 OA
DOCKED: ATOM     25  H   UNL     1      20.640 -12.166   3.755 -0.51 -0.00    +0.000 HD
DOCKED: ENDBRANCH  21  24
DOCKED: ENDBRANCH  19  20
DOCKED: ENDBRANCH   3  18
DOCKED: TORSDOF 6
DOCKED: TER
DOCKED: ENDMDL
________________________________________________________________________________


	BEGINNING GENETIC ALGORITHM DOCKING 46 of 100
Run: 46 Seed: 536459944 1995405308 [ Run 46 of 100 GA/GALS ]
Beginning LAMARCKIAN GENETIC ALGORITHM (LGA), with a maximum of 2500000 energy evaluations.

Final-Value: -14.311


	FINAL GENETIC ALGORITHM DOCKED STATE
	_______________________________________________


Detailed state:  trans 21.936 -11.338 -2.317 quatxyzw 0.310579 -0.323200 0.857352 -0.253042 center 0.320 0.169 0.303 ntor 6 22.8059 -105.1798 140.6446 156.3826 30.2993 -117.6360
State:	 21.936 -11.338  -2.317   0.321 -0.334  0.886 -150.685     22.81 -105.18  140.64  156.38   30.30 -117.64

DOCKED: MODEL       46
DOCKED: USER    Run = 46
DOCKED: USER    DPF = ligand_dock.biased.dpf
DOCKED: USER  
DOCKED: USER    Estimated Free Energy of Binding    =  -11.05 kcal/mol  [=(1)+(2)+(3)-(4)]
DOCKED: USER    Estimated Inhibition Constant, Ki   =    7.91 nM (nanomolar)  [Temperature = 298.15 K]
DOCKED: USER    
DOCKED: USER    (1) Final Intermolecular Energy     =  -12.84 kcal/mol
DOCKED: USER        vdW + Hbond + desolv Energy     =  -12.84 kcal/mol
DOCKED: USER        Electrostatic Energy            =   +0.00 kcal/mol
DOCKED: USER    (2) Final Total Internal Energy     =   -1.47 kcal/mol
DOCKED: USER    (3) Torsional Free Energy           =   +1.79 kcal/mol
DOCKED: USER    (4) Unbound System's Energy  [=(2)] =   -1.47 kcal/mol
DOCKED: USER    
DOCKED: USER    
DOCKED: USER    NEWDPF move ligand.pdbqt
DOCKED: USER    NEWDPF about 0.320000 0.169000 0.303000
DOCKED: USER    NEWDPF tran0 21.935835 -11.337879 -2.316704
DOCKED: USER    NEWDPF quaternion0 0.310579 -0.323200 0.857352 -0.253042
DOCKED: USER    NEWDPF axisangle0 0.321027 -0.334073 0.886192 -150.684828
DOCKED: USER    NEWDPF quat0 0.321027 -0.334073 0.886192 -150.684828
DOCKED: USER    NEWDPF dihe0 22.81 -105.18 140.64 156.38 30.30 -117.64 
DOCKED: USER  keepresnum = 1 
DOCKED: USER  
DOCKED: REMARK  Name = 
DOCKED: REMARK  6 active torsions:
DOCKED: REMARK  status: ('A' for Active; 'I' for Inactive)
DOCKED: REMARK    1  A    between atoms: S_2  and  N_3
DOCKED: REMARK    2  A    between atoms: S_2  and  C_10
DOCKED: REMARK    3  A    between atoms: N_3  and  C_4
DOCKED: REMARK    4  A    between atoms: C_12  and  C_13
DOCKED: REMARK    5  A    between atoms: C_14  and  C_15
DOCKED: REMARK    6  A    between atoms: N_16  and  O_17
DOCKED: REMARK                            x       y       z     vdW  Elec       q    Type
DOCKED: REMARK                         _______ _______ _______ _____ _____    ______ ____
DOCKED: USER                              x       y       z     vdW  Elec       q    Type
DOCKED: USER                           _______ _______ _______ _____ _____    ______ ____
DOCKED: ROOT
DOCKED: ATOM      1  C   UNL     1      21.115 -10.147  -4.172 -0.42 -0.00    +0.000 A 
DOCKED: ATOM      2  C   UNL     1      21.121 -10.764  -2.914 -0.40 -0.00    +0.000 A 
DOCKED: ATOM      3  C   UNL     1      21.157  -9.997  -1.737 -0.55 -0.00    +0.000 A 
DOCKED: ATOM      4  C   UNL     1      21.203  -8.591  -1.844 -0.46 -0.00    +0.000 A 
DOCKED: ATOM      5  C   UNL     1      21.189  -7.977  -3.099 -0.37 -0.00    +0.000 A 
DOCKED: ATOM      6  C   UNL     1      21.140  -8.750  -4.260 -0.32 -0.00    +0.000 A 
DOCKED: ENDROOT
DOCKED: BRANCH   1   8
DOCKED: ATOM      7  O   UNL     1      19.664 -11.458  -6.019 -0.44 -0.00    +0.000 OA
DOCKED: ATOM      8  S   UNL     1      21.079 -11.129  -5.634 -0.59 -0.00    +0.000 S 
DOCKED: ATOM      9  O   UNL     1      21.827 -12.405  -5.376 -0.83 -0.00    +0.000 OA
DOCKED: BRANCH   8  10
DOCKED: ATOM     10  N   UNL     1      21.838 -10.277  -6.944 -0.28 -0.00    +0.000 N 
DOCKED: ATOM     11  H   UNL     1      21.331  -9.556  -7.381 +0.00 -0.00    +0.000 HD
DOCKED: BRANCH  10  12
DOCKED: ATOM     12  C   UNL     1      23.162 -10.564  -7.429 -0.32 -0.00    +0.000 A 
DOCKED: ATOM     13  C   UNL     1      24.207  -9.623  -7.350 -0.24 -0.00    +0.000 A 
DOCKED: ATOM     14  C   UNL     1      25.484  -9.941  -7.823 -0.31 -0.00    +0.000 A 
DOCKED: ATOM     15  C   UNL     1      25.730 -11.197  -8.382 -0.37 -0.00    +0.000 A 
DOCKED: ATOM     16  C   UNL     1      24.701 -12.136  -8.473 -0.42 -0.00    +0.000 A 
DOCKED: ATOM     17  C   UNL     1      23.423 -11.822  -7.999 -0.42 -0.00    +0.000 A 
DOCKED: ENDBRANCH  10  12
DOCKED: ENDBRANCH   8  10
DOCKED: ENDBRANCH   1   8
DOCKED: BRANCH   3  18
DOCKED: ATOM     18  C   UNL     1      21.185 -10.702  -0.432 -0.65 -0.00    +0.000 C 
DOCKED: ATOM     19  C   UNL     1      20.340 -10.436   0.575 -0.66 -0.00    +0.000 C 
DOCKED: BRANCH  19  20
DOCKED: ATOM     20  C   UNL     1      20.372 -11.142   1.873 -0.74 -0.00    +0.000 C 
DOCKED: ATOM     21  N   UNL     1      20.542 -10.452   3.119 -0.61 -0.00    +0.000 N 
DOCKED: ATOM     22  O   UNL     1      20.273 -12.398   1.875 -1.68 -0.00    +0.000 OA
DOCKED: ATOM     23  H   UNL     1      20.735  -9.487   3.123 -0.59 -0.00    +0.000 HD
DOCKED: BRANCH  21  24
DOCKED: ATOM     24  O   UNL     1      20.437 -11.125   4.290 -0.71 -0.00    +0.000 OA
DOCKED: ATOM     25  H   UNL     1      20.605 -12.068   4.137 -0.49 -0.00    +0.000 HD
DOCKED: ENDBRANCH  21  24
DOCKED: ENDBRANCH  19  20
DOCKED: ENDBRANCH   3  18
DOCKED: TORSDOF 6
DOCKED: TER
DOCKED: ENDMDL
________________________________________________________________________________


	BEGINNING GENETIC ALGORITHM DOCKING 47 of 100
Run: 47 Seed: 1842683167 1593806704 [ Run 47 of 100 GA/GALS ]
Beginning LAMARCKIAN GENETIC ALGORITHM (LGA), with a maximum of 2500000 energy evaluations.

Final-Value: -12.852


	FINAL GENETIC ALGORITHM DOCKED STATE
	_______________________________________________


Detailed state:  trans 17.957 -10.075 -1.222 quatxyzw -0.730907 0.236073 0.637812 0.056926 center 0.320 0.169 0.303 ntor 6 9.3248 -52.3279 133.8412 -10.1075 180.0000 65.5721
State:	 17.957 -10.075  -1.222  -0.732  0.236  0.639 173.473      9.32  -52.33  133.84  -10.11  180.00   65.57

DOCKED: MODEL       47
DOCKED: USER    Run = 47
DOCKED: USER    DPF = ligand_dock.biased.dpf
DOCKED: USER  
DOCKED: USER    Estimated Free Energy of Binding    =   -8.84 kcal/mol  [=(1)+(2)+(3)-(4)]
DOCKED: USER    Estimated Inhibition Constant, Ki   =  332.79 nM (nanomolar)  [Temperature = 298.15 K]
DOCKED: USER    
DOCKED: USER    (1) Final Intermolecular Energy     =  -10.63 kcal/mol
DOCKED: USER        vdW + Hbond + desolv Energy     =  -10.63 kcal/mol
DOCKED: USER        Electrostatic Energy            =   +0.00 kcal/mol
DOCKED: USER    (2) Final Total Internal Energy     =   -2.22 kcal/mol
DOCKED: USER    (3) Torsional Free Energy           =   +1.79 kcal/mol
DOCKED: USER    (4) Unbound System's Energy  [=(2)] =   -2.22 kcal/mol
DOCKED: USER    
DOCKED: USER    
DOCKED: USER    NEWDPF move ligand.pdbqt
DOCKED: USER    NEWDPF about 0.320000 0.169000 0.303000
DOCKED: USER    NEWDPF tran0 17.956677 -10.074580 -1.221963
DOCKED: USER    NEWDPF quaternion0 -0.730907 0.236073 0.637812 0.056926
DOCKED: USER    NEWDPF axisangle0 -0.732094 0.236456 0.638848 173.473184
DOCKED: USER    NEWDPF quat0 -0.732094 0.236456 0.638848 173.473184
DOCKED: USER    NEWDPF dihe0 9.32 -52.33 133.84 -10.11 180.00 65.57 
DOCKED: USER  keepresnum = 1 
DOCKED: USER  
DOCKED: REMARK  Name = 
DOCKED: REMARK  6 active torsions:
DOCKED: REMARK  status: ('A' for Active; 'I' for Inactive)
DOCKED: REMARK    1  A    between atoms: S_2  and  N_3
DOCKED: REMARK    2  A    between atoms: S_2  and  C_10
DOCKED: REMARK    3  A    between atoms: N_3  and  C_4
DOCKED: REMARK    4  A    between atoms: C_12  and  C_13
DOCKED: REMARK    5  A    between atoms: C_14  and  C_15
DOCKED: REMARK    6  A    between atoms: N_16  and  O_17
DOCKED: REMARK                            x       y       z     vdW  Elec       q    Type
DOCKED: REMARK                         _______ _______ _______ _____ _____    ______ ____
DOCKED: USER                              x       y       z     vdW  Elec       q    Type
DOCKED: USER                           _______ _______ _______ _____ _____    ______ ____
DOCKED: ROOT
DOCKED: ATOM      1  C   UNL     1      19.963 -10.789  -0.223 -0.53 -0.00    +0.000 A 
DOCKED: ATOM      2  C   UNL     1      18.898 -10.750  -1.132 -0.37 -0.00    +0.000 A 
DOCKED: ATOM      3  C   UNL     1      19.079 -10.238  -2.428 -0.30 -0.00    +0.000 A 
DOCKED: ATOM      4  C   UNL     1      20.349  -9.748  -2.795 -0.42 -0.00    +0.000 A 
DOCKED: ATOM      5  C   UNL     1      21.412  -9.795  -1.889 -0.50 -0.00    +0.000 A 
DOCKED: ATOM      6  C   UNL     1      21.223 -10.319  -0.608 -0.62 -0.00    +0.000 A 
DOCKED: ENDROOT
DOCKED: BRANCH   1   8
DOCKED: ATOM      7  O   UNL     1      19.285 -10.332   2.340 -0.70 -0.00    +0.000 OA
DOCKED: ATOM      8  S   UNL     1      19.711 -11.426   1.401 -0.87 -0.00    +0.000 S 
DOCKED: ATOM      9  O   UNL     1      20.999 -12.020   1.892 -1.28 -0.00    +0.000 OA
DOCKED: BRANCH   8  10
DOCKED: ATOM     10  N   UNL     1      18.487 -12.658   1.376 -0.51 -0.00    +0.000 N 
DOCKED: ATOM     11  H   UNL     1      18.746 -13.572   1.631 -0.42 -0.00    +0.000 HD
DOCKED: BRANCH  10  12
DOCKED: ATOM     12  C   UNL     1      17.116 -12.421   1.006 -0.42 +0.00    +0.000 A 
DOCKED: ATOM     13  C   UNL     1      16.278 -11.569   1.751 -0.40 +0.00    +0.000 A 
DOCKED: ATOM     14  C   UNL     1      14.954 -11.356   1.355 -0.37 +0.00    +0.000 A 
DOCKED: ATOM     15  C   UNL     1      14.452 -11.992   0.218 -0.41 +0.00    +0.000 A 
DOCKED: ATOM     16  C   UNL     1      15.271 -12.844  -0.525 -0.48 +0.00    +0.000 A 
DOCKED: ATOM     17  C   UNL     1      16.596 -13.059  -0.133 -0.47 +0.00    +0.000 A 
DOCKED: ENDBRANCH  10  12
DOCKED: ENDBRANCH   8  10
DOCKED: ENDBRANCH   1   8
DOCKED: BRANCH   3  18
DOCKED: ATOM     18  C   UNL     1      17.911 -10.199  -3.344 -0.28 -0.00    +0.000 C 
DOCKED: ATOM     19  C   UNL     1      16.637 -10.229  -2.925 -0.24 -0.00    +0.000 C 
DOCKED: BRANCH  19  20
DOCKED: ATOM     20  C   UNL     1      15.478 -10.190  -3.841 -0.25 -0.00    +0.000 C 
DOCKED: ATOM     21  N   UNL     1      14.558 -11.282  -3.962 -0.30 -0.00    +0.000 N 
DOCKED: ATOM     22  O   UNL     1      15.314  -9.166  -4.558 -0.15 -0.00    +0.000 OA
DOCKED: ATOM     23  H   UNL     1      14.738 -12.130  -3.495 -0.04 -0.00    +0.000 HD
DOCKED: BRANCH  21  24
DOCKED: ATOM     24  O   UNL     1      13.440 -11.151  -4.717 -0.25 -0.00    +0.000 OA
DOCKED: ATOM     25  H   UNL     1      13.485 -10.323  -5.220 -0.01 -0.00    +0.000 HD
DOCKED: ENDBRANCH  21  24
DOCKED: ENDBRANCH  19  20
DOCKED: ENDBRANCH   3  18
DOCKED: TORSDOF 6
DOCKED: TER
DOCKED: ENDMDL
________________________________________________________________________________


	BEGINNING GENETIC ALGORITHM DOCKING 48 of 100
Run: 48 Seed: 1715249065 849972608 [ Run 48 of 100 GA/GALS ]
Beginning LAMARCKIAN GENETIC ALGORITHM (LGA), with a maximum of 2500000 energy evaluations.

Final-Value: -12.887


	FINAL GENETIC ALGORITHM DOCKED STATE
	_______________________________________________


Detailed state:  trans 17.944 -10.293 -1.326 quatxyzw 0.763379 -0.203699 -0.606692 -0.087659 center 0.320 0.169 0.303 ntor 6 2.4335 -47.0051 125.8071 -9.4894 -155.9917 58.8569
State:	 17.944 -10.293  -1.326   0.766 -0.204 -0.609 -169.942      2.43  -47.01  125.81   -9.49 -155.99   58.86

DOCKED: MODEL       48
DOCKED: USER    Run = 48
DOCKED: USER    DPF = ligand_dock.biased.dpf
DOCKED: USER  
DOCKED: USER    Estimated Free Energy of Binding    =   -8.91 kcal/mol  [=(1)+(2)+(3)-(4)]
DOCKED: USER    Estimated Inhibition Constant, Ki   =  295.13 nM (nanomolar)  [Temperature = 298.15 K]
DOCKED: USER    
DOCKED: USER    (1) Final Intermolecular Energy     =  -10.70 kcal/mol
DOCKED: USER        vdW + Hbond + desolv Energy     =  -10.70 kcal/mol
DOCKED: USER        Electrostatic Energy            =   +0.00 kcal/mol
DOCKED: USER    (2) Final Total Internal Energy     =   -2.19 kcal/mol
DOCKED: USER    (3) Torsional Free Energy           =   +1.79 kcal/mol
DOCKED: USER    (4) Unbound System's Energy  [=(2)] =   -2.19 kcal/mol
DOCKED: USER    
DOCKED: USER    
DOCKED: USER    NEWDPF move ligand.pdbqt
DOCKED: USER    NEWDPF about 0.320000 0.169000 0.303000
DOCKED: USER    NEWDPF tran0 17.944342 -10.292634 -1.325604
DOCKED: USER    NEWDPF quaternion0 0.763379 -0.203699 -0.606692 -0.087659
DOCKED: USER    NEWDPF axisangle0 0.766329 -0.204486 -0.609036 -169.942095
DOCKED: USER    NEWDPF quat0 0.766329 -0.204486 -0.609036 -169.942095
DOCKED: USER    NEWDPF dihe0 2.43 -47.01 125.81 -9.49 -155.99 58.86 
DOCKED: USER  keepresnum = 1 
DOCKED: USER  
DOCKED: REMARK  Name = 
DOCKED: REMARK  6 active torsions:
DOCKED: REMARK  status: ('A' for Active; 'I' for Inactive)
DOCKED: REMARK    1  A    between atoms: S_2  and  N_3
DOCKED: REMARK    2  A    between atoms: S_2  and  C_10
DOCKED: REMARK    3  A    between atoms: N_3  and  C_4
DOCKED: REMARK    4  A    between atoms: C_12  and  C_13
DOCKED: REMARK    5  A    between atoms: C_14  and  C_15
DOCKED: REMARK    6  A    between atoms: N_16  and  O_17
DOCKED: REMARK                            x       y       z     vdW  Elec       q    Type
DOCKED: REMARK                         _______ _______ _______ _____ _____    ______ ____
DOCKED: USER                              x       y       z     vdW  Elec       q    Type
DOCKED: USER                           _______ _______ _______ _____ _____    ______ ____
DOCKED: ROOT
DOCKED: ATOM      1  C   UNL     1      19.940 -10.780  -0.180 -0.53 -0.00    +0.000 A 
DOCKED: ATOM      2  C   UNL     1      18.942 -10.864  -1.160 -0.40 -0.00    +0.000 A 
DOCKED: ATOM      3  C   UNL     1      19.158 -10.350  -2.450 -0.34 -0.00    +0.000 A 
DOCKED: ATOM      4  C   UNL     1      20.393  -9.733  -2.738 -0.43 -0.00    +0.000 A 
DOCKED: ATOM      5  C   UNL     1      21.390  -9.657  -1.761 -0.52 -0.00    +0.000 A 
DOCKED: ATOM      6  C   UNL     1      21.168 -10.183  -0.487 -0.63 -0.00    +0.000 A 
DOCKED: ENDROOT
DOCKED: BRANCH   1   8
DOCKED: ATOM      7  O   UNL     1      19.196 -10.331   2.366 -0.69 -0.00    +0.000 OA
DOCKED: ATOM      8  S   UNL     1      19.644 -11.422   1.434 -0.86 -0.00    +0.000 S 
DOCKED: ATOM      9  O   UNL     1      20.918 -12.021   1.957 -1.33 -0.00    +0.000 OA
DOCKED: BRANCH   8  10
DOCKED: ATOM     10  N   UNL     1      18.418 -12.651   1.373 -0.51 -0.00    +0.000 N 
DOCKED: ATOM     11  H   UNL     1      18.667 -13.565   1.640 -0.40 -0.00    +0.000 HD
DOCKED: BRANCH  10  12
DOCKED: ATOM     12  C   UNL     1      17.062 -12.412   0.956 -0.43 +0.00    +0.000 A 
DOCKED: ATOM     13  C   UNL     1      16.235 -11.473   1.603 -0.39 +0.00    +0.000 A 
DOCKED: ATOM     14  C   UNL     1      14.925 -11.262   1.163 -0.35 +0.00    +0.000 A 
DOCKED: ATOM     15  C   UNL     1      14.425 -11.986   0.079 -0.41 +0.00    +0.000 A 
DOCKED: ATOM     16  C   UNL     1      15.232 -12.925  -0.566 -0.48 +0.00    +0.000 A 
DOCKED: ATOM     17  C   UNL     1      16.544 -13.139  -0.130 -0.48 +0.00    +0.000 A 
DOCKED: ENDBRANCH  10  12
DOCKED: ENDBRANCH   8  10
DOCKED: ENDBRANCH   1   8
DOCKED: BRANCH   3  18
DOCKED: ATOM     18  C   UNL     1      18.060 -10.445  -3.443 -0.26 -0.00    +0.000 C 
DOCKED: ATOM     19  C   UNL     1      16.781 -10.143  -3.168 -0.26 -0.00    +0.000 C 
DOCKED: BRANCH  19  20
DOCKED: ATOM     20  C   UNL     1      15.691 -10.239  -4.161 -0.24 -0.00    +0.000 C 
DOCKED: ATOM     21  N   UNL     1      14.694 -11.269  -4.110 -0.30 -0.00    +0.000 N 
DOCKED: ATOM     22  O   UNL     1      15.658  -9.398  -5.099 -0.14 -0.00    +0.000 OA
DOCKED: ATOM     23  H   UNL     1      14.774 -11.997  -3.453 -0.04 -0.00    +0.000 HD
DOCKED: BRANCH  21  24
DOCKED: ATOM     24  O   UNL     1      13.642 -11.241  -4.964 -0.28 -0.00    +0.000 OA
DOCKED: ATOM     25  H   UNL     1      13.734 -10.486  -5.565 -0.00 -0.00    +0.000 HD
DOCKED: ENDBRANCH  21  24
DOCKED: ENDBRANCH  19  20
DOCKED: ENDBRANCH   3  18
DOCKED: TORSDOF 6
DOCKED: TER
DOCKED: ENDMDL
________________________________________________________________________________


	BEGINNING GENETIC ALGORITHM DOCKING 49 of 100
Run: 49 Seed: 756916997 1482194502 [ Run 49 of 100 GA/GALS ]
Beginning LAMARCKIAN GENETIC ALGORITHM (LGA), with a maximum of 2500000 energy evaluations.

Final-Value: -13.570


	FINAL GENETIC ALGORITHM DOCKED STATE
	_______________________________________________


Detailed state:  trans 20.884 -11.380 -2.307 quatxyzw -0.465106 -0.711333 -0.094976 0.518325 center 0.320 0.169 0.303 ntor 6 4.9846 -169.8688 164.7332 122.3837 -110.3961 -179.7844
State:	 20.884 -11.380  -2.307  -0.544 -0.832 -0.111 117.560      4.98 -169.87  164.73  122.38 -110.40 -179.78

DOCKED: MODEL       49
DOCKED: USER    Run = 49
DOCKED: USER    DPF = ligand_dock.biased.dpf
DOCKED: USER  
DOCKED: USER    Estimated Free Energy of Binding    =  -10.30 kcal/mol  [=(1)+(2)+(3)-(4)]
DOCKED: USER    Estimated Inhibition Constant, Ki   =   28.39 nM (nanomolar)  [Temperature = 298.15 K]
DOCKED: USER    
DOCKED: USER    (1) Final Intermolecular Energy     =  -12.09 kcal/mol
DOCKED: USER        vdW + Hbond + desolv Energy     =  -12.09 kcal/mol
DOCKED: USER        Electrostatic Energy            =   +0.00 kcal/mol
DOCKED: USER    (2) Final Total Internal Energy     =   -1.48 kcal/mol
DOCKED: USER    (3) Torsional Free Energy           =   +1.79 kcal/mol
DOCKED: USER    (4) Unbound System's Energy  [=(2)] =   -1.48 kcal/mol
DOCKED: USER    
DOCKED: USER    
DOCKED: USER    NEWDPF move ligand.pdbqt
DOCKED: USER    NEWDPF about 0.320000 0.169000 0.303000
DOCKED: USER    NEWDPF tran0 20.883564 -11.380269 -2.306982
DOCKED: USER    NEWDPF quaternion0 -0.465106 -0.711333 -0.094976 0.518325
DOCKED: USER    NEWDPF axisangle0 -0.543867 -0.831790 -0.111059 117.560081
DOCKED: USER    NEWDPF quat0 -0.543867 -0.831790 -0.111059 117.560081
DOCKED: USER    NEWDPF dihe0 4.98 -169.87 164.73 122.38 -110.40 -179.78 
DOCKED: USER  keepresnum = 1 
DOCKED: USER  
DOCKED: REMARK  Name = 
DOCKED: REMARK  6 active torsions:
DOCKED: REMARK  status: ('A' for Active; 'I' for Inactive)
DOCKED: REMARK    1  A    between atoms: S_2  and  N_3
DOCKED: REMARK    2  A    between atoms: S_2  and  C_10
DOCKED: REMARK    3  A    between atoms: N_3  and  C_4
DOCKED: REMARK    4  A    between atoms: C_12  and  C_13
DOCKED: REMARK    5  A    between atoms: C_14  and  C_15
DOCKED: REMARK    6  A    between atoms: N_16  and  O_17
DOCKED: REMARK                            x       y       z     vdW  Elec       q    Type
DOCKED: REMARK                         _______ _______ _______ _____ _____    ______ ____
DOCKED: USER                              x       y       z     vdW  Elec       q    Type
DOCKED: USER                           _______ _______ _______ _____ _____    ______ ____
DOCKED: ROOT
DOCKED: ATOM      1  C   UNL     1      19.295 -10.686  -0.717 -0.43 -0.00    +0.000 A 
DOCKED: ATOM      2  C   UNL     1      20.206 -10.599  -1.778 -0.45 -0.00    +0.000 A 
DOCKED: ATOM      3  C   UNL     1      19.755 -10.467  -3.103 -0.39 -0.00    +0.000 A 
DOCKED: ATOM      4  C   UNL     1      18.367 -10.440  -3.349 -0.27 -0.00    +0.000 A 
DOCKED: ATOM      5  C   UNL     1      17.460 -10.519  -2.289 -0.20 -0.00    +0.000 A 
DOCKED: ATOM      6  C   UNL     1      17.920 -10.636  -0.976 -0.25 -0.00    +0.000 A 
DOCKED: ENDROOT
DOCKED: BRANCH   1   8
DOCKED: ATOM      7  O   UNL     1      21.271 -10.302   1.067 -0.62 -0.00    +0.000 OA
DOCKED: ATOM      8  S   UNL     1      19.882 -10.861   0.935 -0.81 -0.00    +0.000 S 
DOCKED: ATOM      9  O   UNL     1      19.905 -12.320   1.286 -1.57 -0.00    +0.000 OA
DOCKED: BRANCH   8  10
DOCKED: ATOM     10  N   UNL     1      18.829 -10.025   2.035 -0.50 -0.00    +0.000 N 
DOCKED: ATOM     11  H   UNL     1      19.171  -9.214   2.475 -0.44 -0.00    +0.000 HD
DOCKED: BRANCH  10  12
DOCKED: ATOM     12  C   UNL     1      17.488 -10.447   2.340 -0.44 +0.00    +0.000 A 
DOCKED: ATOM     13  C   UNL     1      16.676  -9.752   3.258 -0.36 +0.00    +0.000 A 
DOCKED: ATOM     14  C   UNL     1      15.374 -10.187   3.522 -0.42 +0.00    +0.000 A 
DOCKED: ATOM     15  C   UNL     1      14.870 -11.320   2.879 -0.45 +0.00    +0.000 A 
DOCKED: ATOM     16  C   UNL     1      15.668 -12.022   1.973 -0.40 +0.00    +0.000 A 
DOCKED: ATOM     17  C   UNL     1      16.970 -11.589   1.705 -0.39 +0.00    +0.000 A 
DOCKED: ENDBRANCH  10  12
DOCKED: ENDBRANCH   8  10
DOCKED: ENDBRANCH   1   8
DOCKED: BRANCH   3  18
DOCKED: ATOM     18  C   UNL     1      20.763 -10.402  -4.190 -0.47 -0.00    +0.000 C 
DOCKED: ATOM     19  C   UNL     1      21.223 -11.480  -4.843 -0.50 -0.00    +0.000 C 
DOCKED: BRANCH  19  20
DOCKED: ATOM     20  C   UNL     1      22.226 -11.410  -5.926 -0.50 -0.00    +0.000 C 
DOCKED: ATOM     21  N   UNL     1      23.200 -12.440  -6.139 -0.59 -0.00    +0.000 N 
DOCKED: ATOM     22  O   UNL     1      22.238 -10.391  -6.667 -0.36 -0.00    +0.000 OA
DOCKED: ATOM     23  H   UNL     1      23.276 -13.184  -5.498 -0.10 -0.00    +0.000 HD
DOCKED: BRANCH  21  24
DOCKED: ATOM     24  O   UNL     1      24.016 -12.394  -7.220 -1.17 -0.00    +0.000 OA
DOCKED: ATOM     25  H   UNL     1      23.866 -11.566  -7.702 -0.02 -0.00    +0.000 HD
DOCKED: ENDBRANCH  21  24
DOCKED: ENDBRANCH  19  20
DOCKED: ENDBRANCH   3  18
DOCKED: TORSDOF 6
DOCKED: TER
DOCKED: ENDMDL
________________________________________________________________________________


	BEGINNING GENETIC ALGORITHM DOCKING 50 of 100
Run: 50 Seed: 1178721340 1299539418 [ Run 50 of 100 GA/GALS ]
Beginning LAMARCKIAN GENETIC ALGORITHM (LGA), with a maximum of 2500000 energy evaluations.

Final-Value: -13.519


	FINAL GENETIC ALGORITHM DOCKED STATE
	_______________________________________________


Detailed state:  trans 22.106 -10.890 -2.035 quatxyzw -0.240461 0.221050 -0.907426 0.264376 center 0.320 0.169 0.303 ntor 6 -20.2340 -55.1493 -152.0576 179.8828 123.2516 -142.2986
State:	 22.106 -10.890  -2.035  -0.249  0.229 -0.941 149.340    -20.23  -55.15 -152.06  179.88  123.25 -142.30

DOCKED: MODEL       50
DOCKED: USER    Run = 50
DOCKED: USER    DPF = ligand_dock.biased.dpf
DOCKED: USER  
DOCKED: USER    Estimated Free Energy of Binding    =  -10.29 kcal/mol  [=(1)+(2)+(3)-(4)]
DOCKED: USER    Estimated Inhibition Constant, Ki   =   28.51 nM (nanomolar)  [Temperature = 298.15 K]
DOCKED: USER    
DOCKED: USER    (1) Final Intermolecular Energy     =  -12.08 kcal/mol
DOCKED: USER        vdW + Hbond + desolv Energy     =  -12.08 kcal/mol
DOCKED: USER        Electrostatic Energy            =   +0.00 kcal/mol
DOCKED: USER    (2) Final Total Internal Energy     =   -1.44 kcal/mol
DOCKED: USER    (3) Torsional Free Energy           =   +1.79 kcal/mol
DOCKED: USER    (4) Unbound System's Energy  [=(2)] =   -1.44 kcal/mol
DOCKED: USER    
DOCKED: USER    
DOCKED: USER    NEWDPF move ligand.pdbqt
DOCKED: USER    NEWDPF about 0.320000 0.169000 0.303000
DOCKED: USER    NEWDPF tran0 22.105799 -10.890108 -2.034851
DOCKED: USER    NEWDPF quaternion0 -0.240461 0.221050 -0.907426 0.264376
DOCKED: USER    NEWDPF axisangle0 -0.249332 0.229205 -0.940903 149.340266
DOCKED: USER    NEWDPF quat0 -0.249332 0.229205 -0.940903 149.340266
DOCKED: USER    NEWDPF dihe0 -20.23 -55.15 -152.06 179.88 123.25 -142.30 
DOCKED: USER  keepresnum = 1 
DOCKED: USER  
DOCKED: REMARK  Name = 
DOCKED: REMARK  6 active torsions:
DOCKED: REMARK  status: ('A' for Active; 'I' for Inactive)
DOCKED: REMARK    1  A    between atoms: S_2  and  N_3
DOCKED: REMARK    2  A    between atoms: S_2  and  C_10
DOCKED: REMARK    3  A    between atoms: N_3  and  C_4
DOCKED: REMARK    4  A    between atoms: C_12  and  C_13
DOCKED: REMARK    5  A    between atoms: C_14  and  C_15
DOCKED: REMARK    6  A    between atoms: N_16  and  O_17
DOCKED: REMARK                            x       y       z     vdW  Elec       q    Type
DOCKED: REMARK                         _______ _______ _______ _____ _____    ______ ____
DOCKED: USER                              x       y       z     vdW  Elec       q    Type
DOCKED: USER                           _______ _______ _______ _____ _____    ______ ____
DOCKED: ROOT
DOCKED: ATOM      1  C   UNL     1      21.449 -10.223  -4.193 -0.42 -0.00    +0.000 A 
DOCKED: ATOM      2  C   UNL     1      21.344 -10.511  -2.826 -0.48 -0.00    +0.000 A 
DOCKED: ATOM      3  C   UNL     1      21.259  -9.476  -1.879 -0.51 -0.00    +0.000 A 
DOCKED: ATOM      4  C   UNL     1      21.298  -8.139  -2.327 -0.42 -0.00    +0.000 A 
DOCKED: ATOM      5  C   UNL     1      21.395  -7.855  -3.692 -0.32 -0.00    +0.000 A 
DOCKED: ATOM      6  C   UNL     1      21.465  -8.892  -4.624 -0.30 -0.00    +0.000 A 
DOCKED: ENDROOT
DOCKED: BRANCH   1   8
DOCKED: ATOM      7  O   UNL     1      20.323 -12.384  -5.333 -0.70 -0.00    +0.000 OA
DOCKED: ATOM      8  S   UNL     1      21.564 -11.536  -5.362 -0.69 -0.00    +0.000 S 
DOCKED: ATOM      9  O   UNL     1      22.749 -12.390  -5.014 -0.59 -0.00    +0.000 OA
DOCKED: BRANCH   8  10
DOCKED: ATOM     10  N   UNL     1      21.773 -10.895  -6.963 -0.34 -0.00    +0.000 N 
DOCKED: ATOM     11  H   UNL     1      21.125 -10.225  -7.280 -0.01 -0.00    +0.000 HD
DOCKED: BRANCH  10  12
DOCKED: ATOM     12  C   UNL     1      22.836 -11.284  -7.852 -0.36 -0.00    +0.000 A 
DOCKED: ATOM     13  C   UNL     1      24.185 -10.985  -7.579 -0.35 -0.00    +0.000 A 
DOCKED: ATOM     14  C   UNL     1      25.191 -11.387  -8.462 -0.38 -0.00    +0.000 A 
DOCKED: ATOM     15  C   UNL     1      24.864 -12.086  -9.626 -0.31 -0.00    +0.000 A 
DOCKED: ATOM     16  C   UNL     1      23.530 -12.381  -9.911 -0.29 -0.00    +0.000 A 
DOCKED: ATOM     17  C   UNL     1      22.520 -11.982  -9.029 -0.29 -0.00    +0.000 A 
DOCKED: ENDBRANCH  10  12
DOCKED: ENDBRANCH   8  10
DOCKED: ENDBRANCH   1   8
DOCKED: BRANCH   3  18
DOCKED: ATOM     18  C   UNL     1      21.172  -9.836  -0.442 -0.69 -0.00    +0.000 C 
DOCKED: ATOM     19  C   UNL     1      20.513 -10.911   0.017 -0.66 -0.00    +0.000 C 
DOCKED: BRANCH  19  20
DOCKED: ATOM     20  C   UNL     1      20.429 -11.266   1.449 -0.75 -0.00    +0.000 C 
DOCKED: ATOM     21  N   UNL     1      19.897 -12.518   1.900 -0.68 -0.00    +0.000 N 
DOCKED: ATOM     22  O   UNL     1      20.816 -10.420   2.299 -0.62 -0.00    +0.000 OA
DOCKED: ATOM     23  H   UNL     1      19.487 -13.138   1.255 -0.52 -0.00    +0.000 HD
DOCKED: BRANCH  21  24
DOCKED: ATOM     24  O   UNL     1      19.959 -12.851   3.212 -0.87 -0.00    +0.000 OA
DOCKED: ATOM     25  H   UNL     1      20.646 -12.323   3.648 -0.51 -0.00    +0.000 HD
DOCKED: ENDBRANCH  21  24
DOCKED: ENDBRANCH  19  20
DOCKED: ENDBRANCH   3  18
DOCKED: TORSDOF 6
DOCKED: TER
DOCKED: ENDMDL
________________________________________________________________________________


	BEGINNING GENETIC ALGORITHM DOCKING 51 of 100
Run: 51 Seed: 357674577 1051638345 [ Run 51 of 100 GA/GALS ]
Beginning LAMARCKIAN GENETIC ALGORITHM (LGA), with a maximum of 2500000 energy evaluations.

Final-Value: -13.949


	FINAL GENETIC ALGORITHM DOCKED STATE
	_______________________________________________


Detailed state:  trans 21.729 -10.789 -1.822 quatxyzw -0.208743 0.264322 -0.899676 0.277746 center 0.320 0.169 0.303 ntor 6 49.8068 -44.3619 2.3235 -161.9501 154.3979 -143.9894
State:	 21.729 -10.789  -1.822  -0.217  0.275 -0.937 147.748     49.81  -44.36    2.32 -161.95  154.40 -143.99

DOCKED: MODEL       51
DOCKED: USER    Run = 51
DOCKED: USER    DPF = ligand_dock.biased.dpf
DOCKED: USER  
DOCKED: USER    Estimated Free Energy of Binding    =  -10.93 kcal/mol  [=(1)+(2)+(3)-(4)]
DOCKED: USER    Estimated Inhibition Constant, Ki   =    9.68 nM (nanomolar)  [Temperature = 298.15 K]
DOCKED: USER    
DOCKED: USER    (1) Final Intermolecular Energy     =  -12.72 kcal/mol
DOCKED: USER        vdW + Hbond + desolv Energy     =  -12.72 kcal/mol
DOCKED: USER        Electrostatic Energy            =   +0.00 kcal/mol
DOCKED: USER    (2) Final Total Internal Energy     =   -1.23 kcal/mol
DOCKED: USER    (3) Torsional Free Energy           =   +1.79 kcal/mol
DOCKED: USER    (4) Unbound System's Energy  [=(2)] =   -1.23 kcal/mol
DOCKED: USER    
DOCKED: USER    
DOCKED: USER    NEWDPF move ligand.pdbqt
DOCKED: USER    NEWDPF about 0.320000 0.169000 0.303000
DOCKED: USER    NEWDPF tran0 21.729393 -10.789145 -1.821883
DOCKED: USER    NEWDPF quaternion0 -0.208743 0.264322 -0.899676 0.277746
DOCKED: USER    NEWDPF axisangle0 -0.217292 0.275148 -0.936524 147.748495
DOCKED: USER    NEWDPF quat0 -0.217292 0.275148 -0.936524 147.748495
DOCKED: USER    NEWDPF dihe0 49.81 -44.36 2.32 -161.95 154.40 -143.99 
DOCKED: USER  keepresnum = 1 
DOCKED: USER  
DOCKED: REMARK  Name = 
DOCKED: REMARK  6 active torsions:
DOCKED: REMARK  status: ('A' for Active; 'I' for Inactive)
DOCKED: REMARK    1  A    between atoms: S_2  and  N_3
DOCKED: REMARK    2  A    between atoms: S_2  and  C_10
DOCKED: REMARK    3  A    between atoms: N_3  and  C_4
DOCKED: REMARK    4  A    between atoms: C_12  and  C_13
DOCKED: REMARK    5  A    between atoms: C_14  and  C_15
DOCKED: REMARK    6  A    between atoms: N_16  and  O_17
DOCKED: REMARK                            x       y       z     vdW  Elec       q    Type
DOCKED: REMARK                         _______ _______ _______ _____ _____    ______ ____
DOCKED: USER                              x       y       z     vdW  Elec       q    Type
DOCKED: USER                           _______ _______ _______ _____ _____    ______ ____
DOCKED: ROOT
DOCKED: ATOM      1  C   UNL     1      21.273  -9.960  -3.976 -0.42 -0.00    +0.000 A 
DOCKED: ATOM      2  C   UNL     1      21.052 -10.317  -2.639 -0.50 -0.00    +0.000 A 
DOCKED: ATOM      3  C   UNL     1      20.962  -9.334  -1.639 -0.52 -0.00    +0.000 A 
DOCKED: ATOM      4  C   UNL     1      21.115  -7.980  -2.001 -0.42 -0.00    +0.000 A 
DOCKED: ATOM      5  C   UNL     1      21.328  -7.625  -3.336 -0.35 -0.00    +0.000 A 
DOCKED: ATOM      6  C   UNL     1      21.402  -8.610  -4.322 -0.31 -0.00    +0.000 A 
DOCKED: ENDROOT
DOCKED: BRANCH   1   8
DOCKED: ATOM      7  O   UNL     1      20.117 -12.002  -5.291 -0.64 -0.00    +0.000 OA
DOCKED: ATOM      8  S   UNL     1      21.392 -11.210  -5.212 -0.67 -0.00    +0.000 S 
DOCKED: ATOM      9  O   UNL     1      22.521 -12.133  -4.857 -0.48 -0.00    +0.000 OA
DOCKED: BRANCH   8  10
DOCKED: ATOM     10  N   UNL     1      21.708 -10.490  -6.761 -0.31 -0.00    +0.000 N 
DOCKED: ATOM     11  H   UNL     1      21.298  -9.617  -6.956 +0.00 -0.00    +0.000 HD
DOCKED: BRANCH  10  12
DOCKED: ATOM     12  C   UNL     1      22.532 -11.094  -7.774 -0.33 -0.00    +0.000 A 
DOCKED: ATOM     13  C   UNL     1      23.864 -11.479  -7.522 -0.41 -0.00    +0.000 A 
DOCKED: ATOM     14  C   UNL     1      24.631 -12.072  -8.529 -0.42 -0.00    +0.000 A 
DOCKED: ATOM     15  C   UNL     1      24.082 -12.282  -9.796 -0.29 -0.00    +0.000 A 
DOCKED: ATOM     16  C   UNL     1      22.766 -11.898 -10.060 -0.24 -0.00    +0.000 A 
DOCKED: ATOM     17  C   UNL     1      21.995 -11.306  -9.055 -0.23 -0.00    +0.000 A 
DOCKED: ENDBRANCH  10  12
DOCKED: ENDBRANCH   8  10
DOCKED: ENDBRANCH   1   8
DOCKED: BRANCH   3  18
DOCKED: ATOM     18  C   UNL     1      20.749  -9.768  -0.236 -0.66 -0.00    +0.000 C 
DOCKED: ATOM     19  C   UNL     1      20.550 -11.045   0.125 -0.64 -0.00    +0.000 C 
DOCKED: BRANCH  19  20
DOCKED: ATOM     20  C   UNL     1      20.339 -11.473   1.524 -0.76 -0.00    +0.000 C 
DOCKED: ATOM     21  N   UNL     1      20.653 -10.631   2.641 -0.61 -0.00    +0.000 N 
DOCKED: ATOM     22  O   UNL     1      19.891 -12.632   1.735 -1.64 -0.00    +0.000 OA
DOCKED: ATOM     23  H   UNL     1      21.109  -9.770   2.494 -0.59 -0.00    +0.000 HD
DOCKED: BRANCH  21  24
DOCKED: ATOM     24  O   UNL     1      20.323 -11.014   3.898 -0.82 -0.00    +0.000 OA
DOCKED: ATOM     25  H   UNL     1      20.630 -11.922   4.049 -0.50 -0.00    +0.000 HD
DOCKED: ENDBRANCH  21  24
DOCKED: ENDBRANCH  19  20
DOCKED: ENDBRANCH   3  18
DOCKED: TORSDOF 6
DOCKED: TER
DOCKED: ENDMDL
________________________________________________________________________________


	BEGINNING GENETIC ALGORITHM DOCKING 52 of 100
Run: 52 Seed: 73949778 1126087033 [ Run 52 of 100 GA/GALS ]
Beginning LAMARCKIAN GENETIC ALGORITHM (LGA), with a maximum of 2500000 energy evaluations.

Final-Value: -14.411


	FINAL GENETIC ALGORITHM DOCKED STATE
	_______________________________________________


Detailed state:  trans 17.434 -8.834 2.173 quatxyzw 0.176377 0.598623 0.744684 0.236615 center 0.320 0.169 0.303 ntor 6 4.6398 -173.8403 139.3102 -2.3372 122.8358 -41.9800
State:	 17.434  -8.834   2.173   0.182  0.616  0.766 152.626      4.64 -173.84  139.31   -2.34  122.84  -41.98

DOCKED: MODEL       52
DOCKED: USER    Run = 52
DOCKED: USER    DPF = ligand_dock.biased.dpf
DOCKED: USER  
DOCKED: USER    Estimated Free Energy of Binding    =  -10.93 kcal/mol  [=(1)+(2)+(3)-(4)]
DOCKED: USER    Estimated Inhibition Constant, Ki   =    9.77 nM (nanomolar)  [Temperature = 298.15 K]
DOCKED: USER    
DOCKED: USER    (1) Final Intermolecular Energy     =  -12.72 kcal/mol
DOCKED: USER        vdW + Hbond + desolv Energy     =  -12.72 kcal/mol
DOCKED: USER        Electrostatic Energy            =   +0.00 kcal/mol
DOCKED: USER    (2) Final Total Internal Energy     =   -1.69 kcal/mol
DOCKED: USER    (3) Torsional Free Energy           =   +1.79 kcal/mol
DOCKED: USER    (4) Unbound System's Energy  [=(2)] =   -1.69 kcal/mol
DOCKED: USER    
DOCKED: USER    
DOCKED: USER    NEWDPF move ligand.pdbqt
DOCKED: USER    NEWDPF about 0.320000 0.169000 0.303000
DOCKED: USER    NEWDPF tran0 17.433933 -8.833905 2.172888
DOCKED: USER    NEWDPF quaternion0 0.176377 0.598623 0.744684 0.236615
DOCKED: USER    NEWDPF axisangle0 0.181532 0.616119 0.766449 152.626309
DOCKED: USER    NEWDPF quat0 0.181532 0.616119 0.766449 152.626309
DOCKED: USER    NEWDPF dihe0 4.64 -173.84 139.31 -2.34 122.84 -41.98 
DOCKED: USER  keepresnum = 1 
DOCKED: USER  
DOCKED: REMARK  Name = 
DOCKED: REMARK  6 active torsions:
DOCKED: REMARK  status: ('A' for Active; 'I' for Inactive)
DOCKED: REMARK    1  A    between atoms: S_2  and  N_3
DOCKED: REMARK    2  A    between atoms: S_2  and  C_10
DOCKED: REMARK    3  A    between atoms: N_3  and  C_4
DOCKED: REMARK    4  A    between atoms: C_12  and  C_13
DOCKED: REMARK    5  A    between atoms: C_14  and  C_15
DOCKED: REMARK    6  A    between atoms: N_16  and  O_17
DOCKED: REMARK                            x       y       z     vdW  Elec       q    Type
DOCKED: REMARK                         _______ _______ _______ _____ _____    ______ ____
DOCKED: USER                              x       y       z     vdW  Elec       q    Type
DOCKED: USER                           _______ _______ _______ _____ _____    ______ ____
DOCKED: ROOT
DOCKED: ATOM      1  C   UNL     1      18.121 -11.053   1.802 -0.46 -0.00    +0.000 A 
DOCKED: ATOM      2  C   UNL     1      17.443  -9.976   2.387 -0.40 -0.00    +0.000 A 
DOCKED: ATOM      3  C   UNL     1      16.072  -9.775   2.150 -0.34 +0.00    +0.000 A 
DOCKED: ATOM      4  C   UNL     1      15.392 -10.669   1.297 -0.30 +0.00    +0.000 A 
DOCKED: ATOM      5  C   UNL     1      16.069 -11.748   0.720 -0.40 +0.00    +0.000 A 
DOCKED: ATOM      6  C   UNL     1      17.427 -11.944   0.975 -0.45 +0.00    +0.000 A 
DOCKED: ENDROOT
DOCKED: BRANCH   1   8
DOCKED: ATOM      7  O   UNL     1      20.265 -12.676   1.745 -1.48 -0.00    +0.000 OA
DOCKED: ATOM      8  S   UNL     1      19.841 -11.280   2.106 -0.91 -0.00    +0.000 S 
DOCKED: ATOM      9  O   UNL     1      20.108 -11.049   3.566 -0.84 -0.00    +0.000 OA
DOCKED: BRANCH   8  10
DOCKED: ATOM     10  N   UNL     1      20.768 -10.147   1.170 -0.56 -0.00    +0.000 N 
DOCKED: ATOM     11  H   UNL     1      21.398  -9.561   1.646 -0.54 -0.00    +0.000 HD
DOCKED: BRANCH  10  12
DOCKED: ATOM     12  C   UNL     1      20.667 -10.016  -0.260 -0.59 -0.00    +0.000 A 
DOCKED: ATOM     13  C   UNL     1      21.358  -9.014  -0.968 -0.52 -0.00    +0.000 A 
DOCKED: ATOM     14  C   UNL     1      21.243  -8.923  -2.359 -0.45 -0.00    +0.000 A 
DOCKED: ATOM     15  C   UNL     1      20.436  -9.825  -3.055 -0.42 -0.00    +0.000 A 
DOCKED: ATOM     16  C   UNL     1      19.741 -10.818  -2.363 -0.39 -0.00    +0.000 A 
DOCKED: ATOM     17  C   UNL     1      19.854 -10.914  -0.973 -0.45 -0.00    +0.000 A 
DOCKED: ENDBRANCH  10  12
DOCKED: ENDBRANCH   8  10
DOCKED: ENDBRANCH   1   8
DOCKED: BRANCH   3  18
DOCKED: ATOM     18  C   UNL     1      15.408  -8.605   2.776 -0.36 +0.00    +0.000 C 
DOCKED: ATOM     19  C   UNL     1      15.713  -8.144   3.999 -0.34 +0.00    +0.000 C 
DOCKED: BRANCH  19  20
DOCKED: ATOM     20  C   UNL     1      15.049  -6.978   4.619 -0.45 +0.00    +0.000 C 
DOCKED: ATOM     21  N   UNL     1      14.346  -7.068   5.865 -0.47 +0.00    +0.000 N 
DOCKED: ATOM     22  O   UNL     1      15.084  -5.875   4.010 -0.41 +0.00    +0.000 OA
DOCKED: ATOM     23  H   UNL     1      14.213  -7.944   6.292 -0.04 +0.00    +0.000 HD
DOCKED: BRANCH  21  24
DOCKED: ATOM     24  O   UNL     1      13.864  -5.948   6.457 -1.12 +0.00    +0.000 OA
DOCKED: ATOM     25  H   UNL     1      14.014  -5.186   5.876 -0.03 +0.00    +0.000 HD
DOCKED: ENDBRANCH  21  24
DOCKED: ENDBRANCH  19  20
DOCKED: ENDBRANCH   3  18
DOCKED: TORSDOF 6
DOCKED: TER
DOCKED: ENDMDL
________________________________________________________________________________


	BEGINNING GENETIC ALGORITHM DOCKING 53 of 100
Run: 53 Seed: 1793341208 1456317171 [ Run 53 of 100 GA/GALS ]
Beginning LAMARCKIAN GENETIC ALGORITHM (LGA), with a maximum of 2500000 energy evaluations.

Final-Value: -13.843


	FINAL GENETIC ALGORITHM DOCKED STATE
	_______________________________________________


Detailed state:  trans 21.920 -11.392 -2.074 quatxyzw -0.311433 0.289937 -0.869901 0.249437 center 0.320 0.169 0.303 ntor 6 -0.5749 89.7317 121.5208 -66.5030 41.5095 -55.9429
State:	 21.920 -11.392  -2.074  -0.322  0.299 -0.898 151.112     -0.57   89.73  121.52  -66.50   41.51  -55.94

DOCKED: MODEL       53
DOCKED: USER    Run = 53
DOCKED: USER    DPF = ligand_dock.biased.dpf
DOCKED: USER  
DOCKED: USER    Estimated Free Energy of Binding    =  -10.55 kcal/mol  [=(1)+(2)+(3)-(4)]
DOCKED: USER    Estimated Inhibition Constant, Ki   =   18.60 nM (nanomolar)  [Temperature = 298.15 K]
DOCKED: USER    
DOCKED: USER    (1) Final Intermolecular Energy     =  -12.34 kcal/mol
DOCKED: USER        vdW + Hbond + desolv Energy     =  -12.34 kcal/mol
DOCKED: USER        Electrostatic Energy            =   +0.00 kcal/mol
DOCKED: USER    (2) Final Total Internal Energy     =   -1.51 kcal/mol
DOCKED: USER    (3) Torsional Free Energy           =   +1.79 kcal/mol
DOCKED: USER    (4) Unbound System's Energy  [=(2)] =   -1.51 kcal/mol
DOCKED: USER    
DOCKED: USER    
DOCKED: USER    NEWDPF move ligand.pdbqt
DOCKED: USER    NEWDPF about 0.320000 0.169000 0.303000
DOCKED: USER    NEWDPF tran0 21.920256 -11.391946 -2.074492
DOCKED: USER    NEWDPF quaternion0 -0.311433 0.289937 -0.869901 0.249437
DOCKED: USER    NEWDPF axisangle0 -0.321598 0.299401 -0.898295 151.111607
DOCKED: USER    NEWDPF quat0 -0.321598 0.299401 -0.898295 151.111607
DOCKED: USER    NEWDPF dihe0 -0.57 89.73 121.52 -66.50 41.51 -55.94 
DOCKED: USER  keepresnum = 1 
DOCKED: USER  
DOCKED: REMARK  Name = 
DOCKED: REMARK  6 active torsions:
DOCKED: REMARK  status: ('A' for Active; 'I' for Inactive)
DOCKED: REMARK    1  A    between atoms: S_2  and  N_3
DOCKED: REMARK    2  A    between atoms: S_2  and  C_10
DOCKED: REMARK    3  A    between atoms: N_3  and  C_4
DOCKED: REMARK    4  A    between atoms: C_12  and  C_13
DOCKED: REMARK    5  A    between atoms: C_14  and  C_15
DOCKED: REMARK    6  A    between atoms: N_16  and  O_17
DOCKED: REMARK                            x       y       z     vdW  Elec       q    Type
DOCKED: REMARK                         _______ _______ _______ _____ _____    ______ ____
DOCKED: USER                              x       y       z     vdW  Elec       q    Type
DOCKED: USER                           _______ _______ _______ _____ _____    ______ ____
DOCKED: ROOT
DOCKED: ATOM      1  C   UNL     1      21.046 -10.347  -3.993 -0.44 -0.00    +0.000 A 
DOCKED: ATOM      2  C   UNL     1      21.082 -10.885  -2.699 -0.33 -0.00    +0.000 A 
DOCKED: ATOM      3  C   UNL     1      21.100 -10.044  -1.573 -0.56 -0.00    +0.000 A 
DOCKED: ATOM      4  C   UNL     1      21.098  -8.647  -1.767 -0.47 -0.00    +0.000 A 
DOCKED: ATOM      5  C   UNL     1      21.054  -8.114  -3.057 -0.38 -0.00    +0.000 A 
DOCKED: ATOM      6  C   UNL     1      21.023  -8.959  -4.168 -0.33 -0.00    +0.000 A 
DOCKED: ENDROOT
DOCKED: BRANCH   1   8
DOCKED: ATOM      7  O   UNL     1      20.274 -10.799  -6.529 -0.35 -0.00    +0.000 OA
DOCKED: ATOM      8  S   UNL     1      21.034 -11.420  -5.390 -0.63 -0.00    +0.000 S 
DOCKED: ATOM      9  O   UNL     1      20.370 -12.710  -5.003 -0.78 -0.00    +0.000 OA
DOCKED: BRANCH   8  10
DOCKED: ATOM     10  N   UNL     1      22.660 -11.746  -5.907 -0.49 -0.00    +0.000 N 
DOCKED: ATOM     11  H   UNL     1      23.268 -12.185  -5.270 -0.05 -0.00    +0.000 HD
DOCKED: BRANCH  10  12
DOCKED: ATOM     12  C   UNL     1      23.170 -11.414  -7.211 -0.43 -0.00    +0.000 A 
DOCKED: ATOM     13  C   UNL     1      23.558 -10.103  -7.549 -0.27 -0.00    +0.000 A 
DOCKED: ATOM     14  C   UNL     1      24.058  -9.819  -8.824 -0.16 -0.00    +0.000 A 
DOCKED: ATOM     15  C   UNL     1      24.171 -10.837  -9.774 -0.16 -0.00    +0.000 A 
DOCKED: ATOM     16  C   UNL     1      23.781 -12.138  -9.453 -0.31 -0.00    +0.000 A 
DOCKED: ATOM     17  C   UNL     1      23.282 -12.426  -8.179 -0.39 -0.00    +0.000 A 
DOCKED: ENDBRANCH  10  12
DOCKED: ENDBRANCH   8  10
DOCKED: ENDBRANCH   1   8
DOCKED: BRANCH   3  18
DOCKED: ATOM     18  C   UNL     1      21.162 -10.665  -0.226 -0.68 -0.00    +0.000 C 
DOCKED: ATOM     19  C   UNL     1      20.198 -10.534   0.698 -0.66 -0.00    +0.000 C 
DOCKED: BRANCH  19  20
DOCKED: ATOM     20  C   UNL     1      20.263 -11.155   2.037 -0.75 -0.00    +0.000 C 
DOCKED: ATOM     21  N   UNL     1      20.584 -10.405   3.216 -0.59 -0.00    +0.000 N 
DOCKED: ATOM     22  O   UNL     1      20.056 -12.394   2.134 -1.67 -0.00    +0.000 OA
DOCKED: ATOM     23  H   UNL     1      20.860  -9.463   3.140 -0.59 -0.00    +0.000 HD
DOCKED: BRANCH  21  24
DOCKED: ATOM     24  O   UNL     1      20.507 -10.989   4.437 -0.65 -0.00    +0.000 OA
DOCKED: ATOM     25  H   UNL     1      20.213 -11.908   4.337 -0.21 -0.00    +0.000 HD
DOCKED: ENDBRANCH  21  24
DOCKED: ENDBRANCH  19  20
DOCKED: ENDBRANCH   3  18
DOCKED: TORSDOF 6
DOCKED: TER
DOCKED: ENDMDL
________________________________________________________________________________


	BEGINNING GENETIC ALGORITHM DOCKING 54 of 100
Run: 54 Seed: 381193061 2096313552 [ Run 54 of 100 GA/GALS ]
Beginning LAMARCKIAN GENETIC ALGORITHM (LGA), with a maximum of 2500000 energy evaluations.

Final-Value: -14.351


	FINAL GENETIC ALGORITHM DOCKED STATE
	_______________________________________________


Detailed state:  trans 21.433 -11.108 -1.852 quatxyzw 0.221465 -0.268983 0.856314 -0.381219 center 0.320 0.169 0.303 ntor 6 46.0297 -128.9717 12.8812 -37.4794 157.5200 -65.9179
State:	 21.433 -11.108  -1.852   0.240 -0.291  0.926 -135.182     46.03 -128.97   12.88  -37.48  157.52  -65.92

DOCKED: MODEL       54
DOCKED: USER    Run = 54
DOCKED: USER    DPF = ligand_dock.biased.dpf
DOCKED: USER  
DOCKED: USER    Estimated Free Energy of Binding    =  -11.18 kcal/mol  [=(1)+(2)+(3)-(4)]
DOCKED: USER    Estimated Inhibition Constant, Ki   =    6.42 nM (nanomolar)  [Temperature = 298.15 K]
DOCKED: USER    
DOCKED: USER    (1) Final Intermolecular Energy     =  -12.97 kcal/mol
DOCKED: USER        vdW + Hbond + desolv Energy     =  -12.97 kcal/mol
DOCKED: USER        Electrostatic Energy            =   +0.00 kcal/mol
DOCKED: USER    (2) Final Total Internal Energy     =   -1.39 kcal/mol
DOCKED: USER    (3) Torsional Free Energy           =   +1.79 kcal/mol
DOCKED: USER    (4) Unbound System's Energy  [=(2)] =   -1.39 kcal/mol
DOCKED: USER    
DOCKED: USER    
DOCKED: USER    NEWDPF move ligand.pdbqt
DOCKED: USER    NEWDPF about 0.320000 0.169000 0.303000
DOCKED: USER    NEWDPF tran0 21.432955 -11.107603 -1.852258
DOCKED: USER    NEWDPF quaternion0 0.221465 -0.268983 0.856314 -0.381219
DOCKED: USER    NEWDPF axisangle0 0.239555 -0.290955 0.926261 -135.181638
DOCKED: USER    NEWDPF quat0 0.239555 -0.290955 0.926261 -135.181638
DOCKED: USER    NEWDPF dihe0 46.03 -128.97 12.88 -37.48 157.52 -65.92 
DOCKED: USER  keepresnum = 1 
DOCKED: USER  
DOCKED: REMARK  Name = 
DOCKED: REMARK  6 active torsions:
DOCKED: REMARK  status: ('A' for Active; 'I' for Inactive)
DOCKED: REMARK    1  A    between atoms: S_2  and  N_3
DOCKED: REMARK    2  A    between atoms: S_2  and  C_10
DOCKED: REMARK    3  A    between atoms: N_3  and  C_4
DOCKED: REMARK    4  A    between atoms: C_12  and  C_13
DOCKED: REMARK    5  A    between atoms: C_14  and  C_15
DOCKED: REMARK    6  A    between atoms: N_16  and  O_17
DOCKED: REMARK                            x       y       z     vdW  Elec       q    Type
DOCKED: REMARK                         _______ _______ _______ _____ _____    ______ ____
DOCKED: USER                              x       y       z     vdW  Elec       q    Type
DOCKED: USER                           _______ _______ _______ _____ _____    ______ ____
DOCKED: ROOT
DOCKED: ATOM      1  C   UNL     1      20.957 -10.193  -3.967 -0.43 -0.00    +0.000 A 
DOCKED: ATOM      2  C   UNL     1      20.793 -10.503  -2.610 -0.48 -0.00    +0.000 A 
DOCKED: ATOM      3  C   UNL     1      20.999  -9.527  -1.620 -0.54 -0.00    +0.000 A 
DOCKED: ATOM      4  C   UNL     1      21.390  -8.231  -2.014 -0.44 -0.00    +0.000 A 
DOCKED: ATOM      5  C   UNL     1      21.546  -7.921  -3.368 -0.31 -0.00    +0.000 A 
DOCKED: ATOM      6  C   UNL     1      21.325  -8.896  -4.343 -0.32 -0.00    +0.000 A 
DOCKED: ENDROOT
DOCKED: BRANCH   1   8
DOCKED: ATOM      7  O   UNL     1      19.967 -10.871  -6.374 -0.36 -0.00    +0.000 OA
DOCKED: ATOM      8  S   UNL     1      20.703 -11.434  -5.190 -0.63 -0.00    +0.000 S 
DOCKED: ATOM      9  O   UNL     1      19.890 -12.545  -4.590 -0.68 -0.00    +0.000 OA
DOCKED: BRANCH   8  10
DOCKED: ATOM     10  N   UNL     1      22.230 -12.068  -5.724 -0.58 -0.00    +0.000 N 
DOCKED: ATOM     11  H   UNL     1      22.605 -12.838  -5.239 -0.11 -0.00    +0.000 HD
DOCKED: BRANCH  10  12
DOCKED: ATOM     12  C   UNL     1      22.978 -11.535  -6.831 -0.43 -0.00    +0.000 A 
DOCKED: ATOM     13  C   UNL     1      23.655 -12.366  -7.745 -0.42 -0.00    +0.000 A 
DOCKED: ATOM     14  C   UNL     1      24.365 -11.812  -8.814 -0.37 -0.00    +0.000 A 
DOCKED: ATOM     15  C   UNL     1      24.410 -10.426  -8.982 -0.20 -0.00    +0.000 A 
DOCKED: ATOM     16  C   UNL     1      23.749  -9.592  -8.078 -0.20 -0.00    +0.000 A 
DOCKED: ATOM     17  C   UNL     1      23.037 -10.142  -7.008 -0.28 -0.00    +0.000 A 
DOCKED: ENDBRANCH  10  12
DOCKED: ENDBRANCH   8  10
DOCKED: ENDBRANCH   1   8
DOCKED: BRANCH   3  18
DOCKED: ATOM     18  C   UNL     1      20.833  -9.915  -0.197 -0.67 -0.00    +0.000 C 
DOCKED: ATOM     19  C   UNL     1      20.470 -11.144   0.200 -0.63 -0.00    +0.000 C 
DOCKED: BRANCH  19  20
DOCKED: ATOM     20  C   UNL     1      20.307 -11.526   1.618 -0.77 -0.00    +0.000 C 
DOCKED: ATOM     21  N   UNL     1      20.634 -10.639   2.696 -0.63 -0.00    +0.000 N 
DOCKED: ATOM     22  O   UNL     1      19.891 -12.686   1.883 -1.59 -0.00    +0.000 OA
DOCKED: ATOM     23  H   UNL     1      21.066  -9.775   2.506 -0.59 -0.00    +0.000 HD
DOCKED: BRANCH  21  24
DOCKED: ATOM     24  O   UNL     1      20.347 -10.984   3.974 -0.81 -0.00    +0.000 OA
DOCKED: ATOM     25  H   UNL     1      20.624 -11.900   4.131 -0.48 -0.00    +0.000 HD
DOCKED: ENDBRANCH  21  24
DOCKED: ENDBRANCH  19  20
DOCKED: ENDBRANCH   3  18
DOCKED: TORSDOF 6
DOCKED: TER
DOCKED: ENDMDL
________________________________________________________________________________


	BEGINNING GENETIC ALGORITHM DOCKING 55 of 100
Run: 55 Seed: 1688107318 1906748170 [ Run 55 of 100 GA/GALS ]
Beginning LAMARCKIAN GENETIC ALGORITHM (LGA), with a maximum of 2500000 energy evaluations.

Final-Value: -13.372


	FINAL GENETIC ALGORITHM DOCKED STATE
	_______________________________________________


Detailed state:  trans 20.524 -7.795 -0.492 quatxyzw -0.078447 0.161095 0.424758 0.887398 center 0.320 0.169 0.303 ntor 6 26.5954 36.3345 41.5952 180.0000 -52.3668 -22.1978
State:	 20.524  -7.795  -0.492  -0.170  0.349  0.921 54.904     26.60   36.33   41.60  180.00  -52.37  -22.20

DOCKED: MODEL       55
DOCKED: USER    Run = 55
DOCKED: USER    DPF = ligand_dock.biased.dpf
DOCKED: USER  
DOCKED: USER    Estimated Free Energy of Binding    =  -10.20 kcal/mol  [=(1)+(2)+(3)-(4)]
DOCKED: USER    Estimated Inhibition Constant, Ki   =   33.43 nM (nanomolar)  [Temperature = 298.15 K]
DOCKED: USER    
DOCKED: USER    (1) Final Intermolecular Energy     =  -11.99 kcal/mol
DOCKED: USER        vdW + Hbond + desolv Energy     =  -11.99 kcal/mol
DOCKED: USER        Electrostatic Energy            =   +0.00 kcal/mol
DOCKED: USER    (2) Final Total Internal Energy     =   -1.38 kcal/mol
DOCKED: USER    (3) Torsional Free Energy           =   +1.79 kcal/mol
DOCKED: USER    (4) Unbound System's Energy  [=(2)] =   -1.38 kcal/mol
DOCKED: USER    
DOCKED: USER    
DOCKED: USER    NEWDPF move ligand.pdbqt
DOCKED: USER    NEWDPF about 0.320000 0.169000 0.303000
DOCKED: USER    NEWDPF tran0 20.523743 -7.794916 -0.492137
DOCKED: USER    NEWDPF quaternion0 -0.078447 0.161095 0.424758 0.887398
DOCKED: USER    NEWDPF axisangle0 -0.170165 0.349443 0.921376 54.903824
DOCKED: USER    NEWDPF quat0 -0.170165 0.349443 0.921376 54.903824
DOCKED: USER    NEWDPF dihe0 26.60 36.33 41.60 180.00 -52.37 -22.20 
DOCKED: USER  keepresnum = 1 
DOCKED: USER  
DOCKED: REMARK  Name = 
DOCKED: REMARK  6 active torsions:
DOCKED: REMARK  status: ('A' for Active; 'I' for Inactive)
DOCKED: REMARK    1  A    between atoms: S_2  and  N_3
DOCKED: REMARK    2  A    between atoms: S_2  and  C_10
DOCKED: REMARK    3  A    between atoms: N_3  and  C_4
DOCKED: REMARK    4  A    between atoms: C_12  and  C_13
DOCKED: REMARK    5  A    between atoms: C_14  and  C_15
DOCKED: REMARK    6  A    between atoms: N_16  and  O_17
DOCKED: REMARK                            x       y       z     vdW  Elec       q    Type
DOCKED: REMARK                         _______ _______ _______ _____ _____    ______ ____
DOCKED: USER                              x       y       z     vdW  Elec       q    Type
DOCKED: USER                           _______ _______ _______ _____ _____    ______ ____
DOCKED: ROOT
DOCKED: ATOM      1  C   UNL     1      21.394  -7.141  -2.578 -0.40 -0.00    +0.000 A 
DOCKED: ATOM      2  C   UNL     1      21.331  -7.769  -1.327 -0.17 -0.00    +0.000 A 
DOCKED: ATOM      3  C   UNL     1      21.115  -9.155  -1.229 -0.54 -0.00    +0.000 A 
DOCKED: ATOM      4  C   UNL     1      20.945  -9.901  -2.413 -0.50 -0.00    +0.000 A 
DOCKED: ATOM      5  C   UNL     1      21.015  -9.274  -3.660 -0.39 -0.00    +0.000 A 
DOCKED: ATOM      6  C   UNL     1      21.244  -7.899  -3.744 -0.32 -0.00    +0.000 A 
DOCKED: ENDROOT
DOCKED: BRANCH   1   8
DOCKED: ATOM      7  O   UNL     1      21.621  -4.940  -4.107 -0.17 -0.00    +0.000 OA
DOCKED: ATOM      8  S   UNL     1      21.656  -5.401  -2.677 -0.46 -0.00    +0.000 S 
DOCKED: ATOM      9  O   UNL     1      23.001  -5.082  -2.091 -0.52 +0.00    +0.000 OA
DOCKED: BRANCH   8  10
DOCKED: ATOM     10  N   UNL     1      20.428  -4.560  -1.781 -0.37 -0.00    +0.000 N 
DOCKED: ATOM     11  H   UNL     1      19.487  -4.766  -1.982 -0.03 -0.00    +0.000 HD
DOCKED: BRANCH  10  12
DOCKED: ATOM     12  C   UNL     1      20.705  -3.581  -0.764 -0.39 +0.00    +0.000 A 
DOCKED: ATOM     13  C   UNL     1      21.906  -2.844  -0.743 -0.31 +0.00    +0.000 A 
DOCKED: ATOM     14  C   UNL     1      22.135  -1.895   0.257 -0.30 -0.00    +0.000 A 
DOCKED: ATOM     15  C   UNL     1      21.176  -1.673   1.247 -0.40 -0.00    +0.000 A 
DOCKED: ATOM     16  C   UNL     1      19.986  -2.403   1.241 -0.42 -0.00    +0.000 A 
DOCKED: ATOM     17  C   UNL     1      19.751  -3.353   0.242 -0.20 +0.00    +0.000 A 
DOCKED: ENDBRANCH  10  12
DOCKED: ENDBRANCH   8  10
DOCKED: ENDBRANCH   1   8
DOCKED: BRANCH   3  18
DOCKED: ATOM     18  C   UNL     1      21.035  -9.765   0.121 -0.67 -0.00    +0.000 C 
DOCKED: ATOM     19  C   UNL     1      20.283 -10.838   0.408 -0.67 -0.00    +0.000 C 
DOCKED: BRANCH  19  20
DOCKED: ATOM     20  C   UNL     1      20.208 -11.443   1.755 -0.76 -0.00    +0.000 C 
DOCKED: ATOM     21  N   UNL     1      20.508 -10.704   2.946 -0.66 -0.00    +0.000 N 
DOCKED: ATOM     22  O   UNL     1      19.893 -12.660   1.849 -1.61 -0.00    +0.000 OA
DOCKED: ATOM     23  H   UNL     1      20.865  -9.789   2.880 -0.59 -0.00    +0.000 HD
DOCKED: BRANCH  21  24
DOCKED: ATOM     24  O   UNL     1      20.301 -11.262   4.164 -0.79 -0.00    +0.000 OA
DOCKED: ATOM     25  H   UNL     1      20.362 -12.227   4.092 -0.33 -0.00    +0.000 HD
DOCKED: ENDBRANCH  21  24
DOCKED: ENDBRANCH  19  20
DOCKED: ENDBRANCH   3  18
DOCKED: TORSDOF 6
DOCKED: TER
DOCKED: ENDMDL
________________________________________________________________________________


	BEGINNING GENETIC ALGORITHM DOCKING 56 of 100
Run: 56 Seed: 59899809 16901886 [ Run 56 of 100 GA/GALS ]
Beginning LAMARCKIAN GENETIC ALGORITHM (LGA), with a maximum of 2500000 energy evaluations.

Final-Value: -13.961


	FINAL GENETIC ALGORITHM DOCKED STATE
	_______________________________________________


Detailed state:  trans 21.285 -11.134 -1.867 quatxyzw -0.143990 0.364813 -0.871506 0.294374 center 0.320 0.169 0.303 ntor 6 8.0009 127.7889 -91.1405 105.7454 -107.5023 90.1819
State:	 21.285 -11.134  -1.867  -0.151  0.382 -0.912 145.760      8.00  127.79  -91.14  105.75 -107.50   90.18

DOCKED: MODEL       56
DOCKED: USER    Run = 56
DOCKED: USER    DPF = ligand_dock.biased.dpf
DOCKED: USER  
DOCKED: USER    Estimated Free Energy of Binding    =  -10.42 kcal/mol  [=(1)+(2)+(3)-(4)]
DOCKED: USER    Estimated Inhibition Constant, Ki   =   22.85 nM (nanomolar)  [Temperature = 298.15 K]
DOCKED: USER    
DOCKED: USER    (1) Final Intermolecular Energy     =  -12.21 kcal/mol
DOCKED: USER        vdW + Hbond + desolv Energy     =  -12.21 kcal/mol
DOCKED: USER        Electrostatic Energy            =   +0.00 kcal/mol
DOCKED: USER    (2) Final Total Internal Energy     =   -1.75 kcal/mol
DOCKED: USER    (3) Torsional Free Energy           =   +1.79 kcal/mol
DOCKED: USER    (4) Unbound System's Energy  [=(2)] =   -1.75 kcal/mol
DOCKED: USER    
DOCKED: USER    
DOCKED: USER    NEWDPF move ligand.pdbqt
DOCKED: USER    NEWDPF about 0.320000 0.169000 0.303000
DOCKED: USER    NEWDPF tran0 21.284938 -11.133615 -1.867212
DOCKED: USER    NEWDPF quaternion0 -0.143990 0.364813 -0.871506 0.294374
DOCKED: USER    NEWDPF axisangle0 -0.150666 0.381727 -0.911912 145.759984
DOCKED: USER    NEWDPF quat0 -0.150666 0.381727 -0.911912 145.759984
DOCKED: USER    NEWDPF dihe0 8.00 127.79 -91.14 105.75 -107.50 90.18 
DOCKED: USER  keepresnum = 1 
DOCKED: USER  
DOCKED: REMARK  Name = 
DOCKED: REMARK  6 active torsions:
DOCKED: REMARK  status: ('A' for Active; 'I' for Inactive)
DOCKED: REMARK    1  A    between atoms: S_2  and  N_3
DOCKED: REMARK    2  A    between atoms: S_2  and  C_10
DOCKED: REMARK    3  A    between atoms: N_3  and  C_4
DOCKED: REMARK    4  A    between atoms: C_12  and  C_13
DOCKED: REMARK    5  A    between atoms: C_14  and  C_15
DOCKED: REMARK    6  A    between atoms: N_16  and  O_17
DOCKED: REMARK                            x       y       z     vdW  Elec       q    Type
DOCKED: REMARK                         _______ _______ _______ _____ _____    ______ ____
DOCKED: USER                              x       y       z     vdW  Elec       q    Type
DOCKED: USER                           _______ _______ _______ _____ _____    ______ ____
DOCKED: ROOT
DOCKED: ATOM      1  C   UNL     1      21.272  -9.953  -3.902 -0.42 -0.00    +0.000 A 
DOCKED: ATOM      2  C   UNL     1      20.802 -10.464  -2.685 -0.48 -0.00    +0.000 A 
DOCKED: ATOM      3  C   UNL     1      20.661  -9.630  -1.563 -0.51 -0.00    +0.000 A 
DOCKED: ATOM      4  C   UNL     1      21.017  -8.271  -1.677 -0.43 -0.00    +0.000 A 
DOCKED: ATOM      5  C   UNL     1      21.478  -7.761  -2.894 -0.35 -0.00    +0.000 A 
DOCKED: ATOM      6  C   UNL     1      21.601  -8.597  -4.005 -0.29 -0.00    +0.000 A 
DOCKED: ENDROOT
DOCKED: BRANCH   1   8
DOCKED: ATOM      7  O   UNL     1      22.504 -12.059  -5.034 -0.66 -0.00    +0.000 OA
DOCKED: ATOM      8  S   UNL     1      21.450 -11.019  -5.294 -0.64 -0.00    +0.000 S 
DOCKED: ATOM      9  O   UNL     1      21.855 -10.197  -6.483 -0.33 -0.00    +0.000 OA
DOCKED: BRANCH   8  10
DOCKED: ATOM     10  N   UNL     1      19.944 -11.814  -5.635 -0.34 -0.00    +0.000 N 
DOCKED: ATOM     11  H   UNL     1      19.946 -12.795  -5.710 -0.55 -0.00    +0.000 HD
DOCKED: BRANCH  10  12
DOCKED: ATOM     12  C   UNL     1      18.694 -11.123  -5.814 -0.35 -0.00    +0.000 A 
DOCKED: ATOM     13  C   UNL     1      17.995 -11.149  -7.036 -0.33 -0.00    +0.000 A 
DOCKED: ATOM     14  C   UNL     1      16.778 -10.473  -7.170 -0.22 -0.00    +0.000 A 
DOCKED: ATOM     15  C   UNL     1      16.250  -9.761  -6.091 -0.14 -0.00    +0.000 A 
DOCKED: ATOM     16  C   UNL     1      16.938  -9.721  -4.877 -0.19 -0.00    +0.000 A 
DOCKED: ATOM     17  C   UNL     1      18.154 -10.398  -4.738 -0.27 -0.00    +0.000 A 
DOCKED: ENDBRANCH  10  12
DOCKED: ENDBRANCH   8  10
DOCKED: ENDBRANCH   1   8
DOCKED: BRANCH   3  18
DOCKED: ATOM     18  C   UNL     1      20.181 -10.228  -0.292 -0.60 -0.00    +0.000 C 
DOCKED: ATOM     19  C   UNL     1      20.997 -10.684   0.670 -0.67 -0.00    +0.000 C 
DOCKED: BRANCH  19  20
DOCKED: ATOM     20  C   UNL     1      20.513 -11.279   1.934 -0.75 -0.00    +0.000 C 
DOCKED: ATOM     21  N   UNL     1      20.644 -10.612   3.196 -0.65 -0.00    +0.000 N 
DOCKED: ATOM     22  O   UNL     1      19.993 -12.426   1.896 -1.70 -0.00    +0.000 OA
DOCKED: ATOM     23  H   UNL     1      21.150  -9.770   3.257 -0.59 -0.00    +0.000 HD
DOCKED: BRANCH  21  24
DOCKED: ATOM     24  O   UNL     1      20.073 -11.138   4.307 -0.69 -0.00    +0.000 OA
DOCKED: ATOM     25  H   UNL     1      19.725 -12.020   4.105 -0.08 -0.00    +0.000 HD
DOCKED: ENDBRANCH  21  24
DOCKED: ENDBRANCH  19  20
DOCKED: ENDBRANCH   3  18
DOCKED: TORSDOF 6
DOCKED: TER
DOCKED: ENDMDL
________________________________________________________________________________


	BEGINNING GENETIC ALGORITHM DOCKING 57 of 100
Run: 57 Seed: 673024846 1612714537 [ Run 57 of 100 GA/GALS ]
Beginning LAMARCKIAN GENETIC ALGORITHM (LGA), with a maximum of 2500000 energy evaluations.

Final-Value: -12.794


	FINAL GENETIC ALGORITHM DOCKED STATE
	_______________________________________________


Detailed state:  trans 18.626 -10.121 -1.526 quatxyzw -0.934341 0.227678 0.112029 -0.250238 center 0.320 0.169 0.303 ntor 6 9.1898 -169.6533 -155.7873 125.3089 99.3775 -126.0794
State:	 18.626 -10.121  -1.526  -0.965  0.235  0.116 -151.017      9.19 -169.65 -155.79  125.31   99.38 -126.08

DOCKED: MODEL       57
DOCKED: USER    Run = 57
DOCKED: USER    DPF = ligand_dock.biased.dpf
DOCKED: USER  
DOCKED: USER    Estimated Free Energy of Binding    =   -9.36 kcal/mol  [=(1)+(2)+(3)-(4)]
DOCKED: USER    Estimated Inhibition Constant, Ki   =  138.16 nM (nanomolar)  [Temperature = 298.15 K]
DOCKED: USER    
DOCKED: USER    (1) Final Intermolecular Energy     =  -11.15 kcal/mol
DOCKED: USER        vdW + Hbond + desolv Energy     =  -11.15 kcal/mol
DOCKED: USER        Electrostatic Energy            =   +0.00 kcal/mol
DOCKED: USER    (2) Final Total Internal Energy     =   -1.65 kcal/mol
DOCKED: USER    (3) Torsional Free Energy           =   +1.79 kcal/mol
DOCKED: USER    (4) Unbound System's Energy  [=(2)] =   -1.65 kcal/mol
DOCKED: USER    
DOCKED: USER    
DOCKED: USER    NEWDPF move ligand.pdbqt
DOCKED: USER    NEWDPF about 0.320000 0.169000 0.303000
DOCKED: USER    NEWDPF tran0 18.626001 -10.121159 -1.526457
DOCKED: USER    NEWDPF quaternion0 -0.934341 0.227678 0.112029 -0.250238
DOCKED: USER    NEWDPF axisangle0 -0.965045 0.235159 0.115710 -151.016837
DOCKED: USER    NEWDPF quat0 -0.965045 0.235159 0.115710 -151.016837
DOCKED: USER    NEWDPF dihe0 9.19 -169.65 -155.79 125.31 99.38 -126.08 
DOCKED: USER  keepresnum = 1 
DOCKED: USER  
DOCKED: REMARK  Name = 
DOCKED: REMARK  6 active torsions:
DOCKED: REMARK  status: ('A' for Active; 'I' for Inactive)
DOCKED: REMARK    1  A    between atoms: S_2  and  N_3
DOCKED: REMARK    2  A    between atoms: S_2  and  C_10
DOCKED: REMARK    3  A    between atoms: N_3  and  C_4
DOCKED: REMARK    4  A    between atoms: C_12  and  C_13
DOCKED: REMARK    5  A    between atoms: C_14  and  C_15
DOCKED: REMARK    6  A    between atoms: N_16  and  O_17
DOCKED: REMARK                            x       y       z     vdW  Elec       q    Type
DOCKED: REMARK                         _______ _______ _______ _____ _____    ______ ____
DOCKED: USER                              x       y       z     vdW  Elec       q    Type
DOCKED: USER                           _______ _______ _______ _____ _____    ______ ____
DOCKED: ROOT
DOCKED: ATOM      1  C   UNL     1      18.219 -11.486   0.346 -0.45 -0.00    +0.000 A 
DOCKED: ATOM      2  C   UNL     1      18.784 -11.063  -0.864 -0.41 -0.00    +0.000 A 
DOCKED: ATOM      3  C   UNL     1      20.097 -10.563  -0.908 -0.50 -0.00    +0.000 A 
DOCKED: ATOM      4  C   UNL     1      20.833 -10.479   0.292 -0.62 -0.00    +0.000 A 
DOCKED: ATOM      5  C   UNL     1      20.270 -10.909   1.497 -0.64 -0.00    +0.000 A 
DOCKED: ATOM      6  C   UNL     1      18.970 -11.415   1.525 -0.55 -0.00    +0.000 A 
DOCKED: ENDROOT
DOCKED: BRANCH   1   8
DOCKED: ATOM      7  O   UNL     1      16.519 -13.521  -0.106 -1.21 +0.00    +0.000 OA
DOCKED: ATOM      8  S   UNL     1      16.568 -12.099   0.380 -0.62 +0.00    +0.000 S 
DOCKED: ATOM      9  O   UNL     1      15.718 -11.245  -0.516 -0.34 +0.00    +0.000 OA
DOCKED: BRANCH   8  10
DOCKED: ATOM     10  N   UNL     1      15.938 -12.033   1.998 -0.44 +0.00    +0.000 N 
DOCKED: ATOM     11  H   UNL     1      15.829 -12.881   2.485 -0.02 +0.00    +0.000 HD
DOCKED: BRANCH  10  12
DOCKED: ATOM     12  C   UNL     1      15.568 -10.813   2.666 -0.42 +0.00    +0.000 A 
DOCKED: ATOM     13  C   UNL     1      15.043 -10.808   3.973 -0.42 +0.00    +0.000 A 
DOCKED: ATOM     14  C   UNL     1      14.703  -9.602   4.593 -0.38 +0.00    +0.000 A 
DOCKED: ATOM     15  C   UNL     1      14.878  -8.392   3.917 -0.33 +0.00    +0.000 A 
DOCKED: ATOM     16  C   UNL     1      15.391  -8.386   2.619 -0.28 +0.00    +0.000 A 
DOCKED: ATOM     17  C   UNL     1      15.733  -9.590   1.995 -0.31 +0.00    +0.000 A 
DOCKED: ENDBRANCH  10  12
DOCKED: ENDBRANCH   8  10
DOCKED: ENDBRANCH   1   8
DOCKED: BRANCH   3  18
DOCKED: ATOM     18  C   UNL     1      20.638 -10.108  -2.213 -0.56 -0.00    +0.000 C 
DOCKED: ATOM     19  C   UNL     1      20.751 -10.902  -3.289 -0.47 -0.00    +0.000 C 
DOCKED: BRANCH  19  20
DOCKED: ATOM     20  C   UNL     1      21.290 -10.444  -4.586 -0.48 -0.00    +0.000 C 
DOCKED: ATOM     21  N   UNL     1      21.286 -11.272  -5.756 -0.46 -0.00    +0.000 N 
DOCKED: ATOM     22  O   UNL     1      21.796  -9.291  -4.652 -0.40 -0.00    +0.000 OA
DOCKED: ATOM     23  H   UNL     1      21.000 -12.212  -5.691 -0.49 -0.00    +0.000 HD
DOCKED: BRANCH  21  24
DOCKED: ATOM     24  O   UNL     1      21.673 -10.765  -6.951 -0.35 -0.00    +0.000 OA
DOCKED: ATOM     25  H   UNL     1      22.056  -9.885  -6.820 -0.00 -0.00    +0.000 HD
DOCKED: ENDBRANCH  21  24
DOCKED: ENDBRANCH  19  20
DOCKED: ENDBRANCH   3  18
DOCKED: TORSDOF 6
DOCKED: TER
DOCKED: ENDMDL
________________________________________________________________________________


	BEGINNING GENETIC ALGORITHM DOCKING 58 of 100
Run: 58 Seed: 698167645 1547500863 [ Run 58 of 100 GA/GALS ]
Beginning LAMARCKIAN GENETIC ALGORITHM (LGA), with a maximum of 2500000 energy evaluations.

Final-Value: -13.561


	FINAL GENETIC ALGORITHM DOCKED STATE
	_______________________________________________


Detailed state:  trans 21.358 -10.958 -2.128 quatxyzw 0.167191 -0.281533 0.884043 -0.333549 center 0.320 0.169 0.303 ntor 6 6.2304 122.8503 -26.7438 -65.9489 -170.0808 -68.6200
State:	 21.358 -10.958  -2.128   0.177 -0.299  0.938 -141.031      6.23  122.85  -26.74  -65.95 -170.08  -68.62

DOCKED: MODEL       58
DOCKED: USER    Run = 58
DOCKED: USER    DPF = ligand_dock.biased.dpf
DOCKED: USER  
DOCKED: USER    Estimated Free Energy of Binding    =  -10.22 kcal/mol  [=(1)+(2)+(3)-(4)]
DOCKED: USER    Estimated Inhibition Constant, Ki   =   32.42 nM (nanomolar)  [Temperature = 298.15 K]
DOCKED: USER    
DOCKED: USER    (1) Final Intermolecular Energy     =  -12.01 kcal/mol
DOCKED: USER        vdW + Hbond + desolv Energy     =  -12.01 kcal/mol
DOCKED: USER        Electrostatic Energy            =   +0.00 kcal/mol
DOCKED: USER    (2) Final Total Internal Energy     =   -1.55 kcal/mol
DOCKED: USER    (3) Torsional Free Energy           =   +1.79 kcal/mol
DOCKED: USER    (4) Unbound System's Energy  [=(2)] =   -1.55 kcal/mol
DOCKED: USER    
DOCKED: USER    
DOCKED: USER    NEWDPF move ligand.pdbqt
DOCKED: USER    NEWDPF about 0.320000 0.169000 0.303000
DOCKED: USER    NEWDPF tran0 21.357614 -10.957540 -2.128422
DOCKED: USER    NEWDPF quaternion0 0.167191 -0.281533 0.884043 -0.333549
DOCKED: USER    NEWDPF axisangle0 0.177348 -0.298635 0.937745 -141.031335
DOCKED: USER    NEWDPF quat0 0.177348 -0.298635 0.937745 -141.031335
DOCKED: USER    NEWDPF dihe0 6.23 122.85 -26.74 -65.95 -170.08 -68.62 
DOCKED: USER  keepresnum = 1 
DOCKED: USER  
DOCKED: REMARK  Name = 
DOCKED: REMARK  6 active torsions:
DOCKED: REMARK  status: ('A' for Active; 'I' for Inactive)
DOCKED: REMARK    1  A    between atoms: S_2  and  N_3
DOCKED: REMARK    2  A    between atoms: S_2  and  C_10
DOCKED: REMARK    3  A    between atoms: N_3  and  C_4
DOCKED: REMARK    4  A    between atoms: C_12  and  C_13
DOCKED: REMARK    5  A    between atoms: C_14  and  C_15
DOCKED: REMARK    6  A    between atoms: N_16  and  O_17
DOCKED: REMARK                            x       y       z     vdW  Elec       q    Type
DOCKED: REMARK                         _______ _______ _______ _____ _____    ______ ____
DOCKED: USER                              x       y       z     vdW  Elec       q    Type
DOCKED: USER                           _______ _______ _______ _____ _____    ______ ____
DOCKED: ROOT
DOCKED: ATOM      1  C   UNL     1      21.123 -10.096  -4.305 -0.40 -0.00    +0.000 A 
DOCKED: ATOM      2  C   UNL     1      20.791 -10.405  -2.979 -0.47 -0.00    +0.000 A 
DOCKED: ATOM      3  C   UNL     1      20.790  -9.408  -1.988 -0.49 -0.00    +0.000 A 
DOCKED: ATOM      4  C   UNL     1      21.146  -8.092  -2.348 -0.42 -0.00    +0.000 A 
DOCKED: ATOM      5  C   UNL     1      21.469  -7.784  -3.672 -0.31 -0.00    +0.000 A 
DOCKED: ATOM      6  C   UNL     1      21.453  -8.781  -4.650 -0.29 -0.00    +0.000 A 
DOCKED: ENDROOT
DOCKED: BRANCH   1   8
DOCKED: ATOM      7  O   UNL     1      20.470 -10.883  -6.793 -0.35 -0.00    +0.000 OA
DOCKED: ATOM      8  S   UNL     1      21.128 -11.363  -5.529 -0.60 -0.00    +0.000 S 
DOCKED: ATOM      9  O   UNL     1      20.370 -12.547  -5.001 -0.81 -0.00    +0.000 OA
DOCKED: BRANCH   8  10
DOCKED: ATOM     10  N   UNL     1      22.758 -11.842  -5.887 -0.48 -0.00    +0.000 N 
DOCKED: ATOM     11  H   UNL     1      23.301 -12.217  -5.157 -0.04 -0.00    +0.000 HD
DOCKED: BRANCH  10  12
DOCKED: ATOM     12  C   UNL     1      23.363 -11.723  -7.188 -0.46 -0.00    +0.000 A 
DOCKED: ATOM     13  C   UNL     1      24.405 -10.811  -7.446 -0.25 -0.00    +0.000 A 
DOCKED: ATOM     14  C   UNL     1      24.974 -10.730  -8.721 -0.29 -0.00    +0.000 A 
DOCKED: ATOM     15  C   UNL     1      24.508 -11.551  -9.750 -0.24 -0.00    +0.000 A 
DOCKED: ATOM     16  C   UNL     1      23.470 -12.453  -9.508 -0.33 -0.00    +0.000 A 
DOCKED: ATOM     17  C   UNL     1      22.899 -12.538  -8.234 -0.18 -0.00    +0.000 A 
DOCKED: ENDBRANCH  10  12
DOCKED: ENDBRANCH   8  10
DOCKED: ENDBRANCH   1   8
DOCKED: BRANCH   3  18
DOCKED: ATOM     18  C   UNL     1      20.453  -9.795  -0.596 -0.58 -0.00    +0.000 C 
DOCKED: ATOM     19  C   UNL     1      20.723 -11.001  -0.073 -0.60 -0.00    +0.000 C 
DOCKED: BRANCH  19  20
DOCKED: ATOM     20  C   UNL     1      20.385 -11.380   1.315 -0.75 -0.00    +0.000 C 
DOCKED: ATOM     21  N   UNL     1      20.636 -10.517   2.431 -0.59 -0.00    +0.000 N 
DOCKED: ATOM     22  O   UNL     1      19.883 -12.518   1.520 -1.62 -0.00    +0.000 OA
DOCKED: ATOM     23  H   UNL     1      21.131  -9.676   2.299 -0.57 -0.00    +0.000 HD
DOCKED: BRANCH  21  24
DOCKED: ATOM     24  O   UNL     1      20.193 -10.853   3.667 -0.82 -0.00    +0.000 OA
DOCKED: ATOM     25  H   UNL     1      19.816 -11.746   3.642 -0.06 -0.00    +0.000 HD
DOCKED: ENDBRANCH  21  24
DOCKED: ENDBRANCH  19  20
DOCKED: ENDBRANCH   3  18
DOCKED: TORSDOF 6
DOCKED: TER
DOCKED: ENDMDL
________________________________________________________________________________


	BEGINNING GENETIC ALGORITHM DOCKING 59 of 100
Run: 59 Seed: 1057298514 161612055 [ Run 59 of 100 GA/GALS ]
Beginning LAMARCKIAN GENETIC ALGORITHM (LGA), with a maximum of 2500000 energy evaluations.

Final-Value: -13.607


	FINAL GENETIC ALGORITHM DOCKED STATE
	_______________________________________________


Detailed state:  trans 16.364 -8.874 2.246 quatxyzw 0.533961 0.488179 0.584308 0.367628 center 0.320 0.169 0.303 ntor 6 0.6861 -38.3747 28.1736 -150.0147 -21.7699 -23.3425
State:	 16.364  -8.874   2.246   0.574  0.525  0.628 136.861      0.69  -38.37   28.17 -150.01  -21.77  -23.34

DOCKED: MODEL       59
DOCKED: USER    Run = 59
DOCKED: USER    DPF = ligand_dock.biased.dpf
DOCKED: USER  
DOCKED: USER    Estimated Free Energy of Binding    =  -10.36 kcal/mol  [=(1)+(2)+(3)-(4)]
DOCKED: USER    Estimated Inhibition Constant, Ki   =   25.54 nM (nanomolar)  [Temperature = 298.15 K]
DOCKED: USER    
DOCKED: USER    (1) Final Intermolecular Energy     =  -12.15 kcal/mol
DOCKED: USER        vdW + Hbond + desolv Energy     =  -12.15 kcal/mol
DOCKED: USER        Electrostatic Energy            =   +0.00 kcal/mol
DOCKED: USER    (2) Final Total Internal Energy     =   -1.46 kcal/mol
DOCKED: USER    (3) Torsional Free Energy           =   +1.79 kcal/mol
DOCKED: USER    (4) Unbound System's Energy  [=(2)] =   -1.46 kcal/mol
DOCKED: USER    
DOCKED: USER    
DOCKED: USER    NEWDPF move ligand.pdbqt
DOCKED: USER    NEWDPF about 0.320000 0.169000 0.303000
DOCKED: USER    NEWDPF tran0 16.363542 -8.873640 2.246048
DOCKED: USER    NEWDPF quaternion0 0.533961 0.488179 0.584308 0.367628
DOCKED: USER    NEWDPF axisangle0 0.574169 0.524939 0.628307 136.861220
DOCKED: USER    NEWDPF quat0 0.574169 0.524939 0.628307 136.861220
DOCKED: USER    NEWDPF dihe0 0.69 -38.37 28.17 -150.01 -21.77 -23.34 
DOCKED: USER  keepresnum = 1 
DOCKED: USER  
DOCKED: REMARK  Name = 
DOCKED: REMARK  6 active torsions:
DOCKED: REMARK  status: ('A' for Active; 'I' for Inactive)
DOCKED: REMARK    1  A    between atoms: S_2  and  N_3
DOCKED: REMARK    2  A    between atoms: S_2  and  C_10
DOCKED: REMARK    3  A    between atoms: N_3  and  C_4
DOCKED: REMARK    4  A    between atoms: C_12  and  C_13
DOCKED: REMARK    5  A    between atoms: C_14  and  C_15
DOCKED: REMARK    6  A    between atoms: N_16  and  O_17
DOCKED: REMARK                            x       y       z     vdW  Elec       q    Type
DOCKED: REMARK                         _______ _______ _______ _____ _____    ______ ____
DOCKED: USER                              x       y       z     vdW  Elec       q    Type
DOCKED: USER                           _______ _______ _______ _____ _____    ______ ____
DOCKED: ROOT
DOCKED: ATOM      1  C   UNL     1      16.282 -11.210   1.987 -0.39 +0.00    +0.000 A 
DOCKED: ATOM      2  C   UNL     1      16.393  -9.970   2.629 -0.39 +0.00    +0.000 A 
DOCKED: ATOM      3  C   UNL     1      15.333  -9.463   3.401 -0.37 +0.00    +0.000 A 
DOCKED: ATOM      4  C   UNL     1      14.147 -10.218   3.504 -0.34 +0.00    +0.000 A 
DOCKED: ATOM      5  C   UNL     1      14.041 -11.458   2.869 -0.27 +0.00    +0.000 A 
DOCKED: ATOM      6  C   UNL     1      15.106 -11.957   2.117 -0.44 +0.00    +0.000 A 
DOCKED: ENDROOT
DOCKED: BRANCH   1   8
DOCKED: ATOM      7  O   UNL     1      17.264 -13.144   0.396 -1.12 +0.00    +0.000 OA
DOCKED: ATOM      8  S   UNL     1      17.620 -11.822   1.017 -0.65 +0.00    +0.000 S 
DOCKED: ATOM      9  O   UNL     1      18.817 -12.003   1.905 -1.03 -0.00    +0.000 OA
DOCKED: BRANCH   8  10
DOCKED: ATOM     10  N   UNL     1      18.009 -10.692  -0.244 -0.35 -0.00    +0.000 N 
DOCKED: ATOM     11  H   UNL     1      17.310 -10.061  -0.530 -0.01 -0.00    +0.000 HD
DOCKED: BRANCH  10  12
DOCKED: ATOM     12  C   UNL     1      19.291 -10.626  -0.895 -0.41 -0.00    +0.000 A 
DOCKED: ATOM     13  C   UNL     1      20.496 -10.574  -0.167 -0.59 -0.00    +0.000 A 
DOCKED: ATOM     14  C   UNL     1      21.723 -10.519  -0.835 -0.54 -0.00    +0.000 A 
DOCKED: ATOM     15  C   UNL     1      21.762 -10.510  -2.231 -0.31 -0.00    +0.000 A 
DOCKED: ATOM     16  C   UNL     1      20.573 -10.553  -2.963 -0.46 -0.00    +0.000 A 
DOCKED: ATOM     17  C   UNL     1      19.344 -10.609  -2.299 -0.38 -0.00    +0.000 A 
DOCKED: ENDBRANCH  10  12
DOCKED: ENDBRANCH   8  10
DOCKED: ENDBRANCH   1   8
DOCKED: BRANCH   3  18
DOCKED: ATOM     18  C   UNL     1      15.496  -8.134   4.040 -0.37 +0.00    +0.000 C 
DOCKED: ATOM     19  C   UNL     1      14.548  -7.547   4.786 -0.42 +0.00    +0.000 C 
DOCKED: BRANCH  19  20
DOCKED: ATOM     20  C   UNL     1      14.714  -6.223   5.422 -0.46 +0.00    +0.000 C 
DOCKED: ATOM     21  N   UNL     1      15.822  -5.363   5.125 -0.45 +0.00    +0.000 N 
DOCKED: ATOM     22  O   UNL     1      13.862  -5.856   6.274 -1.13 +0.00    +0.000 OA
DOCKED: ATOM     23  H   UNL     1      16.553  -5.685   4.550 -0.58 -0.00    +0.000 HD
DOCKED: BRANCH  21  24
DOCKED: ATOM     24  O   UNL     1      15.866  -4.108   5.634 -0.63 -0.00    +0.000 OA
DOCKED: ATOM     25  H   UNL     1      15.081  -3.955   6.182 -0.06 +0.00    +0.000 HD
DOCKED: ENDBRANCH  21  24
DOCKED: ENDBRANCH  19  20
DOCKED: ENDBRANCH   3  18
DOCKED: TORSDOF 6
DOCKED: TER
DOCKED: ENDMDL
________________________________________________________________________________


	BEGINNING GENETIC ALGORITHM DOCKING 60 of 100
Run: 60 Seed: 970144486 120967251 [ Run 60 of 100 GA/GALS ]
Beginning LAMARCKIAN GENETIC ALGORITHM (LGA), with a maximum of 2500000 energy evaluations.

Final-Value: -14.345


	FINAL GENETIC ALGORITHM DOCKED STATE
	_______________________________________________


Detailed state:  trans 22.163 -11.232 -1.926 quatxyzw -0.285926 0.288879 -0.877412 0.254838 center 0.320 0.169 0.303 ntor 6 35.6949 -107.3550 96.0076 161.6892 65.9996 -130.9382
State:	 22.163 -11.232  -1.926  -0.296  0.299 -0.907 150.472     35.69 -107.35   96.01  161.69   66.00 -130.94

DOCKED: MODEL       60
DOCKED: USER    Run = 60
DOCKED: USER    DPF = ligand_dock.biased.dpf
DOCKED: USER  
DOCKED: USER    Estimated Free Energy of Binding    =  -11.17 kcal/mol  [=(1)+(2)+(3)-(4)]
DOCKED: USER    Estimated Inhibition Constant, Ki   =    6.44 nM (nanomolar)  [Temperature = 298.15 K]
DOCKED: USER    
DOCKED: USER    (1) Final Intermolecular Energy     =  -12.96 kcal/mol
DOCKED: USER        vdW + Hbond + desolv Energy     =  -12.96 kcal/mol
DOCKED: USER        Electrostatic Energy            =   +0.00 kcal/mol
DOCKED: USER    (2) Final Total Internal Energy     =   -1.38 kcal/mol
DOCKED: USER    (3) Torsional Free Energy           =   +1.79 kcal/mol
DOCKED: USER    (4) Unbound System's Energy  [=(2)] =   -1.38 kcal/mol
DOCKED: USER    
DOCKED: USER    
DOCKED: USER    NEWDPF move ligand.pdbqt
DOCKED: USER    NEWDPF about 0.320000 0.169000 0.303000
DOCKED: USER    NEWDPF tran0 22.162625 -11.232138 -1.926259
DOCKED: USER    NEWDPF quaternion0 -0.285926 0.288879 -0.877412 0.254838
DOCKED: USER    NEWDPF axisangle0 -0.295688 0.298743 -0.907370 150.471981
DOCKED: USER    NEWDPF quat0 -0.295688 0.298743 -0.907370 150.471981
DOCKED: USER    NEWDPF dihe0 35.69 -107.35 96.01 161.69 66.00 -130.94 
DOCKED: USER  keepresnum = 1 
DOCKED: USER  
DOCKED: REMARK  Name = 
DOCKED: REMARK  6 active torsions:
DOCKED: REMARK  status: ('A' for Active; 'I' for Inactive)
DOCKED: REMARK    1  A    between atoms: S_2  and  N_3
DOCKED: REMARK    2  A    between atoms: S_2  and  C_10
DOCKED: REMARK    3  A    between atoms: N_3  and  C_4
DOCKED: REMARK    4  A    between atoms: C_12  and  C_13
DOCKED: REMARK    5  A    between atoms: C_14  and  C_15
DOCKED: REMARK    6  A    between atoms: N_16  and  O_17
DOCKED: REMARK                            x       y       z     vdW  Elec       q    Type
DOCKED: REMARK                         _______ _______ _______ _____ _____    ______ ____
DOCKED: USER                              x       y       z     vdW  Elec       q    Type
DOCKED: USER                           _______ _______ _______ _____ _____    ______ ____
DOCKED: ROOT
DOCKED: ATOM      1  C   UNL     1      21.397 -10.215  -3.905 -0.44 -0.00    +0.000 A 
DOCKED: ATOM      2  C   UNL     1      21.364 -10.723  -2.599 -0.39 -0.00    +0.000 A 
DOCKED: ATOM      3  C   UNL     1      21.348  -9.857  -1.492 -0.56 -0.00    +0.000 A 
DOCKED: ATOM      4  C   UNL     1      21.383  -8.466  -1.716 -0.46 -0.00    +0.000 A 
DOCKED: ATOM      5  C   UNL     1      21.409  -7.961  -3.019 -0.37 -0.00    +0.000 A 
DOCKED: ATOM      6  C   UNL     1      21.410  -8.831  -4.111 -0.33 -0.00    +0.000 A 
DOCKED: ENDROOT
DOCKED: BRANCH   1   8
DOCKED: ATOM      7  O   UNL     1      20.077 -11.949  -5.481 -0.56 -0.00    +0.000 OA
DOCKED: ATOM      8  S   UNL     1      21.426 -11.318  -5.278 -0.67 -0.00    +0.000 S 
DOCKED: ATOM      9  O   UNL     1      22.436 -12.396  -5.009 -0.64 -0.00    +0.000 OA
DOCKED: BRANCH   8  10
DOCKED: ATOM     10  N   UNL     1      21.873 -10.463  -6.722 -0.31 -0.00    +0.000 N 
DOCKED: ATOM     11  H   UNL     1      21.220  -9.836  -7.108 +0.00 -0.00    +0.000 HD
DOCKED: BRANCH  10  12
DOCKED: ATOM     12  C   UNL     1      23.140 -10.617  -7.387 -0.33 -0.00    +0.000 A 
DOCKED: ATOM     13  C   UNL     1      24.036  -9.541  -7.545 -0.24 -0.00    +0.000 A 
DOCKED: ATOM     14  C   UNL     1      25.263  -9.732  -8.189 -0.26 -0.00    +0.000 A 
DOCKED: ATOM     15  C   UNL     1      25.606 -10.992  -8.684 -0.34 -0.00    +0.000 A 
DOCKED: ATOM     16  C   UNL     1      24.723 -12.063  -8.539 -0.42 -0.00    +0.000 A 
DOCKED: ATOM     17  C   UNL     1      23.496 -11.878  -7.895 -0.44 -0.00    +0.000 A 
DOCKED: ENDBRANCH  10  12
DOCKED: ENDBRANCH   8  10
DOCKED: ENDBRANCH   1   8
DOCKED: BRANCH   3  18
DOCKED: ATOM     18  C   UNL     1      21.336 -10.449  -0.131 -0.71 -0.00    +0.000 C 
DOCKED: ATOM     19  C   UNL     1      20.214 -10.698   0.561 -0.66 -0.00    +0.000 C 
DOCKED: BRANCH  19  20
DOCKED: ATOM     20  C   UNL     1      20.207 -11.288   1.917 -0.76 -0.00    +0.000 C 
DOCKED: ATOM     21  N   UNL     1      20.511 -10.521   3.089 -0.65 -0.00    +0.000 N 
DOCKED: ATOM     22  O   UNL     1      19.952 -12.516   2.035 -1.64 -0.00    +0.000 OA
DOCKED: ATOM     23  H   UNL     1      20.823  -9.591   3.001 -0.59 -0.00    +0.000 HD
DOCKED: BRANCH  21  24
DOCKED: ATOM     24  O   UNL     1      20.367 -11.071   4.319 -0.72 -0.00    +0.000 OA
DOCKED: ATOM     25  H   UNL     1      20.610 -12.009   4.284 -0.47 -0.00    +0.000 HD
DOCKED: ENDBRANCH  21  24
DOCKED: ENDBRANCH  19  20
DOCKED: ENDBRANCH   3  18
DOCKED: TORSDOF 6
DOCKED: TER
DOCKED: ENDMDL
________________________________________________________________________________


	BEGINNING GENETIC ALGORITHM DOCKING 61 of 100
Run: 61 Seed: 729435730 1338179537 [ Run 61 of 100 GA/GALS ]
Beginning LAMARCKIAN GENETIC ALGORITHM (LGA), with a maximum of 2500000 energy evaluations.

Final-Value: -12.524


	FINAL GENETIC ALGORITHM DOCKED STATE
	_______________________________________________


Detailed state:  trans 17.996 -10.059 -0.683 quatxyzw 0.684470 -0.321983 -0.650281 -0.070446 center 0.320 0.169 0.303 ntor 6 -1.5070 -14.6746 79.9189 133.9164 -177.9169 -8.7793
State:	 17.996 -10.059  -0.683   0.686 -0.323 -0.652 -171.921     -1.51  -14.67   79.92  133.92 -177.92   -8.78

DOCKED: MODEL       61
DOCKED: USER    Run = 61
DOCKED: USER    DPF = ligand_dock.biased.dpf
DOCKED: USER  
DOCKED: USER    Estimated Free Energy of Binding    =   -8.86 kcal/mol  [=(1)+(2)+(3)-(4)]
DOCKED: USER    Estimated Inhibition Constant, Ki   =  321.62 nM (nanomolar)  [Temperature = 298.15 K]
DOCKED: USER    
DOCKED: USER    (1) Final Intermolecular Energy     =  -10.65 kcal/mol
DOCKED: USER        vdW + Hbond + desolv Energy     =  -10.65 kcal/mol
DOCKED: USER        Electrostatic Energy            =   +0.00 kcal/mol
DOCKED: USER    (2) Final Total Internal Energy     =   -1.88 kcal/mol
DOCKED: USER    (3) Torsional Free Energy           =   +1.79 kcal/mol
DOCKED: USER    (4) Unbound System's Energy  [=(2)] =   -1.88 kcal/mol
DOCKED: USER    
DOCKED: USER    
DOCKED: USER    NEWDPF move ligand.pdbqt
DOCKED: USER    NEWDPF about 0.320000 0.169000 0.303000
DOCKED: USER    NEWDPF tran0 17.996256 -10.059013 -0.683192
DOCKED: USER    NEWDPF quaternion0 0.684470 -0.321983 -0.650281 -0.070446
DOCKED: USER    NEWDPF axisangle0 0.686175 -0.322785 -0.651900 -171.920836
DOCKED: USER    NEWDPF quat0 0.686175 -0.322785 -0.651900 -171.920836
DOCKED: USER    NEWDPF dihe0 -1.51 -14.67 79.92 133.92 -177.92 -8.78 
DOCKED: USER  keepresnum = 1 
DOCKED: USER  
DOCKED: REMARK  Name = 
DOCKED: REMARK  6 active torsions:
DOCKED: REMARK  status: ('A' for Active; 'I' for Inactive)
DOCKED: REMARK    1  A    between atoms: S_2  and  N_3
DOCKED: REMARK    2  A    between atoms: S_2  and  C_10
DOCKED: REMARK    3  A    between atoms: N_3  and  C_4
DOCKED: REMARK    4  A    between atoms: C_12  and  C_13
DOCKED: REMARK    5  A    between atoms: C_14  and  C_15
DOCKED: REMARK    6  A    between atoms: N_16  and  O_17
DOCKED: REMARK                            x       y       z     vdW  Elec       q    Type
DOCKED: REMARK                         _______ _______ _______ _____ _____    ______ ____
DOCKED: USER                              x       y       z     vdW  Elec       q    Type
DOCKED: USER                           _______ _______ _______ _____ _____    ______ ____
DOCKED: ROOT
DOCKED: ATOM      1  C   UNL     1      19.971 -10.911   0.269 -0.57 -0.00    +0.000 A 
DOCKED: ATOM      2  C   UNL     1      18.849 -10.840  -0.566 -0.41 -0.00    +0.000 A 
DOCKED: ATOM      3  C   UNL     1      18.986 -10.521  -1.928 -0.35 -0.00    +0.000 A 
DOCKED: ATOM      4  C   UNL     1      20.273 -10.257  -2.438 -0.45 -0.00    +0.000 A 
DOCKED: ATOM      5  C   UNL     1      21.393 -10.336  -1.605 -0.55 -0.00    +0.000 A 
DOCKED: ATOM      6  C   UNL     1      21.245 -10.667  -0.257 -0.60 -0.00    +0.000 A 
DOCKED: ENDROOT
DOCKED: BRANCH   1   8
DOCKED: ATOM      7  O   UNL     1      21.015 -10.947   2.748 -0.73 -0.00    +0.000 OA
DOCKED: ATOM      8  S   UNL     1      19.775 -11.302   1.976 -0.90 -0.00    +0.000 S 
DOCKED: ATOM      9  O   UNL     1      19.522 -12.776   2.107 -1.42 -0.00    +0.000 OA
DOCKED: BRANCH   8  10
DOCKED: ATOM     10  N   UNL     1      18.427 -10.430   2.638 -0.53 -0.00    +0.000 N 
DOCKED: ATOM     11  H   UNL     1      18.614  -9.607   3.145 -0.09 -0.00    +0.000 HD
DOCKED: BRANCH  10  12
DOCKED: ATOM     12  C   UNL     1      17.055 -10.837   2.489 -0.43 +0.00    +0.000 A 
DOCKED: ATOM     13  C   UNL     1      16.624 -11.624   1.403 -0.40 +0.00    +0.000 A 
DOCKED: ATOM     14  C   UNL     1      15.283 -12.009   1.297 -0.43 +0.00    +0.000 A 
DOCKED: ATOM     15  C   UNL     1      14.361 -11.610   2.267 -0.43 +0.00    +0.000 A 
DOCKED: ATOM     16  C   UNL     1      14.776 -10.824   3.344 -0.42 +0.00    +0.000 A 
DOCKED: ATOM     17  C   UNL     1      16.116 -10.438   3.455 -0.45 +0.00    +0.000 A 
DOCKED: ENDBRANCH  10  12
DOCKED: ENDBRANCH   8  10
DOCKED: ENDBRANCH   1   8
DOCKED: BRANCH   3  18
DOCKED: ATOM     18  C   UNL     1      17.761 -10.437  -2.762 -0.23 -0.00    +0.000 C 
DOCKED: ATOM     19  C   UNL     1      16.538 -10.201  -2.265 -0.25 -0.00    +0.000 C 
DOCKED: BRANCH  19  20
DOCKED: ATOM     20  C   UNL     1      15.321 -10.118  -3.100 -0.26 -0.00    +0.000 C 
DOCKED: ATOM     21  N   UNL     1      14.851 -11.223  -3.884 -0.29 -0.00    +0.000 N 
DOCKED: ATOM     22  O   UNL     1      14.695  -9.025  -3.141 -0.18 -0.00    +0.000 OA
DOCKED: ATOM     23  H   UNL     1      15.392 -12.043  -3.951 -0.00 -0.00    +0.000 HD
DOCKED: BRANCH  21  24
DOCKED: ATOM     24  O   UNL     1      13.663 -11.142  -4.532 -0.29 -0.00    +0.000 OA
DOCKED: ATOM     25  H   UNL     1      13.250 -10.285  -4.343 -0.01 -0.00    +0.000 HD
DOCKED: ENDBRANCH  21  24
DOCKED: ENDBRANCH  19  20
DOCKED: ENDBRANCH   3  18
DOCKED: TORSDOF 6
DOCKED: TER
DOCKED: ENDMDL
________________________________________________________________________________


	BEGINNING GENETIC ALGORITHM DOCKING 62 of 100
Run: 62 Seed: 2109331447 694717520 [ Run 62 of 100 GA/GALS ]
Beginning LAMARCKIAN GENETIC ALGORITHM (LGA), with a maximum of 2500000 energy evaluations.

Final-Value: -13.383


	FINAL GENETIC ALGORITHM DOCKED STATE
	_______________________________________________


Detailed state:  trans 20.230 -8.262 -0.944 quatxyzw 0.219761 -0.171661 -0.437401 -0.854938 center 0.320 0.169 0.303 ntor 6 43.5424 -170.1079 -159.1345 -148.1877 148.5377 -13.3629
State:	 20.230  -8.262  -0.944   0.424 -0.331 -0.843 -62.494     43.54 -170.11 -159.13 -148.19  148.54  -13.36

DOCKED: MODEL       62
DOCKED: USER    Run = 62
DOCKED: USER    DPF = ligand_dock.biased.dpf
DOCKED: USER  
DOCKED: USER    Estimated Free Energy of Binding    =  -10.34 kcal/mol  [=(1)+(2)+(3)-(4)]
DOCKED: USER    Estimated Inhibition Constant, Ki   =   26.33 nM (nanomolar)  [Temperature = 298.15 K]
DOCKED: USER    
DOCKED: USER    (1) Final Intermolecular Energy     =  -12.13 kcal/mol
DOCKED: USER        vdW + Hbond + desolv Energy     =  -12.13 kcal/mol
DOCKED: USER        Electrostatic Energy            =   +0.00 kcal/mol
DOCKED: USER    (2) Final Total Internal Energy     =   -1.25 kcal/mol
DOCKED: USER    (3) Torsional Free Energy           =   +1.79 kcal/mol
DOCKED: USER    (4) Unbound System's Energy  [=(2)] =   -1.25 kcal/mol
DOCKED: USER    
DOCKED: USER    
DOCKED: USER    NEWDPF move ligand.pdbqt
DOCKED: USER    NEWDPF about 0.320000 0.169000 0.303000
DOCKED: USER    NEWDPF tran0 20.230347 -8.262420 -0.944313
DOCKED: USER    NEWDPF quaternion0 0.219761 -0.171661 -0.437401 -0.854938
DOCKED: USER    NEWDPF axisangle0 0.423650 -0.330925 -0.843213 -62.494330
DOCKED: USER    NEWDPF quat0 0.423650 -0.330925 -0.843213 -62.494330
DOCKED: USER    NEWDPF dihe0 43.54 -170.11 -159.13 -148.19 148.54 -13.36 
DOCKED: USER  keepresnum = 1 
DOCKED: USER  
DOCKED: REMARK  Name = 
DOCKED: REMARK  6 active torsions:
DOCKED: REMARK  status: ('A' for Active; 'I' for Inactive)
DOCKED: REMARK    1  A    between atoms: S_2  and  N_3
DOCKED: REMARK    2  A    between atoms: S_2  and  C_10
DOCKED: REMARK    3  A    between atoms: N_3  and  C_4
DOCKED: REMARK    4  A    between atoms: C_12  and  C_13
DOCKED: REMARK    5  A    between atoms: C_14  and  C_15
DOCKED: REMARK    6  A    between atoms: N_16  and  O_17
DOCKED: REMARK                            x       y       z     vdW  Elec       q    Type
DOCKED: REMARK                         _______ _______ _______ _____ _____    ______ ____
DOCKED: USER                              x       y       z     vdW  Elec       q    Type
DOCKED: USER                           _______ _______ _______ _____ _____    ______ ____
DOCKED: ROOT
DOCKED: ATOM      1  C   UNL     1      21.388  -7.133  -2.653 -0.40 -0.00    +0.000 A 
DOCKED: ATOM      2  C   UNL     1      21.151  -8.050  -1.620 -0.40 -0.00    +0.000 A 
DOCKED: ATOM      3  C   UNL     1      20.940  -9.411  -1.903 -0.51 -0.00    +0.000 A 
DOCKED: ATOM      4  C   UNL     1      20.954  -9.836  -3.247 -0.45 -0.00    +0.000 A 
DOCKED: ATOM      5  C   UNL     1      21.198  -8.922  -4.275 -0.32 -0.00    +0.000 A 
DOCKED: ATOM      6  C   UNL     1      21.420  -7.575  -3.981 -0.29 -0.00    +0.000 A 
DOCKED: ENDROOT
DOCKED: BRANCH   1   8
DOCKED: ATOM      7  O   UNL     1      21.595  -4.598  -3.528 -0.19 -0.00    +0.000 OA
DOCKED: ATOM      8  S   UNL     1      21.640  -5.431  -2.277 -0.52 -0.00    +0.000 S 
DOCKED: ATOM      9  O   UNL     1      22.987  -5.273  -1.631 -0.65 +0.00    +0.000 OA
DOCKED: BRANCH   8  10
DOCKED: ATOM     10  N   UNL     1      20.413  -4.872  -1.182 -0.44 +0.00    +0.000 N 
DOCKED: ATOM     11  H   UNL     1      19.572  -5.382  -1.132 -0.03 -0.00    +0.000 HD
DOCKED: BRANCH  10  12
DOCKED: ATOM     12  C   UNL     1      20.552  -3.710  -0.345 -0.34 +0.00    +0.000 A 
DOCKED: ATOM     13  C   UNL     1      19.519  -3.276   0.508 -0.07 +0.00    +0.000 A 
DOCKED: ATOM     14  C   UNL     1      19.694  -2.147   1.314 -0.39 -0.00    +0.000 A 
DOCKED: ATOM     15  C   UNL     1      20.897  -1.438   1.275 -0.38 -0.00    +0.000 A 
DOCKED: ATOM     16  C   UNL     1      21.925  -1.854   0.428 -0.31 -0.00    +0.000 A 
DOCKED: ATOM     17  C   UNL     1      21.755  -2.984  -0.379 -0.32 +0.00    +0.000 A 
DOCKED: ENDBRANCH  10  12
DOCKED: ENDBRANCH   8  10
DOCKED: ENDBRANCH   1   8
DOCKED: BRANCH   3  18
DOCKED: ATOM     18  C   UNL     1      20.671 -10.335  -0.773 -0.65 -0.00    +0.000 C 
DOCKED: ATOM     19  C   UNL     1      20.813  -9.994   0.517 -0.62 -0.00    +0.000 C 
DOCKED: BRANCH  19  20
DOCKED: ATOM     20  C   UNL     1      20.544 -10.918   1.638 -0.70 -0.00    +0.000 C 
DOCKED: ATOM     21  N   UNL     1      20.651 -10.513   3.009 -0.62 -0.00    +0.000 N 
DOCKED: ATOM     22  O   UNL     1      20.237 -12.111   1.372 -1.60 -0.00    +0.000 OA
DOCKED: ATOM     23  H   UNL     1      21.000  -9.620   3.232 -0.60 -0.00    +0.000 HD
DOCKED: BRANCH  21  24
DOCKED: ATOM     24  O   UNL     1      20.270 -11.357   4.000 -0.83 -0.00    +0.000 OA
DOCKED: ATOM     25  H   UNL     1      20.599 -12.249   3.808 -0.49 -0.00    +0.000 HD
DOCKED: ENDBRANCH  21  24
DOCKED: ENDBRANCH  19  20
DOCKED: ENDBRANCH   3  18
DOCKED: TORSDOF 6
DOCKED: TER
DOCKED: ENDMDL
________________________________________________________________________________


	BEGINNING GENETIC ALGORITHM DOCKING 63 of 100
Run: 63 Seed: 2114699294 837684650 [ Run 63 of 100 GA/GALS ]
Beginning LAMARCKIAN GENETIC ALGORITHM (LGA), with a maximum of 2500000 energy evaluations.

Final-Value: -13.594


	FINAL GENETIC ALGORITHM DOCKED STATE
	_______________________________________________


Detailed state:  trans 20.645 -11.171 -1.828 quatxyzw 0.174824 -0.317053 0.795342 -0.486153 center 0.320 0.169 0.303 ntor 6 21.7037 165.0540 -31.4836 147.2407 -146.5155 -148.1279
State:	 20.645 -11.171  -1.828   0.200 -0.363  0.910 -121.824     21.70  165.05  -31.48  147.24 -146.52 -148.13

DOCKED: MODEL       63
DOCKED: USER    Run = 63
DOCKED: USER    DPF = ligand_dock.biased.dpf
DOCKED: USER  
DOCKED: USER    Estimated Free Energy of Binding    =  -10.27 kcal/mol  [=(1)+(2)+(3)-(4)]
DOCKED: USER    Estimated Inhibition Constant, Ki   =   29.69 nM (nanomolar)  [Temperature = 298.15 K]
DOCKED: USER    
DOCKED: USER    (1) Final Intermolecular Energy     =  -12.06 kcal/mol
DOCKED: USER        vdW + Hbond + desolv Energy     =  -12.06 kcal/mol
DOCKED: USER        Electrostatic Energy            =   +0.00 kcal/mol
DOCKED: USER    (2) Final Total Internal Energy     =   -1.54 kcal/mol
DOCKED: USER    (3) Torsional Free Energy           =   +1.79 kcal/mol
DOCKED: USER    (4) Unbound System's Energy  [=(2)] =   -1.54 kcal/mol
DOCKED: USER    
DOCKED: USER    
DOCKED: USER    NEWDPF move ligand.pdbqt
DOCKED: USER    NEWDPF about 0.320000 0.169000 0.303000
DOCKED: USER    NEWDPF tran0 20.645066 -11.171414 -1.827636
DOCKED: USER    NEWDPF quaternion0 0.174824 -0.317053 0.795342 -0.486153
DOCKED: USER    NEWDPF axisangle0 0.200056 -0.362814 0.910134 -121.823882
DOCKED: USER    NEWDPF quat0 0.200056 -0.362814 0.910134 -121.823882
DOCKED: USER    NEWDPF dihe0 21.70 165.05 -31.48 147.24 -146.52 -148.13 
DOCKED: USER  keepresnum = 1 
DOCKED: USER  
DOCKED: REMARK  Name = 
DOCKED: REMARK  6 active torsions:
DOCKED: REMARK  status: ('A' for Active; 'I' for Inactive)
DOCKED: REMARK    1  A    between atoms: S_2  and  N_3
DOCKED: REMARK    2  A    between atoms: S_2  and  C_10
DOCKED: REMARK    3  A    between atoms: N_3  and  C_4
DOCKED: REMARK    4  A    between atoms: C_12  and  C_13
DOCKED: REMARK    5  A    between atoms: C_14  and  C_15
DOCKED: REMARK    6  A    between atoms: N_16  and  O_17
DOCKED: REMARK                            x       y       z     vdW  Elec       q    Type
DOCKED: REMARK                         _______ _______ _______ _____ _____    ______ ____
DOCKED: USER                              x       y       z     vdW  Elec       q    Type
DOCKED: USER                           _______ _______ _______ _____ _____    ______ ____
DOCKED: ROOT
DOCKED: ATOM      1  C   UNL     1      20.512 -10.102  -3.919 -0.40 -0.00    +0.000 A 
DOCKED: ATOM      2  C   UNL     1      20.220 -10.395  -2.580 -0.44 -0.00    +0.000 A 
DOCKED: ATOM      3  C   UNL     1      20.644  -9.539  -1.549 -0.50 -0.00    +0.000 A 
DOCKED: ATOM      4  C   UNL     1      21.385  -8.387  -1.883 -0.45 -0.00    +0.000 A 
DOCKED: ATOM      5  C   UNL     1      21.669  -8.093  -3.220 -0.29 -0.00    +0.000 A 
DOCKED: ATOM      6  C   UNL     1      21.230  -8.943  -4.236 -0.33 -0.00    +0.000 A 
DOCKED: ENDROOT
DOCKED: BRANCH   1   8
DOCKED: ATOM      7  O   UNL     1      18.489 -11.387  -5.141 -0.41 -0.00    +0.000 OA
DOCKED: ATOM      8  S   UNL     1      19.979 -11.194  -5.195 -0.58 -0.00    +0.000 S 
DOCKED: ATOM      9  O   UNL     1      20.653 -12.523  -5.006 -0.79 -0.00    +0.000 OA
DOCKED: BRANCH   8  10
DOCKED: ATOM     10  N   UNL     1      20.410 -10.551  -6.750 -0.28 -0.00    +0.000 N 
DOCKED: ATOM     11  H   UNL     1      19.791  -9.914  -7.174 +0.00 -0.00    +0.000 HD
DOCKED: BRANCH  10  12
DOCKED: ATOM     12  C   UNL     1      21.616 -10.895  -7.455 -0.27 -0.00    +0.000 A 
DOCKED: ATOM     13  C   UNL     1      21.707 -10.825  -8.859 -0.22 -0.00    +0.000 A 
DOCKED: ATOM     14  C   UNL     1      22.899 -11.159  -9.508 -0.21 -0.00    +0.000 A 
DOCKED: ATOM     15  C   UNL     1      24.009 -11.570  -8.768 -0.34 -0.00    +0.000 A 
DOCKED: ATOM     16  C   UNL     1      23.929 -11.651  -7.376 -0.41 -0.00    +0.000 A 
DOCKED: ATOM     17  C   UNL     1      22.739 -11.317  -6.722 -0.41 -0.00    +0.000 A 
DOCKED: ENDBRANCH  10  12
DOCKED: ENDBRANCH   8  10
DOCKED: ENDBRANCH   1   8
DOCKED: BRANCH   3  18
DOCKED: ATOM     18  C   UNL     1      20.327  -9.909  -0.147 -0.57 -0.00    +0.000 C 
DOCKED: ATOM     19  C   UNL     1      20.656 -11.087   0.404 -0.68 -0.00    +0.000 C 
DOCKED: BRANCH  19  20
DOCKED: ATOM     20  C   UNL     1      20.338 -11.450   1.800 -0.77 -0.00    +0.000 C 
DOCKED: ATOM     21  N   UNL     1      20.639 -10.588   2.906 -0.63 -0.00    +0.000 N 
DOCKED: ATOM     22  O   UNL     1      19.808 -12.572   2.023 -1.60 -0.00    +0.000 OA
DOCKED: ATOM     23  H   UNL     1      21.155  -9.763   2.759 -0.58 -0.00    +0.000 HD
DOCKED: BRANCH  21  24
DOCKED: ATOM     24  O   UNL     1      20.214 -10.906   4.153 -0.75 -0.00    +0.000 OA
DOCKED: ATOM     25  H   UNL     1      20.039 -11.858   4.202 -0.14 -0.00    +0.000 HD
DOCKED: ENDBRANCH  21  24
DOCKED: ENDBRANCH  19  20
DOCKED: ENDBRANCH   3  18
DOCKED: TORSDOF 6
DOCKED: TER
DOCKED: ENDMDL
________________________________________________________________________________


	BEGINNING GENETIC ALGORITHM DOCKING 64 of 100
Run: 64 Seed: 1718097566 1771197667 [ Run 64 of 100 GA/GALS ]
Beginning LAMARCKIAN GENETIC ALGORITHM (LGA), with a maximum of 2500000 energy evaluations.

Final-Value: -13.071


	FINAL GENETIC ALGORITHM DOCKED STATE
	_______________________________________________


Detailed state:  trans 18.464 -11.477 -1.282 quatxyzw -0.263534 0.095917 -0.373050 0.884412 center 0.320 0.169 0.303 ntor 6 1.8091 -102.9174 133.9106 97.4094 153.9941 5.5936
State:	 18.464 -11.477  -1.282  -0.565  0.206 -0.799 55.642      1.81 -102.92  133.91   97.41  153.99    5.59

DOCKED: MODEL       64
DOCKED: USER    Run = 64
DOCKED: USER    DPF = ligand_dock.biased.dpf
DOCKED: USER  
DOCKED: USER    Estimated Free Energy of Binding    =   -8.99 kcal/mol  [=(1)+(2)+(3)-(4)]
DOCKED: USER    Estimated Inhibition Constant, Ki   =  255.03 nM (nanomolar)  [Temperature = 298.15 K]
DOCKED: USER    
DOCKED: USER    (1) Final Intermolecular Energy     =  -10.78 kcal/mol
DOCKED: USER        vdW + Hbond + desolv Energy     =  -10.78 kcal/mol
DOCKED: USER        Electrostatic Energy            =   +0.00 kcal/mol
DOCKED: USER    (2) Final Total Internal Energy     =   -2.29 kcal/mol
DOCKED: USER    (3) Torsional Free Energy           =   +1.79 kcal/mol
DOCKED: USER    (4) Unbound System's Energy  [=(2)] =   -2.29 kcal/mol
DOCKED: USER    
DOCKED: USER    
DOCKED: USER    NEWDPF move ligand.pdbqt
DOCKED: USER    NEWDPF about 0.320000 0.169000 0.303000
DOCKED: USER    NEWDPF tran0 18.464210 -11.477061 -1.282483
DOCKED: USER    NEWDPF quaternion0 -0.263534 0.095917 -0.373050 0.884412
DOCKED: USER    NEWDPF axisangle0 -0.564665 0.205519 -0.799322 55.641598
DOCKED: USER    NEWDPF quat0 -0.564665 0.205519 -0.799322 55.641598
DOCKED: USER    NEWDPF dihe0 1.81 -102.92 133.91 97.41 153.99 5.59 
DOCKED: USER  keepresnum = 1 
DOCKED: USER  
DOCKED: REMARK  Name = 
DOCKED: REMARK  6 active torsions:
DOCKED: REMARK  status: ('A' for Active; 'I' for Inactive)
DOCKED: REMARK    1  A    between atoms: S_2  and  N_3
DOCKED: REMARK    2  A    between atoms: S_2  and  C_10
DOCKED: REMARK    3  A    between atoms: N_3  and  C_4
DOCKED: REMARK    4  A    between atoms: C_12  and  C_13
DOCKED: REMARK    5  A    between atoms: C_14  and  C_15
DOCKED: REMARK    6  A    between atoms: N_16  and  O_17
DOCKED: REMARK                            x       y       z     vdW  Elec       q    Type
DOCKED: REMARK                         _______ _______ _______ _____ _____    ______ ____
DOCKED: USER                              x       y       z     vdW  Elec       q    Type
DOCKED: USER                           _______ _______ _______ _____ _____    ______ ____
DOCKED: ROOT
DOCKED: ATOM      1  C   UNL     1      17.750 -10.267  -3.169 -0.21 -0.00    +0.000 A 
DOCKED: ATOM      2  C   UNL     1      18.360 -10.521  -1.934 -0.28 -0.00    +0.000 A 
DOCKED: ATOM      3  C   UNL     1      19.760 -10.601  -1.827 -0.42 -0.00    +0.000 A 
DOCKED: ATOM      4  C   UNL     1      20.540 -10.439  -2.990 -0.46 -0.00    +0.000 A 
DOCKED: ATOM      5  C   UNL     1      19.930 -10.179  -4.220 -0.34 -0.00    +0.000 A 
DOCKED: ATOM      6  C   UNL     1      18.540 -10.087  -4.311 -0.27 -0.00    +0.000 A 
DOCKED: ENDROOT
DOCKED: BRANCH   1   8
DOCKED: ATOM      7  O   UNL     1      15.525 -10.636  -4.635 -0.25 -0.00    +0.000 OA
DOCKED: ATOM      8  S   UNL     1      15.994 -10.180  -3.282 -0.31 -0.00    +0.000 S 
DOCKED: ATOM      9  O   UNL     1      15.567  -8.756  -3.069 -0.21 -0.00    +0.000 OA
DOCKED: BRANCH   8  10
DOCKED: ATOM     10  N   UNL     1      15.267 -11.183  -2.064 -0.28 -0.00    +0.000 N 
DOCKED: ATOM     11  H   UNL     1      14.511 -11.755  -2.328 -0.03 -0.00    +0.000 HD
DOCKED: BRANCH  10  12
DOCKED: ATOM     12  C   UNL     1      15.703 -11.226  -0.694 -0.31 +0.00    +0.000 A 
DOCKED: ATOM     13  C   UNL     1      16.277 -12.382  -0.129 -0.46 +0.00    +0.000 A 
DOCKED: ATOM     14  C   UNL     1      16.698 -12.384   1.204 -0.34 +0.00    +0.000 A 
DOCKED: ATOM     15  C   UNL     1      16.548 -11.238   1.988 -0.40 +0.00    +0.000 A 
DOCKED: ATOM     16  C   UNL     1      15.974 -10.089   1.441 -0.30 +0.00    +0.000 A 
DOCKED: ATOM     17  C   UNL     1      15.553 -10.082   0.108 -0.26 +0.00    +0.000 A 
DOCKED: ENDBRANCH  10  12
DOCKED: ENDBRANCH   8  10
DOCKED: ENDBRANCH   1   8
DOCKED: BRANCH   3  18
DOCKED: ATOM     18  C   UNL     1      20.353 -10.895  -0.499 -0.59 -0.00    +0.000 C 
DOCKED: ATOM     19  C   UNL     1      19.635 -10.994   0.630 -0.63 -0.00    +0.000 C 
DOCKED: BRANCH  19  20
DOCKED: ATOM     20  C   UNL     1      20.230 -11.286   1.951 -0.76 -0.00    +0.000 C 
DOCKED: ATOM     21  N   UNL     1      20.195 -10.348   3.034 -0.60 -0.00    +0.000 N 
DOCKED: ATOM     22  O   UNL     1      20.813 -12.392   2.115 -1.28 -0.00    +0.000 OA
DOCKED: ATOM     23  H   UNL     1      19.846  -9.439   2.885 -0.55 -0.00    +0.000 HD
DOCKED: BRANCH  21  24
DOCKED: ATOM     24  O   UNL     1      20.639 -10.708   4.263 -0.76 -0.00    +0.000 OA
DOCKED: ATOM     25  H   UNL     1      20.972 -11.618   4.231 -0.48 -0.00    +0.000 HD
DOCKED: ENDBRANCH  21  24
DOCKED: ENDBRANCH  19  20
DOCKED: ENDBRANCH   3  18
DOCKED: TORSDOF 6
DOCKED: TER
DOCKED: ENDMDL
________________________________________________________________________________


	BEGINNING GENETIC ALGORITHM DOCKING 65 of 100
Run: 65 Seed: 1433963371 2131569987 [ Run 65 of 100 GA/GALS ]
Beginning LAMARCKIAN GENETIC ALGORITHM (LGA), with a maximum of 2500000 energy evaluations.

Final-Value: -12.770


	FINAL GENETIC ALGORITHM DOCKED STATE
	_______________________________________________


Detailed state:  trans 18.703 -11.103 -2.140 quatxyzw 0.921771 -0.070558 -0.344848 -0.162602 center 0.320 0.169 0.303 ntor 6 6.0712 149.6098 134.5691 176.5319 -113.3196 -87.9316
State:	 18.703 -11.103  -2.140   0.934 -0.072 -0.349 -161.284      6.07  149.61  134.57  176.53 -113.32  -87.93

DOCKED: MODEL       65
DOCKED: USER    Run = 65
DOCKED: USER    DPF = ligand_dock.biased.dpf
DOCKED: USER  
DOCKED: USER    Estimated Free Energy of Binding    =   -9.50 kcal/mol  [=(1)+(2)+(3)-(4)]
DOCKED: USER    Estimated Inhibition Constant, Ki   =  108.35 nM (nanomolar)  [Temperature = 298.15 K]
DOCKED: USER    
DOCKED: USER    (1) Final Intermolecular Energy     =  -11.29 kcal/mol
DOCKED: USER        vdW + Hbond + desolv Energy     =  -11.29 kcal/mol
DOCKED: USER        Electrostatic Energy            =   +0.00 kcal/mol
DOCKED: USER    (2) Final Total Internal Energy     =   -1.48 kcal/mol
DOCKED: USER    (3) Torsional Free Energy           =   +1.79 kcal/mol
DOCKED: USER    (4) Unbound System's Energy  [=(2)] =   -1.48 kcal/mol
DOCKED: USER    
DOCKED: USER    
DOCKED: USER    NEWDPF move ligand.pdbqt
DOCKED: USER    NEWDPF about 0.320000 0.169000 0.303000
DOCKED: USER    NEWDPF tran0 18.703210 -11.102565 -2.139839
DOCKED: USER    NEWDPF quaternion0 0.921771 -0.070558 -0.344848 -0.162602
DOCKED: USER    NEWDPF axisangle0 0.934204 -0.071510 -0.349499 -161.284075
DOCKED: USER    NEWDPF quat0 0.934204 -0.071510 -0.349499 -161.284075
DOCKED: USER    NEWDPF dihe0 6.07 149.61 134.57 176.53 -113.32 -87.93 
DOCKED: USER  keepresnum = 1 
DOCKED: USER  
DOCKED: REMARK  Name = 
DOCKED: REMARK  6 active torsions:
DOCKED: REMARK  status: ('A' for Active; 'I' for Inactive)
DOCKED: REMARK    1  A    between atoms: S_2  and  N_3
DOCKED: REMARK    2  A    between atoms: S_2  and  C_10
DOCKED: REMARK    3  A    between atoms: N_3  and  C_4
DOCKED: REMARK    4  A    between atoms: C_12  and  C_13
DOCKED: REMARK    5  A    between atoms: C_14  and  C_15
DOCKED: REMARK    6  A    between atoms: N_16  and  O_17
DOCKED: REMARK                            x       y       z     vdW  Elec       q    Type
DOCKED: REMARK                         _______ _______ _______ _____ _____    ______ ____
DOCKED: USER                              x       y       z     vdW  Elec       q    Type
DOCKED: USER                           _______ _______ _______ _____ _____    ______ ____
DOCKED: ROOT
DOCKED: ATOM      1  C   UNL     1      19.840 -10.863  -0.094 -0.53 -0.00    +0.000 A 
DOCKED: ATOM      2  C   UNL     1      19.603 -11.251  -1.420 -0.25 -0.00    +0.000 A 
DOCKED: ATOM      3  C   UNL     1      20.240 -10.594  -2.486 -0.43 -0.00    +0.000 A 
DOCKED: ATOM      4  C   UNL     1      21.113  -9.524  -2.200 -0.50 -0.00    +0.000 A 
DOCKED: ATOM      5  C   UNL     1      21.355  -9.143  -0.877 -0.54 -0.00    +0.000 A 
DOCKED: ATOM      6  C   UNL     1      20.726  -9.813   0.174 -0.57 -0.00    +0.000 A 
DOCKED: ENDROOT
DOCKED: BRANCH   1   8
DOCKED: ATOM      7  O   UNL     1      20.018 -12.387   2.115 -1.68 -0.00    +0.000 OA
DOCKED: ATOM      8  S   UNL     1      19.023 -11.695   1.226 -0.79 -0.00    +0.000 S 
DOCKED: ATOM      9  O   UNL     1      18.087 -12.717   0.647 -0.70 -0.00    +0.000 OA
DOCKED: BRANCH   8  10
DOCKED: ATOM     10  N   UNL     1      18.112 -10.559   2.174 -0.48 -0.00    +0.000 N 
DOCKED: ATOM     11  H   UNL     1      18.592  -9.794   2.564 -0.07 -0.00    +0.000 HD
DOCKED: BRANCH  10  12
DOCKED: ATOM     12  C   UNL     1      16.699 -10.672   2.423 -0.41 +0.00    +0.000 A 
DOCKED: ATOM     13  C   UNL     1      16.140 -10.407   3.689 -0.44 +0.00    +0.000 A 
DOCKED: ATOM     14  C   UNL     1      14.761 -10.519   3.890 -0.41 +0.00    +0.000 A 
DOCKED: ATOM     15  C   UNL     1      13.927 -10.898   2.836 -0.35 +0.00    +0.000 A 
DOCKED: ATOM     16  C   UNL     1      14.471 -11.171   1.579 -0.36 +0.00    +0.000 A 
DOCKED: ATOM     17  C   UNL     1      15.849 -11.059   1.373 -0.35 +0.00    +0.000 A 
DOCKED: ENDBRANCH  10  12
DOCKED: ENDBRANCH   8  10
DOCKED: ENDBRANCH   1   8
DOCKED: BRANCH   3  18
DOCKED: ATOM     18  C   UNL     1      19.935 -11.030  -3.871 -0.48 -0.00    +0.000 C 
DOCKED: ATOM     19  C   UNL     1      18.917 -10.543  -4.597 -0.36 -0.00    +0.000 C 
DOCKED: BRANCH  19  20
DOCKED: ATOM     20  C   UNL     1      18.618 -10.981  -5.976 -0.37 -0.00    +0.000 C 
DOCKED: ATOM     21  N   UNL     1      17.397 -11.649  -6.322 -0.37 -0.00    +0.000 N 
DOCKED: ATOM     22  O   UNL     1      19.484 -10.783  -6.870 -0.35 -0.00    +0.000 OA
DOCKED: ATOM     23  H   UNL     1      16.764 -11.912  -5.615 -0.03 -0.00    +0.000 HD
DOCKED: BRANCH  21  24
DOCKED: ATOM     24  O   UNL     1      17.111 -11.916  -7.619 -0.44 -0.00    +0.000 OA
DOCKED: ATOM     25  H   UNL     1      17.871 -11.681  -8.173 -0.04 -0.00    +0.000 HD
DOCKED: ENDBRANCH  21  24
DOCKED: ENDBRANCH  19  20
DOCKED: ENDBRANCH   3  18
DOCKED: TORSDOF 6
DOCKED: TER
DOCKED: ENDMDL
________________________________________________________________________________


	BEGINNING GENETIC ALGORITHM DOCKING 66 of 100
Run: 66 Seed: 472355413 2103903680 [ Run 66 of 100 GA/GALS ]
Beginning LAMARCKIAN GENETIC ALGORITHM (LGA), with a maximum of 2500000 energy evaluations.

Final-Value: -13.503


	FINAL GENETIC ALGORITHM DOCKED STATE
	_______________________________________________


Detailed state:  trans 21.110 -11.383 -1.967 quatxyzw 0.149348 -0.341142 0.873796 -0.312727 center 0.320 0.169 0.303 ntor 6 6.6700 -137.1187 -87.7786 -11.4736 -109.1689 160.4614
State:	 21.110 -11.383  -1.967   0.157 -0.359  0.920 -143.553      6.67 -137.12  -87.78  -11.47 -109.17  160.46

DOCKED: MODEL       66
DOCKED: USER    Run = 66
DOCKED: USER    DPF = ligand_dock.biased.dpf
DOCKED: USER  
DOCKED: USER    Estimated Free Energy of Binding    =  -10.03 kcal/mol  [=(1)+(2)+(3)-(4)]
DOCKED: USER    Estimated Inhibition Constant, Ki   =   44.56 nM (nanomolar)  [Temperature = 298.15 K]
DOCKED: USER    
DOCKED: USER    (1) Final Intermolecular Energy     =  -11.82 kcal/mol
DOCKED: USER        vdW + Hbond + desolv Energy     =  -11.82 kcal/mol
DOCKED: USER        Electrostatic Energy            =   +0.00 kcal/mol
DOCKED: USER    (2) Final Total Internal Energy     =   -1.68 kcal/mol
DOCKED: USER    (3) Torsional Free Energy           =   +1.79 kcal/mol
DOCKED: USER    (4) Unbound System's Energy  [=(2)] =   -1.68 kcal/mol
DOCKED: USER    
DOCKED: USER    
DOCKED: USER    NEWDPF move ligand.pdbqt
DOCKED: USER    NEWDPF about 0.320000 0.169000 0.303000
DOCKED: USER    NEWDPF tran0 21.109549 -11.382837 -1.966590
DOCKED: USER    NEWDPF quaternion0 0.149348 -0.341142 0.873796 -0.312727
DOCKED: USER    NEWDPF axisangle0 0.157235 -0.359157 0.919937 -143.552750
DOCKED: USER    NEWDPF quat0 0.157235 -0.359157 0.919937 -143.552750
DOCKED: USER    NEWDPF dihe0 6.67 -137.12 -87.78 -11.47 -109.17 160.46 
DOCKED: USER  keepresnum = 1 
DOCKED: USER  
DOCKED: REMARK  Name = 
DOCKED: REMARK  6 active torsions:
DOCKED: REMARK  status: ('A' for Active; 'I' for Inactive)
DOCKED: REMARK    1  A    between atoms: S_2  and  N_3
DOCKED: REMARK    2  A    between atoms: S_2  and  C_10
DOCKED: REMARK    3  A    between atoms: N_3  and  C_4
DOCKED: REMARK    4  A    between atoms: C_12  and  C_13
DOCKED: REMARK    5  A    between atoms: C_14  and  C_15
DOCKED: REMARK    6  A    between atoms: N_16  and  O_17
DOCKED: REMARK                            x       y       z     vdW  Elec       q    Type
DOCKED: REMARK                         _______ _______ _______ _____ _____    ______ ____
DOCKED: USER                              x       y       z     vdW  Elec       q    Type
DOCKED: USER                           _______ _______ _______ _____ _____    ______ ____
DOCKED: ROOT
DOCKED: ATOM      1  C   UNL     1      21.045 -10.295  -4.051 -0.43 -0.00    +0.000 A 
DOCKED: ATOM      2  C   UNL     1      20.610 -10.741  -2.796 -0.41 -0.00    +0.000 A 
DOCKED: ATOM      3  C   UNL     1      20.526  -9.855  -1.709 -0.50 -0.00    +0.000 A 
DOCKED: ATOM      4  C   UNL     1      20.904  -8.509  -1.897 -0.39 -0.00    +0.000 A 
DOCKED: ATOM      5  C   UNL     1      21.330  -8.065  -3.151 -0.37 -0.00    +0.000 A 
DOCKED: ATOM      6  C   UNL     1      21.396  -8.951  -4.228 -0.33 -0.00    +0.000 A 
DOCKED: ENDROOT
DOCKED: BRANCH   1   8
DOCKED: ATOM      7  O   UNL     1      20.608 -12.770  -5.007 -0.75 -0.00    +0.000 OA
DOCKED: ATOM      8  S   UNL     1      21.152 -11.425  -5.399 -0.64 -0.00    +0.000 S 
DOCKED: ATOM      9  O   UNL     1      22.594 -11.574  -5.790 -0.57 -0.00    +0.000 OA
DOCKED: BRANCH   8  10
DOCKED: ATOM     10  N   UNL     1      20.250 -10.824  -6.756 -0.31 -0.00    +0.000 N 
DOCKED: ATOM     11  H   UNL     1      20.746 -10.596  -7.575 -0.03 -0.00    +0.000 HD
DOCKED: BRANCH  10  12
DOCKED: ATOM     12  C   UNL     1      18.823 -10.639  -6.754 -0.29 -0.00    +0.000 A 
DOCKED: ATOM     13  C   UNL     1      18.049 -10.791  -7.921 -0.25 -0.00    +0.000 A 
DOCKED: ATOM     14  C   UNL     1      16.663 -10.613  -7.877 -0.21 -0.00    +0.000 A 
DOCKED: ATOM     15  C   UNL     1      16.036 -10.277  -6.675 -0.17 -0.00    +0.000 A 
DOCKED: ATOM     16  C   UNL     1      16.795 -10.115  -5.514 -0.19 -0.00    +0.000 A 
DOCKED: ATOM     17  C   UNL     1      18.181 -10.295  -5.552 -0.25 -0.00    +0.000 A 
DOCKED: ENDBRANCH  10  12
DOCKED: ENDBRANCH   8  10
DOCKED: ENDBRANCH   1   8
DOCKED: BRANCH   3  18
DOCKED: ATOM     18  C   UNL     1      20.081 -10.385  -0.396 -0.59 -0.00    +0.000 C 
DOCKED: ATOM     19  C   UNL     1      20.921 -10.845   0.544 -0.69 -0.00    +0.000 C 
DOCKED: BRANCH  19  20
DOCKED: ATOM     20  C   UNL     1      20.473 -11.372   1.850 -0.76 -0.00    +0.000 C 
DOCKED: ATOM     21  N   UNL     1      20.631 -10.637   3.070 -0.65 -0.00    +0.000 N 
DOCKED: ATOM     22  O   UNL     1      19.959 -12.522   1.887 -1.66 -0.00    +0.000 OA
DOCKED: ATOM     23  H   UNL     1      21.132  -9.790   3.072 -0.58 -0.00    +0.000 HD
DOCKED: BRANCH  21  24
DOCKED: ATOM     24  O   UNL     1      20.090 -11.104   4.222 -0.72 -0.00    +0.000 OA
DOCKED: ATOM     25  H   UNL     1      19.724 -11.989   4.071 -0.08 -0.00    +0.000 HD
DOCKED: ENDBRANCH  21  24
DOCKED: ENDBRANCH  19  20
DOCKED: ENDBRANCH   3  18
DOCKED: TORSDOF 6
DOCKED: TER
DOCKED: ENDMDL
________________________________________________________________________________


	BEGINNING GENETIC ALGORITHM DOCKING 67 of 100
Run: 67 Seed: 791652530 820794321 [ Run 67 of 100 GA/GALS ]
Beginning LAMARCKIAN GENETIC ALGORITHM (LGA), with a maximum of 2500000 energy evaluations.

Final-Value: -12.889


	FINAL GENETIC ALGORITHM DOCKED STATE
	_______________________________________________


Detailed state:  trans 18.593 -10.563 -1.783 quatxyzw -0.900181 0.149514 0.401944 0.075899 center 0.320 0.169 0.303 ntor 6 -1.6663 -87.3808 54.2833 -31.4591 -158.3407 41.3301
State:	 18.593 -10.563  -1.783  -0.903  0.150  0.403 171.294     -1.67  -87.38   54.28  -31.46 -158.34   41.33

DOCKED: MODEL       67
DOCKED: USER    Run = 67
DOCKED: USER    DPF = ligand_dock.biased.dpf
DOCKED: USER  
DOCKED: USER    Estimated Free Energy of Binding    =   -9.21 kcal/mol  [=(1)+(2)+(3)-(4)]
DOCKED: USER    Estimated Inhibition Constant, Ki   =  177.65 nM (nanomolar)  [Temperature = 298.15 K]
DOCKED: USER    
DOCKED: USER    (1) Final Intermolecular Energy     =  -11.00 kcal/mol
DOCKED: USER        vdW + Hbond + desolv Energy     =  -11.00 kcal/mol
DOCKED: USER        Electrostatic Energy            =   +0.00 kcal/mol
DOCKED: USER    (2) Final Total Internal Energy     =   -1.89 kcal/mol
DOCKED: USER    (3) Torsional Free Energy           =   +1.79 kcal/mol
DOCKED: USER    (4) Unbound System's Energy  [=(2)] =   -1.89 kcal/mol
DOCKED: USER    
DOCKED: USER    
DOCKED: USER    NEWDPF move ligand.pdbqt
DOCKED: USER    NEWDPF about 0.320000 0.169000 0.303000
DOCKED: USER    NEWDPF tran0 18.592547 -10.563049 -1.783055
DOCKED: USER    NEWDPF quaternion0 -0.900181 0.149514 0.401944 0.075899
DOCKED: USER    NEWDPF axisangle0 -0.902785 0.149947 0.403106 171.294255
DOCKED: USER    NEWDPF quat0 -0.902785 0.149947 0.403106 171.294255
DOCKED: USER    NEWDPF dihe0 -1.67 -87.38 54.28 -31.46 -158.34 41.33 
DOCKED: USER  keepresnum = 1 
DOCKED: USER  
DOCKED: REMARK  Name = 
DOCKED: REMARK  6 active torsions:
DOCKED: REMARK  status: ('A' for Active; 'I' for Inactive)
DOCKED: REMARK    1  A    between atoms: S_2  and  N_3
DOCKED: REMARK    2  A    between atoms: S_2  and  C_10
DOCKED: REMARK    3  A    between atoms: N_3  and  C_4
DOCKED: REMARK    4  A    between atoms: C_12  and  C_13
DOCKED: REMARK    5  A    between atoms: C_14  and  C_15
DOCKED: REMARK    6  A    between atoms: N_16  and  O_17
DOCKED: REMARK                            x       y       z     vdW  Elec       q    Type
DOCKED: REMARK                         _______ _______ _______ _____ _____    ______ ____
DOCKED: USER                              x       y       z     vdW  Elec       q    Type
DOCKED: USER                           _______ _______ _______ _____ _____    ______ ____
DOCKED: ROOT
DOCKED: ATOM      1  C   UNL     1      19.894 -10.817   0.160 -0.55 -0.00    +0.000 A 
DOCKED: ATOM      2  C   UNL     1      19.482 -10.988  -1.168 -0.41 -0.00    +0.000 A 
DOCKED: ATOM      3  C   UNL     1      20.178 -10.370  -2.221 -0.45 -0.00    +0.000 A 
DOCKED: ATOM      4  C   UNL     1      21.290  -9.558  -1.916 -0.51 -0.00    +0.000 A 
DOCKED: ATOM      5  C   UNL     1      21.704  -9.395  -0.592 -0.40 -0.00    +0.000 A 
DOCKED: ATOM      6  C   UNL     1      21.012 -10.025   0.444 -0.57 -0.00    +0.000 A 
DOCKED: ENDROOT
DOCKED: BRANCH   1   8
DOCKED: ATOM      7  O   UNL     1      18.334 -10.566   2.338 -0.58 -0.00    +0.000 OA
DOCKED: ATOM      8  S   UNL     1      19.000 -11.594   1.466 -0.79 -0.00    +0.000 S 
DOCKED: ATOM      9  O   UNL     1      19.960 -12.395   2.297 -1.60 -0.00    +0.000 OA
DOCKED: BRANCH   8  10
DOCKED: ATOM     10  N   UNL     1      17.788 -12.653   0.813 -0.52 +0.00    +0.000 N 
DOCKED: ATOM     11  H   UNL     1      18.011 -13.607   0.718 -0.13 +0.00    +0.000 HD
DOCKED: BRANCH  10  12
DOCKED: ATOM     12  C   UNL     1      16.479 -12.218   0.402 -0.45 +0.00    +0.000 A 
DOCKED: ATOM     13  C   UNL     1      15.349 -12.365   1.231 -0.39 +0.00    +0.000 A 
DOCKED: ATOM     14  C   UNL     1      14.095 -11.922   0.801 -0.41 +0.00    +0.000 A 
DOCKED: ATOM     15  C   UNL     1      13.952 -11.334  -0.458 -0.33 +0.00    +0.000 A 
DOCKED: ATOM     16  C   UNL     1      15.063 -11.190  -1.291 -0.31 +0.00    +0.000 A 
DOCKED: ATOM     17  C   UNL     1      16.321 -11.630  -0.864 -0.29 +0.00    +0.000 A 
DOCKED: ENDBRANCH  10  12
DOCKED: ENDBRANCH   8  10
DOCKED: ENDBRANCH   1   8
DOCKED: BRANCH   3  18
DOCKED: ATOM     18  C   UNL     1      19.685 -10.566  -3.607 -0.43 -0.00    +0.000 C 
DOCKED: ATOM     19  C   UNL     1      18.388 -10.521  -3.948 -0.32 -0.00    +0.000 C 
DOCKED: BRANCH  19  20
DOCKED: ATOM     20  C   UNL     1      17.903 -10.717  -5.330 -0.31 -0.00    +0.000 C 
DOCKED: ATOM     21  N   UNL     1      18.516 -11.644  -6.236 -0.39 -0.00    +0.000 N 
DOCKED: ATOM     22  O   UNL     1      16.932 -10.020  -5.729 -0.19 -0.00    +0.000 OA
DOCKED: ATOM     23  H   UNL     1      19.344 -12.110  -5.976 -0.26 -0.00    +0.000 HD
DOCKED: BRANCH  21  24
DOCKED: ATOM     24  O   UNL     1      17.959 -11.884  -7.447 -0.40 -0.00    +0.000 OA
DOCKED: ATOM     25  H   UNL     1      17.141 -11.370  -7.533 -0.02 -0.00    +0.000 HD
DOCKED: ENDBRANCH  21  24
DOCKED: ENDBRANCH  19  20
DOCKED: ENDBRANCH   3  18
DOCKED: TORSDOF 6
DOCKED: TER
DOCKED: ENDMDL
________________________________________________________________________________


	BEGINNING GENETIC ALGORITHM DOCKING 68 of 100
Run: 68 Seed: 521199236 1497435247 [ Run 68 of 100 GA/GALS ]
Beginning LAMARCKIAN GENETIC ALGORITHM (LGA), with a maximum of 2500000 energy evaluations.

Final-Value: -14.200


	FINAL GENETIC ALGORITHM DOCKED STATE
	_______________________________________________


Detailed state:  trans 21.961 -11.234 -2.260 quatxyzw -0.290133 0.370182 -0.846118 0.250742 center 0.320 0.169 0.303 ntor 6 23.9514 141.3642 161.9197 96.6122 13.6078 94.4574
State:	 21.961 -11.234  -2.260  -0.300  0.382 -0.874 150.957     23.95  141.36  161.92   96.61   13.61   94.46

DOCKED: MODEL       68
DOCKED: USER    Run = 68
DOCKED: USER    DPF = ligand_dock.biased.dpf
DOCKED: USER  
DOCKED: USER    Estimated Free Energy of Binding    =  -10.79 kcal/mol  [=(1)+(2)+(3)-(4)]
DOCKED: USER    Estimated Inhibition Constant, Ki   =   12.25 nM (nanomolar)  [Temperature = 298.15 K]
DOCKED: USER    
DOCKED: USER    (1) Final Intermolecular Energy     =  -12.58 kcal/mol
DOCKED: USER        vdW + Hbond + desolv Energy     =  -12.58 kcal/mol
DOCKED: USER        Electrostatic Energy            =   +0.00 kcal/mol
DOCKED: USER    (2) Final Total Internal Energy     =   -1.62 kcal/mol
DOCKED: USER    (3) Torsional Free Energy           =   +1.79 kcal/mol
DOCKED: USER    (4) Unbound System's Energy  [=(2)] =   -1.62 kcal/mol
DOCKED: USER    
DOCKED: USER    
DOCKED: USER    NEWDPF move ligand.pdbqt
DOCKED: USER    NEWDPF about 0.320000 0.169000 0.303000
DOCKED: USER    NEWDPF tran0 21.960751 -11.233789 -2.259513
DOCKED: USER    NEWDPF quaternion0 -0.290133 0.370182 -0.846118 0.250742
DOCKED: USER    NEWDPF axisangle0 -0.299708 0.382398 -0.874041 150.957121
DOCKED: USER    NEWDPF quat0 -0.299708 0.382398 -0.874041 150.957121
DOCKED: USER    NEWDPF dihe0 23.95 141.36 161.92 96.61 13.61 94.46 
DOCKED: USER  keepresnum = 1 
DOCKED: USER  
DOCKED: REMARK  Name = 
DOCKED: REMARK  6 active torsions:
DOCKED: REMARK  status: ('A' for Active; 'I' for Inactive)
DOCKED: REMARK    1  A    between atoms: S_2  and  N_3
DOCKED: REMARK    2  A    between atoms: S_2  and  C_10
DOCKED: REMARK    3  A    between atoms: N_3  and  C_4
DOCKED: REMARK    4  A    between atoms: C_12  and  C_13
DOCKED: REMARK    5  A    between atoms: C_14  and  C_15
DOCKED: REMARK    6  A    between atoms: N_16  and  O_17
DOCKED: REMARK                            x       y       z     vdW  Elec       q    Type
DOCKED: REMARK                         _______ _______ _______ _____ _____    ______ ____
DOCKED: USER                              x       y       z     vdW  Elec       q    Type
DOCKED: USER                           _______ _______ _______ _____ _____    ______ ____
DOCKED: ROOT
DOCKED: ATOM      1  C   UNL     1      21.293  -9.866  -4.053 -0.41 -0.00    +0.000 A 
DOCKED: ATOM      2  C   UNL     1      21.205 -10.579  -2.850 -0.46 -0.00    +0.000 A 
DOCKED: ATOM      3  C   UNL     1      21.208  -9.907  -1.616 -0.55 -0.00    +0.000 A 
DOCKED: ATOM      4  C   UNL     1      21.319  -8.501  -1.607 -0.46 -0.00    +0.000 A 
DOCKED: ATOM      5  C   UNL     1      21.400  -7.792  -2.808 -0.39 -0.00    +0.000 A 
DOCKED: ATOM      6  C   UNL     1      21.382  -8.469  -4.028 -0.32 -0.00    +0.000 A 
DOCKED: ENDROOT
DOCKED: BRANCH   1   8
DOCKED: ATOM      7  O   UNL     1      22.472 -11.664  -5.670 -0.61 -0.00    +0.000 OA
DOCKED: ATOM      8  S   UNL     1      21.298 -10.729  -5.589 -0.56 -0.00    +0.000 S 
DOCKED: ATOM      9  O   UNL     1      21.390  -9.728  -6.705 -0.24 -0.00    +0.000 OA
DOCKED: BRANCH   8  10
DOCKED: ATOM     10  N   UNL     1      19.832 -11.645  -5.764 -0.41 -0.00    +0.000 N 
DOCKED: ATOM     11  H   UNL     1      19.901 -12.565  -6.107 -0.48 -0.00    +0.000 HD
DOCKED: BRANCH  10  12
DOCKED: ATOM     12  C   UNL     1      18.525 -11.140  -5.437 -0.33 -0.00    +0.000 A 
DOCKED: ATOM     13  C   UNL     1      17.442 -11.236  -6.331 -0.33 -0.00    +0.000 A 
DOCKED: ATOM     14  C   UNL     1      16.184 -10.741  -5.975 -0.23 -0.00    +0.000 A 
DOCKED: ATOM     15  C   UNL     1      15.994 -10.143  -4.727 -0.20 -0.00    +0.000 A 
DOCKED: ATOM     16  C   UNL     1      17.063 -10.035  -3.835 -0.22 -0.00    +0.000 A 
DOCKED: ATOM     17  C   UNL     1      18.322 -10.529  -4.187 -0.27 -0.00    +0.000 A 
DOCKED: ENDBRANCH  10  12
DOCKED: ENDBRANCH   8  10
DOCKED: ENDBRANCH   1   8
DOCKED: BRANCH   3  18
DOCKED: ATOM     18  C   UNL     1      21.135 -10.712  -0.371 -0.66 -0.00    +0.000 C 
DOCKED: ATOM     19  C   UNL     1      20.490 -10.313   0.736 -0.65 -0.00    +0.000 C 
DOCKED: BRANCH  19  20
DOCKED: ATOM     20  C   UNL     1      20.420 -11.119   1.972 -0.73 -0.00    +0.000 C 
DOCKED: ATOM     21  N   UNL     1      20.453 -10.528   3.278 -0.68 -0.00    +0.000 N 
DOCKED: ATOM     22  O   UNL     1      20.356 -12.373   1.868 -1.64 -0.00    +0.000 OA
DOCKED: ATOM     23  H   UNL     1      20.618  -9.562   3.375 -0.58 -0.00    +0.000 HD
DOCKED: BRANCH  21  24
DOCKED: ATOM     24  O   UNL     1      20.257 -11.294   4.378 -0.77 -0.00    +0.000 OA
DOCKED: ATOM     25  H   UNL     1      20.483 -12.214   4.175 -0.40 -0.00    +0.000 HD
DOCKED: ENDBRANCH  21  24
DOCKED: ENDBRANCH  19  20
DOCKED: ENDBRANCH   3  18
DOCKED: TORSDOF 6
DOCKED: TER
DOCKED: ENDMDL
________________________________________________________________________________


	BEGINNING GENETIC ALGORITHM DOCKING 69 of 100
Run: 69 Seed: 1931806717 413534843 [ Run 69 of 100 GA/GALS ]
Beginning LAMARCKIAN GENETIC ALGORITHM (LGA), with a maximum of 2500000 energy evaluations.

Final-Value: -12.866


	FINAL GENETIC ALGORITHM DOCKED STATE
	_______________________________________________


Detailed state:  trans 18.304 -10.191 -1.023 quatxyzw -0.802132 0.224290 0.542803 0.107901 center 0.320 0.169 0.303 ntor 6 0.4097 149.7447 -169.5627 154.5612 26.7769 -29.6329
State:	 18.304 -10.191  -1.023  -0.807  0.226  0.546 167.611      0.41  149.74 -169.56  154.56   26.78  -29.63

DOCKED: MODEL       69
DOCKED: USER    Run = 69
DOCKED: USER    DPF = ligand_dock.biased.dpf
DOCKED: USER  
DOCKED: USER    Estimated Free Energy of Binding    =   -9.47 kcal/mol  [=(1)+(2)+(3)-(4)]
DOCKED: USER    Estimated Inhibition Constant, Ki   =  114.40 nM (nanomolar)  [Temperature = 298.15 K]
DOCKED: USER    
DOCKED: USER    (1) Final Intermolecular Energy     =  -11.26 kcal/mol
DOCKED: USER        vdW + Hbond + desolv Energy     =  -11.26 kcal/mol
DOCKED: USER        Electrostatic Energy            =   +0.00 kcal/mol
DOCKED: USER    (2) Final Total Internal Energy     =   -1.61 kcal/mol
DOCKED: USER    (3) Torsional Free Energy           =   +1.79 kcal/mol
DOCKED: USER    (4) Unbound System's Energy  [=(2)] =   -1.61 kcal/mol
DOCKED: USER    
DOCKED: USER    
DOCKED: USER    NEWDPF move ligand.pdbqt
DOCKED: USER    NEWDPF about 0.320000 0.169000 0.303000
DOCKED: USER    NEWDPF tran0 18.303586 -10.190827 -1.022604
DOCKED: USER    NEWDPF quaternion0 -0.802132 0.224290 0.542803 0.107901
DOCKED: USER    NEWDPF axisangle0 -0.806843 0.225607 0.545991 167.611337
DOCKED: USER    NEWDPF quat0 -0.806843 0.225607 0.545991 167.611337
DOCKED: USER    NEWDPF dihe0 0.41 149.74 -169.56 154.56 26.78 -29.63 
DOCKED: USER  keepresnum = 1 
DOCKED: USER  
DOCKED: REMARK  Name = 
DOCKED: REMARK  6 active torsions:
DOCKED: REMARK  status: ('A' for Active; 'I' for Inactive)
DOCKED: REMARK    1  A    between atoms: S_2  and  N_3
DOCKED: REMARK    2  A    between atoms: S_2  and  C_10
DOCKED: REMARK    3  A    between atoms: N_3  and  C_4
DOCKED: REMARK    4  A    between atoms: C_12  and  C_13
DOCKED: REMARK    5  A    between atoms: C_14  and  C_15
DOCKED: REMARK    6  A    between atoms: N_16  and  O_17
DOCKED: REMARK                            x       y       z     vdW  Elec       q    Type
DOCKED: REMARK                         _______ _______ _______ _____ _____    ______ ____
DOCKED: USER                              x       y       z     vdW  Elec       q    Type
DOCKED: USER                           _______ _______ _______ _____ _____    ______ ____
DOCKED: ROOT
DOCKED: ATOM      1  C   UNL     1      20.126 -10.542   0.423 -0.57 -0.00    +0.000 A 
DOCKED: ATOM      2  C   UNL     1      19.277 -10.723  -0.677 -0.43 -0.00    +0.000 A 
DOCKED: ATOM      3  C   UNL     1      19.664 -10.300  -1.960 -0.39 -0.00    +0.000 A 
DOCKED: ATOM      4  C   UNL     1      20.917  -9.674  -2.120 -0.51 -0.00    +0.000 A 
DOCKED: ATOM      5  C   UNL     1      21.766  -9.502  -1.023 -0.28 -0.00    +0.000 A 
DOCKED: ATOM      6  C   UNL     1      21.376  -9.939   0.244 -0.58 -0.00    +0.000 A 
DOCKED: ENDROOT
DOCKED: BRANCH   1   8
DOCKED: ATOM      7  O   UNL     1      20.724 -10.884   3.023 -0.82 -0.00    +0.000 OA
DOCKED: ATOM      8  S   UNL     1      19.616 -11.071   2.024 -0.86 -0.00    +0.000 S 
DOCKED: ATOM      9  O   UNL     1      19.255 -12.527   1.960 -1.34 -0.00    +0.000 OA
DOCKED: BRANCH   8  10
DOCKED: ATOM     10  N   UNL     1      18.230 -10.161   2.541 -0.52 -0.00    +0.000 N 
DOCKED: ATOM     11  H   UNL     1      18.377  -9.250   2.884 -0.10 -0.00    +0.000 HD
DOCKED: BRANCH  10  12
DOCKED: ATOM     12  C   UNL     1      16.881 -10.659   2.498 -0.42 +0.00    +0.000 A 
DOCKED: ATOM     13  C   UNL     1      15.967 -10.435   3.547 -0.45 +0.00    +0.000 A 
DOCKED: ATOM     14  C   UNL     1      14.661 -10.927   3.465 -0.39 +0.00    +0.000 A 
DOCKED: ATOM     15  C   UNL     1      14.254 -11.651   2.342 -0.42 +0.00    +0.000 A 
DOCKED: ATOM     16  C   UNL     1      15.153 -11.886   1.300 -0.42 +0.00    +0.000 A 
DOCKED: ATOM     17  C   UNL     1      16.460 -11.394   1.376 -0.39 +0.00    +0.000 A 
DOCKED: ENDBRANCH  10  12
DOCKED: ENDBRANCH   8  10
DOCKED: ENDBRANCH   1   8
DOCKED: BRANCH   3  18
DOCKED: ATOM     18  C   UNL     1      18.717 -10.495  -3.086 -0.36 -0.00    +0.000 C 
DOCKED: ATOM     19  C   UNL     1      19.065 -11.029  -4.266 -0.38 -0.00    +0.000 C 
DOCKED: BRANCH  19  20
DOCKED: ATOM     20  C   UNL     1      18.118 -11.222  -5.384 -0.32 -0.00    +0.000 C 
DOCKED: ATOM     21  N   UNL     1      18.543 -11.640  -6.688 -0.36 -0.00    +0.000 N 
DOCKED: ATOM     22  O   UNL     1      16.897 -10.980  -5.184 -0.29 -0.00    +0.000 OA
DOCKED: ATOM     23  H   UNL     1      19.503 -11.721  -6.889 -0.17 -0.00    +0.000 HD
DOCKED: BRANCH  21  24
DOCKED: ATOM     24  O   UNL     1      17.626 -11.927  -7.644 -0.43 -0.00    +0.000 OA
DOCKED: ATOM     25  H   UNL     1      16.735 -11.792  -7.287 -0.03 -0.00    +0.000 HD
DOCKED: ENDBRANCH  21  24
DOCKED: ENDBRANCH  19  20
DOCKED: ENDBRANCH   3  18
DOCKED: TORSDOF 6
DOCKED: TER
DOCKED: ENDMDL
________________________________________________________________________________


	BEGINNING GENETIC ALGORITHM DOCKING 70 of 100
Run: 70 Seed: 1529982284 1566834733 [ Run 70 of 100 GA/GALS ]
Beginning LAMARCKIAN GENETIC ALGORITHM (LGA), with a maximum of 2500000 energy evaluations.

Final-Value: -14.587


	FINAL GENETIC ALGORITHM DOCKED STATE
	_______________________________________________


Detailed state:  trans 17.292 -9.054 2.747 quatxyzw -0.226322 -0.551459 -0.736378 -0.320031 center 0.320 0.169 0.303 ntor 6 9.1199 -135.3741 3.5213 -23.3386 33.7331 -44.7871
State:	 17.292  -9.054   2.747  -0.239 -0.582 -0.777 -142.670      9.12 -135.37    3.52  -23.34   33.73  -44.79

DOCKED: MODEL       70
DOCKED: USER    Run = 70
DOCKED: USER    DPF = ligand_dock.biased.dpf
DOCKED: USER  
DOCKED: USER    Estimated Free Energy of Binding    =  -11.15 kcal/mol  [=(1)+(2)+(3)-(4)]
DOCKED: USER    Estimated Inhibition Constant, Ki   =    6.68 nM (nanomolar)  [Temperature = 298.15 K]
DOCKED: USER    
DOCKED: USER    (1) Final Intermolecular Energy     =  -12.94 kcal/mol
DOCKED: USER        vdW + Hbond + desolv Energy     =  -12.94 kcal/mol
DOCKED: USER        Electrostatic Energy            =   +0.00 kcal/mol
DOCKED: USER    (2) Final Total Internal Energy     =   -1.64 kcal/mol
DOCKED: USER    (3) Torsional Free Energy           =   +1.79 kcal/mol
DOCKED: USER    (4) Unbound System's Energy  [=(2)] =   -1.64 kcal/mol
DOCKED: USER    
DOCKED: USER    
DOCKED: USER    NEWDPF move ligand.pdbqt
DOCKED: USER    NEWDPF about 0.320000 0.169000 0.303000
DOCKED: USER    NEWDPF tran0 17.292490 -9.054314 2.746541
DOCKED: USER    NEWDPF quaternion0 -0.226322 -0.551459 -0.736378 -0.320031
DOCKED: USER    NEWDPF axisangle0 -0.238885 -0.582072 -0.777256 -142.670413
DOCKED: USER    NEWDPF quat0 -0.238885 -0.582072 -0.777256 -142.670413
DOCKED: USER    NEWDPF dihe0 9.12 -135.37 3.52 -23.34 33.73 -44.79 
DOCKED: USER  keepresnum = 1 
DOCKED: USER  
DOCKED: REMARK  Name = 
DOCKED: REMARK  6 active torsions:
DOCKED: REMARK  status: ('A' for Active; 'I' for Inactive)
DOCKED: REMARK    1  A    between atoms: S_2  and  N_3
DOCKED: REMARK    2  A    between atoms: S_2  and  C_10
DOCKED: REMARK    3  A    between atoms: N_3  and  C_4
DOCKED: REMARK    4  A    between atoms: C_12  and  C_13
DOCKED: REMARK    5  A    between atoms: C_14  and  C_15
DOCKED: REMARK    6  A    between atoms: N_16  and  O_17
DOCKED: REMARK                            x       y       z     vdW  Elec       q    Type
DOCKED: REMARK                         _______ _______ _______ _____ _____    ______ ____
DOCKED: USER                              x       y       z     vdW  Elec       q    Type
DOCKED: USER                           _______ _______ _______ _____ _____    ______ ____
DOCKED: ROOT
DOCKED: ATOM      1  C   UNL     1      17.990 -11.204   2.092 -0.45 -0.00    +0.000 A 
DOCKED: ATOM      2  C   UNL     1      17.395 -10.205   2.874 -0.43 +0.00    +0.000 A 
DOCKED: ATOM      3  C   UNL     1      15.997 -10.070   2.925 -0.39 +0.00    +0.000 A 
DOCKED: ATOM      4  C   UNL     1      15.201 -10.949   2.161 -0.38 +0.00    +0.000 A 
DOCKED: ATOM      5  C   UNL     1      15.796 -11.949   1.388 -0.42 +0.00    +0.000 A 
DOCKED: ATOM      6  C   UNL     1      17.186 -12.081   1.356 -0.39 +0.00    +0.000 A 
DOCKED: ENDROOT
DOCKED: BRANCH   1   8
DOCKED: ATOM      7  O   UNL     1      20.150 -12.716   1.563 -1.45 -0.00    +0.000 OA
DOCKED: ATOM      8  S   UNL     1      19.745 -11.348   2.035 -0.90 -0.00    +0.000 S 
DOCKED: ATOM      9  O   UNL     1      20.293 -11.122   3.414 -0.87 -0.00    +0.000 OA
DOCKED: BRANCH   8  10
DOCKED: ATOM     10  N   UNL     1      20.408 -10.159   0.955 -0.58 -0.00    +0.000 N 
DOCKED: ATOM     11  H   UNL     1      20.838  -9.367   1.349 -0.45 -0.00    +0.000 HD
DOCKED: BRANCH  10  12
DOCKED: ATOM     12  C   UNL     1      20.364 -10.265  -0.479 -0.55 -0.00    +0.000 A 
DOCKED: ATOM     13  C   UNL     1      21.395  -9.763  -1.297 -0.56 -0.00    +0.000 A 
DOCKED: ATOM     14  C   UNL     1      21.321  -9.892  -2.688 -0.48 -0.00    +0.000 A 
DOCKED: ATOM     15  C   UNL     1      20.220 -10.517  -3.276 -0.43 -0.00    +0.000 A 
DOCKED: ATOM     16  C   UNL     1      19.188 -11.011  -2.476 -0.35 -0.00    +0.000 A 
DOCKED: ATOM     17  C   UNL     1      19.258 -10.885  -1.085 -0.43 -0.00    +0.000 A 
DOCKED: ENDBRANCH  10  12
DOCKED: ENDBRANCH   8  10
DOCKED: ENDBRANCH   1   8
DOCKED: BRANCH   3  18
DOCKED: ATOM     18  C   UNL     1      15.420  -8.981   3.751 -0.40 +0.00    +0.000 C 
DOCKED: ATOM     19  C   UNL     1      14.511  -9.182   4.717 -0.43 +0.00    +0.000 C 
DOCKED: BRANCH  19  20
DOCKED: ATOM     20  C   UNL     1      13.940  -8.093   5.538 -0.48 +0.00    +0.000 C 
DOCKED: ATOM     21  N   UNL     1      14.521  -6.784   5.588 -0.45 +0.00    +0.000 N 
DOCKED: ATOM     22  O   UNL     1      12.921  -8.341   6.237 -0.47 +0.00    +0.000 OA
DOCKED: ATOM     23  H   UNL     1      15.380  -6.610   5.139 -0.04 +0.00    +0.000 HD
DOCKED: BRANCH  21  24
DOCKED: ATOM     24  O   UNL     1      13.891  -5.784   6.252 -1.13 +0.00    +0.000 OA
DOCKED: ATOM     25  H   UNL     1      13.144  -6.148   6.751 -0.02 +0.00    +0.000 HD
DOCKED: ENDBRANCH  21  24
DOCKED: ENDBRANCH  19  20
DOCKED: ENDBRANCH   3  18
DOCKED: TORSDOF 6
DOCKED: TER
DOCKED: ENDMDL
________________________________________________________________________________


	BEGINNING GENETIC ALGORITHM DOCKING 71 of 100
Run: 71 Seed: 2089662352 1296594261 [ Run 71 of 100 GA/GALS ]
Beginning LAMARCKIAN GENETIC ALGORITHM (LGA), with a maximum of 2500000 energy evaluations.

Final-Value: -12.317


	FINAL GENETIC ALGORITHM DOCKED STATE
	_______________________________________________


Detailed state:  trans 14.467 -7.008 3.023 quatxyzw 0.779803 0.456951 0.175686 0.390177 center 0.320 0.169 0.303 ntor 6 3.4456 -45.1717 -87.7947 -66.2964 54.6515 144.2184
State:	 14.467  -7.008   3.023   0.847  0.496  0.191 134.069      3.45  -45.17  -87.79  -66.30   54.65  144.22

DOCKED: MODEL       71
DOCKED: USER    Run = 71
DOCKED: USER    DPF = ligand_dock.biased.dpf
DOCKED: USER  
DOCKED: USER    Estimated Free Energy of Binding    =   -9.02 kcal/mol  [=(1)+(2)+(3)-(4)]
DOCKED: USER    Estimated Inhibition Constant, Ki   =  244.81 nM (nanomolar)  [Temperature = 298.15 K]
DOCKED: USER    
DOCKED: USER    (1) Final Intermolecular Energy     =  -10.81 kcal/mol
DOCKED: USER        vdW + Hbond + desolv Energy     =  -10.81 kcal/mol
DOCKED: USER        Electrostatic Energy            =   +0.00 kcal/mol
DOCKED: USER    (2) Final Total Internal Energy     =   -1.51 kcal/mol
DOCKED: USER    (3) Torsional Free Energy           =   +1.79 kcal/mol
DOCKED: USER    (4) Unbound System's Energy  [=(2)] =   -1.51 kcal/mol
DOCKED: USER    
DOCKED: USER    
DOCKED: USER    NEWDPF move ligand.pdbqt
DOCKED: USER    NEWDPF about 0.320000 0.169000 0.303000
DOCKED: USER    NEWDPF tran0 14.467101 -7.007747 3.022817
DOCKED: USER    NEWDPF quaternion0 0.779803 0.456951 0.175686 0.390177
DOCKED: USER    NEWDPF axisangle0 0.846931 0.496286 0.190810 134.068993
DOCKED: USER    NEWDPF quat0 0.846931 0.496286 0.190810 134.068993
DOCKED: USER    NEWDPF dihe0 3.45 -45.17 -87.79 -66.30 54.65 144.22 
DOCKED: USER  keepresnum = 1 
DOCKED: USER  
DOCKED: REMARK  Name = 
DOCKED: REMARK  6 active torsions:
DOCKED: REMARK  status: ('A' for Active; 'I' for Inactive)
DOCKED: REMARK    1  A    between atoms: S_2  and  N_3
DOCKED: REMARK    2  A    between atoms: S_2  and  C_10
DOCKED: REMARK    3  A    between atoms: N_3  and  C_4
DOCKED: REMARK    4  A    between atoms: C_12  and  C_13
DOCKED: REMARK    5  A    between atoms: C_14  and  C_15
DOCKED: REMARK    6  A    between atoms: N_16  and  O_17
DOCKED: REMARK                            x       y       z     vdW  Elec       q    Type
DOCKED: REMARK                         _______ _______ _______ _____ _____    ______ ____
DOCKED: USER                              x       y       z     vdW  Elec       q    Type
DOCKED: USER                           _______ _______ _______ _____ _____    ______ ____
DOCKED: ROOT
DOCKED: ATOM      1  C   UNL     1      14.814  -9.138   3.958 -0.35 +0.00    +0.000 A 
DOCKED: ATOM      2  C   UNL     1      15.014  -7.776   3.702 -0.33 +0.00    +0.000 A 
DOCKED: ATOM      3  C   UNL     1      14.658  -6.806   4.655 -0.37 +0.00    +0.000 A 
DOCKED: ATOM      4  C   UNL     1      14.079  -7.227   5.870 -0.42 +0.00    +0.000 A 
DOCKED: ATOM      5  C   UNL     1      13.887  -8.587   6.126 -0.45 +0.00    +0.000 A 
DOCKED: ATOM      6  C   UNL     1      14.258  -9.542   5.177 -0.40 +0.00    +0.000 A 
DOCKED: ENDROOT
DOCKED: BRANCH   1   8
DOCKED: ATOM      7  O   UNL     1      15.578  -9.672   1.435 -0.33 +0.00    +0.000 OA
DOCKED: ATOM      8  S   UNL     1      15.258 -10.336   2.745 -0.53 +0.00    +0.000 S 
DOCKED: ATOM      9  O   UNL     1      14.104 -11.276   2.549 -0.46 +0.00    +0.000 OA
DOCKED: BRANCH   8  10
DOCKED: ATOM     10  N   UNL     1      16.646 -11.237   3.275 -0.45 +0.00    +0.000 N 
DOCKED: ATOM     11  H   UNL     1      16.570 -11.755   4.108 -0.12 +0.00    +0.000 HD
DOCKED: BRANCH  10  12
DOCKED: ATOM     12  C   UNL     1      17.899 -11.270   2.568 -0.38 +0.00    +0.000 A 
DOCKED: ATOM     13  C   UNL     1      17.987 -11.674   1.222 -0.47 -0.00    +0.000 A 
DOCKED: ATOM     14  C   UNL     1      19.222 -11.685   0.566 -0.55 -0.00    +0.000 A 
DOCKED: ATOM     15  C   UNL     1      20.380 -11.298   1.245 -0.66 -0.00    +0.000 A 
DOCKED: ATOM     16  C   UNL     1      20.306 -10.903   2.581 -0.64 -0.00    +0.000 A 
DOCKED: ATOM     17  C   UNL     1      19.073 -10.889   3.241 -0.53 -0.00    +0.000 A 
DOCKED: ENDBRANCH  10  12
DOCKED: ENDBRANCH   8  10
DOCKED: ENDBRANCH   1   8
DOCKED: BRANCH   3  18
DOCKED: ATOM     18  C   UNL     1      14.871  -5.375   4.323 -0.40 +0.00    +0.000 C 
DOCKED: ATOM     19  C   UNL     1      15.872  -4.636   4.825 -0.45 -0.00    +0.000 C 
DOCKED: BRANCH  19  20
DOCKED: ATOM     20  C   UNL     1      16.080  -3.212   4.492 -0.52 -0.00    +0.000 C 
DOCKED: ATOM     21  N   UNL     1      17.132  -2.772   3.623 -0.49 -0.00    +0.000 N 
DOCKED: ATOM     22  O   UNL     1      15.317  -2.356   5.015 -0.45 -0.00    +0.000 OA
DOCKED: ATOM     23  H   UNL     1      17.804  -3.415   3.300 -0.03 -0.00    +0.000 HD
DOCKED: BRANCH  21  24
DOCKED: ATOM     24  O   UNL     1      17.205  -1.473   3.245 -0.47 -0.00    +0.000 OA
DOCKED: ATOM     25  H   UNL     1      16.507  -0.967   3.690 -0.54 -0.00    +0.000 HD
DOCKED: ENDBRANCH  21  24
DOCKED: ENDBRANCH  19  20
DOCKED: ENDBRANCH   3  18
DOCKED: TORSDOF 6
DOCKED: TER
DOCKED: ENDMDL
________________________________________________________________________________


	BEGINNING GENETIC ALGORITHM DOCKING 72 of 100
Run: 72 Seed: 485657931 240035444 [ Run 72 of 100 GA/GALS ]
Beginning LAMARCKIAN GENETIC ALGORITHM (LGA), with a maximum of 2500000 energy evaluations.

Final-Value: -13.748


	FINAL GENETIC ALGORITHM DOCKED STATE
	_______________________________________________


Detailed state:  trans 20.710 -11.012 -1.984 quatxyzw -0.227907 0.303037 -0.795104 0.473326 center 0.320 0.169 0.303 ntor 6 44.2719 169.2892 -6.4204 145.4074 -170.1632 -135.2317
State:	 20.710 -11.012  -1.984  -0.259  0.344 -0.903 123.499     44.27  169.29   -6.42  145.41 -170.16 -135.23

DOCKED: MODEL       72
DOCKED: USER    Run = 72
DOCKED: USER    DPF = ligand_dock.biased.dpf
DOCKED: USER  
DOCKED: USER    Estimated Free Energy of Binding    =  -10.59 kcal/mol  [=(1)+(2)+(3)-(4)]
DOCKED: USER    Estimated Inhibition Constant, Ki   =   17.26 nM (nanomolar)  [Temperature = 298.15 K]
DOCKED: USER    
DOCKED: USER    (1) Final Intermolecular Energy     =  -12.38 kcal/mol
DOCKED: USER        vdW + Hbond + desolv Energy     =  -12.38 kcal/mol
DOCKED: USER        Electrostatic Energy            =   +0.00 kcal/mol
DOCKED: USER    (2) Final Total Internal Energy     =   -1.37 kcal/mol
DOCKED: USER    (3) Torsional Free Energy           =   +1.79 kcal/mol
DOCKED: USER    (4) Unbound System's Energy  [=(2)] =   -1.37 kcal/mol
DOCKED: USER    
DOCKED: USER    
DOCKED: USER    NEWDPF move ligand.pdbqt
DOCKED: USER    NEWDPF about 0.320000 0.169000 0.303000
DOCKED: USER    NEWDPF tran0 20.709717 -11.011789 -1.983515
DOCKED: USER    NEWDPF quaternion0 -0.227907 0.303037 -0.795104 0.473326
DOCKED: USER    NEWDPF axisangle0 -0.258724 0.344013 -0.902617 123.499161
DOCKED: USER    NEWDPF quat0 -0.258724 0.344013 -0.902617 123.499161
DOCKED: USER    NEWDPF dihe0 44.27 169.29 -6.42 145.41 -170.16 -135.23 
DOCKED: USER  keepresnum = 1 
DOCKED: USER  
DOCKED: REMARK  Name = 
DOCKED: REMARK  6 active torsions:
DOCKED: REMARK  status: ('A' for Active; 'I' for Inactive)
DOCKED: REMARK    1  A    between atoms: S_2  and  N_3
DOCKED: REMARK    2  A    between atoms: S_2  and  C_10
DOCKED: REMARK    3  A    between atoms: N_3  and  C_4
DOCKED: REMARK    4  A    between atoms: C_12  and  C_13
DOCKED: REMARK    5  A    between atoms: C_14  and  C_15
DOCKED: REMARK    6  A    between atoms: N_16  and  O_17
DOCKED: REMARK                            x       y       z     vdW  Elec       q    Type
DOCKED: REMARK                         _______ _______ _______ _____ _____    ______ ____
DOCKED: USER                              x       y       z     vdW  Elec       q    Type
DOCKED: USER                           _______ _______ _______ _____ _____    ______ ____
DOCKED: ROOT
DOCKED: ATOM      1  C   UNL     1      20.326  -9.888  -4.014 -0.36 -0.00    +0.000 A 
DOCKED: ATOM      2  C   UNL     1      20.175 -10.239  -2.667 -0.43 -0.00    +0.000 A 
DOCKED: ATOM      3  C   UNL     1      20.641  -9.392  -1.646 -0.48 -0.00    +0.000 A 
DOCKED: ATOM      4  C   UNL     1      21.281  -8.188  -2.003 -0.44 -0.00    +0.000 A 
DOCKED: ATOM      5  C   UNL     1      21.425  -7.835  -3.348 -0.34 -0.00    +0.000 A 
DOCKED: ATOM      6  C   UNL     1      20.945  -8.678  -4.351 -0.30 -0.00    +0.000 A 
DOCKED: ENDROOT
DOCKED: BRANCH   1   8
DOCKED: ATOM      7  O   UNL     1      18.240 -11.006  -5.292 -0.36 -0.00    +0.000 OA
DOCKED: ATOM      8  S   UNL     1      19.743 -10.969  -5.277 -0.54 -0.00    +0.000 S 
DOCKED: ATOM      9  O   UNL     1      20.265 -12.351  -5.008 -0.83 -0.00    +0.000 OA
DOCKED: BRANCH   8  10
DOCKED: ATOM     10  N   UNL     1      20.310 -10.436  -6.830 -0.27 -0.00    +0.000 N 
DOCKED: ATOM     11  H   UNL     1      19.767  -9.776  -7.318 +0.00 -0.00    +0.000 HD
DOCKED: BRANCH  10  12
DOCKED: ATOM     12  C   UNL     1      21.526 -10.902  -7.443 -0.25 -0.00    +0.000 A 
DOCKED: ATOM     13  C   UNL     1      21.737 -10.825  -8.834 -0.22 -0.00    +0.000 A 
DOCKED: ATOM     14  C   UNL     1      22.935 -11.280  -9.393 -0.23 -0.00    +0.000 A 
DOCKED: ATOM     15  C   UNL     1      23.931 -11.818  -8.575 -0.38 -0.00    +0.000 A 
DOCKED: ATOM     16  C   UNL     1      23.729 -11.906  -7.197 -0.43 -0.00    +0.000 A 
DOCKED: ATOM     17  C   UNL     1      22.533 -11.451  -6.633 -0.43 -0.00    +0.000 A 
DOCKED: ENDBRANCH  10  12
DOCKED: ENDBRANCH   8  10
DOCKED: ENDBRANCH   1   8
DOCKED: BRANCH   3  18
DOCKED: ATOM     18  C   UNL     1      20.474  -9.824  -0.236 -0.60 -0.00    +0.000 C 
DOCKED: ATOM     19  C   UNL     1      20.483 -11.107   0.154 -0.63 -0.00    +0.000 C 
DOCKED: BRANCH  19  20
DOCKED: ATOM     20  C   UNL     1      20.316 -11.532   1.560 -0.77 -0.00    +0.000 C 
DOCKED: ATOM     21  N   UNL     1      20.640 -10.677   2.664 -0.63 -0.00    +0.000 N 
DOCKED: ATOM     22  O   UNL     1      19.900 -12.699   1.789 -1.59 -0.00    +0.000 OA
DOCKED: ATOM     23  H   UNL     1      21.073  -9.808   2.502 -0.57 -0.00    +0.000 HD
DOCKED: BRANCH  21  24
DOCKED: ATOM     24  O   UNL     1      20.351 -11.061   3.931 -0.81 -0.00    +0.000 OA
DOCKED: ATOM     25  H   UNL     1      20.603 -11.989   4.053 -0.50 -0.00    +0.000 HD
DOCKED: ENDBRANCH  21  24
DOCKED: ENDBRANCH  19  20
DOCKED: ENDBRANCH   3  18
DOCKED: TORSDOF 6
DOCKED: TER
DOCKED: ENDMDL
________________________________________________________________________________


	BEGINNING GENETIC ALGORITHM DOCKING 73 of 100
Run: 73 Seed: 1737927433 1679499463 [ Run 73 of 100 GA/GALS ]
Beginning LAMARCKIAN GENETIC ALGORITHM (LGA), with a maximum of 2500000 energy evaluations.

Final-Value: -14.395


	FINAL GENETIC ALGORITHM DOCKED STATE
	_______________________________________________


Detailed state:  trans 22.218 -11.063 -2.242 quatxyzw -0.293765 0.316704 -0.876977 0.210505 center 0.320 0.169 0.303 ntor 6 34.0870 -128.0074 113.3410 -154.6762 44.6927 -99.1519
State:	 22.218 -11.063  -2.242  -0.300  0.324 -0.897 155.696     34.09 -128.01  113.34 -154.68   44.69  -99.15

DOCKED: MODEL       73
DOCKED: USER    Run = 73
DOCKED: USER    DPF = ligand_dock.biased.dpf
DOCKED: USER  
DOCKED: USER    Estimated Free Energy of Binding    =  -11.28 kcal/mol  [=(1)+(2)+(3)-(4)]
DOCKED: USER    Estimated Inhibition Constant, Ki   =    5.37 nM (nanomolar)  [Temperature = 298.15 K]
DOCKED: USER    
DOCKED: USER    (1) Final Intermolecular Energy     =  -13.07 kcal/mol
DOCKED: USER        vdW + Hbond + desolv Energy     =  -13.07 kcal/mol
DOCKED: USER        Electrostatic Energy            =   +0.00 kcal/mol
DOCKED: USER    (2) Final Total Internal Energy     =   -1.32 kcal/mol
DOCKED: USER    (3) Torsional Free Energy           =   +1.79 kcal/mol
DOCKED: USER    (4) Unbound System's Energy  [=(2)] =   -1.32 kcal/mol
DOCKED: USER    
DOCKED: USER    
DOCKED: USER    NEWDPF move ligand.pdbqt
DOCKED: USER    NEWDPF about 0.320000 0.169000 0.303000
DOCKED: USER    NEWDPF tran0 22.218229 -11.063143 -2.241594
DOCKED: USER    NEWDPF quaternion0 -0.293765 0.316704 -0.876977 0.210505
DOCKED: USER    NEWDPF axisangle0 -0.300498 0.323963 -0.897078 155.696066
DOCKED: USER    NEWDPF quat0 -0.300498 0.323963 -0.897078 155.696066
DOCKED: USER    NEWDPF dihe0 34.09 -128.01 113.34 -154.68 44.69 -99.15 
DOCKED: USER  keepresnum = 1 
DOCKED: USER  
DOCKED: REMARK  Name = 
DOCKED: REMARK  6 active torsions:
DOCKED: REMARK  status: ('A' for Active; 'I' for Inactive)
DOCKED: REMARK    1  A    between atoms: S_2  and  N_3
DOCKED: REMARK    2  A    between atoms: S_2  and  C_10
DOCKED: REMARK    3  A    between atoms: N_3  and  C_4
DOCKED: REMARK    4  A    between atoms: C_12  and  C_13
DOCKED: REMARK    5  A    between atoms: C_14  and  C_15
DOCKED: REMARK    6  A    between atoms: N_16  and  O_17
DOCKED: REMARK                            x       y       z     vdW  Elec       q    Type
DOCKED: REMARK                         _______ _______ _______ _____ _____    ______ ____
DOCKED: USER                              x       y       z     vdW  Elec       q    Type
DOCKED: USER                           _______ _______ _______ _____ _____    ______ ____
DOCKED: ROOT
DOCKED: ATOM      1  C   UNL     1      21.432  -9.944  -4.156 -0.40 -0.00    +0.000 A 
DOCKED: ATOM      2  C   UNL     1      21.403 -10.555  -2.895 -0.46 -0.00    +0.000 A 
DOCKED: ATOM      3  C   UNL     1      21.304  -9.783  -1.725 -0.54 -0.00    +0.000 A 
DOCKED: ATOM      4  C   UNL     1      21.251  -8.379  -1.840 -0.45 -0.00    +0.000 A 
DOCKED: ATOM      5  C   UNL     1      21.272  -7.772  -3.099 -0.37 -0.00    +0.000 A 
DOCKED: ATOM      6  C   UNL     1      21.357  -8.550  -4.254 -0.31 -0.00    +0.000 A 
DOCKED: ENDROOT
DOCKED: BRANCH   1   8
DOCKED: ATOM      7  O   UNL     1      20.251 -10.994  -6.332 -0.38 -0.00    +0.000 OA
DOCKED: ATOM      8  S   UNL     1      21.567 -10.931  -5.609 -0.61 -0.00    +0.000 S 
DOCKED: ATOM      9  O   UNL     1      21.976 -12.321  -5.213 -0.73 -0.00    +0.000 OA
DOCKED: BRANCH   8  10
DOCKED: ATOM     10  N   UNL     1      22.766 -10.265  -6.675 -0.32 -0.00    +0.000 N 
DOCKED: ATOM     11  H   UNL     1      22.933  -9.296  -6.634 -0.01 -0.00    +0.000 HD
DOCKED: BRANCH  10  12
DOCKED: ATOM     12  C   UNL     1      23.529 -11.045  -7.613 -0.37 -0.00    +0.000 A 
DOCKED: ATOM     13  C   UNL     1      24.902 -10.818  -7.830 -0.34 -0.00    +0.000 A 
DOCKED: ATOM     14  C   UNL     1      25.613 -11.603  -8.744 -0.38 -0.00    +0.000 A 
DOCKED: ATOM     15  C   UNL     1      24.963 -12.617  -9.451 -0.36 -0.00    +0.000 A 
DOCKED: ATOM     16  C   UNL     1      23.600 -12.845  -9.250 -0.37 -0.00    +0.000 A 
DOCKED: ATOM     17  C   UNL     1      22.886 -12.064  -8.336 -0.34 -0.00    +0.000 A 
DOCKED: ENDBRANCH  10  12
DOCKED: ENDBRANCH   8  10
DOCKED: ENDBRANCH   1   8
DOCKED: BRANCH   3  18
DOCKED: ATOM     18  C   UNL     1      21.300 -10.480  -0.415 -0.71 -0.00    +0.000 C 
DOCKED: ATOM     19  C   UNL     1      20.246 -10.496   0.415 -0.65 -0.00    +0.000 C 
DOCKED: BRANCH  19  20
DOCKED: ATOM     20  C   UNL     1      20.247 -11.192   1.719 -0.75 -0.00    +0.000 C 
DOCKED: ATOM     21  N   UNL     1      20.553 -10.520   2.948 -0.64 -0.00    +0.000 N 
DOCKED: ATOM     22  O   UNL     1      19.996 -12.426   1.740 -1.73 -0.00    +0.000 OA
DOCKED: ATOM     23  H   UNL     1      20.862  -9.585   2.933 -0.59 -0.00    +0.000 HD
DOCKED: BRANCH  21  24
DOCKED: ATOM     24  O   UNL     1      20.416 -11.167   4.131 -0.75 -0.00    +0.000 OA
DOCKED: ATOM     25  H   UNL     1      20.638 -12.104   4.014 -0.54 -0.00    +0.000 HD
DOCKED: ENDBRANCH  21  24
DOCKED: ENDBRANCH  19  20
DOCKED: ENDBRANCH   3  18
DOCKED: TORSDOF 6
DOCKED: TER
DOCKED: ENDMDL
________________________________________________________________________________


	BEGINNING GENETIC ALGORITHM DOCKING 74 of 100
Run: 74 Seed: 1389260959 1626891411 [ Run 74 of 100 GA/GALS ]
Beginning LAMARCKIAN GENETIC ALGORITHM (LGA), with a maximum of 2500000 energy evaluations.

Final-Value: -12.484


	FINAL GENETIC ALGORITHM DOCKED STATE
	_______________________________________________


Detailed state:  trans 18.966 -10.763 -1.692 quatxyzw -0.973287 0.177208 0.010547 -0.145595 center 0.320 0.169 0.303 ntor 6 174.5895 -7.5470 138.6075 -84.1244 169.5631 -19.1800
State:	 18.966 -10.763  -1.692  -0.984  0.179  0.011 -163.257    174.59   -7.55  138.61  -84.12  169.56  -19.18

DOCKED: MODEL       74
DOCKED: USER    Run = 74
DOCKED: USER    DPF = ligand_dock.biased.dpf
DOCKED: USER  
DOCKED: USER    Estimated Free Energy of Binding    =   -9.77 kcal/mol  [=(1)+(2)+(3)-(4)]
DOCKED: USER    Estimated Inhibition Constant, Ki   =   69.39 nM (nanomolar)  [Temperature = 298.15 K]
DOCKED: USER    
DOCKED: USER    (1) Final Intermolecular Energy     =  -11.56 kcal/mol
DOCKED: USER        vdW + Hbond + desolv Energy     =  -11.56 kcal/mol
DOCKED: USER        Electrostatic Energy            =   +0.00 kcal/mol
DOCKED: USER    (2) Final Total Internal Energy     =   -0.93 kcal/mol
DOCKED: USER    (3) Torsional Free Energy           =   +1.79 kcal/mol
DOCKED: USER    (4) Unbound System's Energy  [=(2)] =   -0.93 kcal/mol
DOCKED: USER    
DOCKED: USER    
DOCKED: USER    NEWDPF move ligand.pdbqt
DOCKED: USER    NEWDPF about 0.320000 0.169000 0.303000
DOCKED: USER    NEWDPF tran0 18.965729 -10.763443 -1.691861
DOCKED: USER    NEWDPF quaternion0 -0.973287 0.177208 0.010547 -0.145595
DOCKED: USER    NEWDPF axisangle0 -0.983770 0.179117 0.010661 -163.256560
DOCKED: USER    NEWDPF quat0 -0.983770 0.179117 0.010661 -163.256560
DOCKED: USER    NEWDPF dihe0 174.59 -7.55 138.61 -84.12 169.56 -19.18 
DOCKED: USER  keepresnum = 1 
DOCKED: USER  
DOCKED: REMARK  Name = 
DOCKED: REMARK  6 active torsions:
DOCKED: REMARK  status: ('A' for Active; 'I' for Inactive)
DOCKED: REMARK    1  A    between atoms: S_2  and  N_3
DOCKED: REMARK    2  A    between atoms: S_2  and  C_10
DOCKED: REMARK    3  A    between atoms: N_3  and  C_4
DOCKED: REMARK    4  A    between atoms: C_12  and  C_13
DOCKED: REMARK    5  A    between atoms: C_14  and  C_15
DOCKED: REMARK    6  A    between atoms: N_16  and  O_17
DOCKED: REMARK                            x       y       z     vdW  Elec       q    Type
DOCKED: REMARK                         _______ _______ _______ _____ _____    ______ ____
DOCKED: USER                              x       y       z     vdW  Elec       q    Type
DOCKED: USER                           _______ _______ _______ _____ _____    ______ ____
DOCKED: ROOT
DOCKED: ATOM      1  C   UNL     1      18.305 -11.675   0.374 -0.47 -0.00    +0.000 A 
DOCKED: ATOM      2  C   UNL     1      19.056 -11.497  -0.795 -0.39 -0.00    +0.000 A 
DOCKED: ATOM      3  C   UNL     1      20.322 -10.887  -0.750 -0.49 -0.00    +0.000 A 
DOCKED: ATOM      4  C   UNL     1      20.817 -10.441   0.492 -0.61 -0.00    +0.000 A 
DOCKED: ATOM      5  C   UNL     1      20.070 -10.626   1.659 -0.59 -0.00    +0.000 A 
DOCKED: ATOM      6  C   UNL     1      18.820 -11.246   1.602 -0.52 -0.00    +0.000 A 
DOCKED: ENDROOT
DOCKED: BRANCH   1   8
DOCKED: ATOM      7  O   UNL     1      16.041 -12.395   1.634 -0.83 +0.00    +0.000 OA
DOCKED: ATOM      8  S   UNL     1      16.717 -12.434   0.292 -0.66 +0.00    +0.000 S 
DOCKED: ATOM      9  O   UNL     1      16.887 -13.864  -0.130 -1.03 +0.00    +0.000 OA
DOCKED: BRANCH   8  10
DOCKED: ATOM     10  N   UNL     1      15.720 -11.609  -0.867 -0.33 +0.00    +0.000 N 
DOCKED: ATOM     11  H   UNL     1      16.128 -11.350  -1.725 -0.01 -0.00    +0.000 HD
DOCKED: BRANCH  10  12
DOCKED: ATOM     12  C   UNL     1      14.336 -11.284  -0.648 -0.32 +0.00    +0.000 A 
DOCKED: ATOM     13  C   UNL     1      13.564 -11.929   0.338 -0.39 +0.00    +0.000 A 
DOCKED: ATOM     14  C   UNL     1      12.223 -11.580   0.527 -0.36 +0.00    +0.000 A 
DOCKED: ATOM     15  C   UNL     1      11.638 -10.590  -0.266 -0.25 +0.00    +0.000 A 
DOCKED: ATOM     16  C   UNL     1      12.391  -9.949  -1.251 -0.21 -0.00    +0.000 A 
DOCKED: ATOM     17  C   UNL     1      13.733 -10.294  -1.443 -0.25 -0.00    +0.000 A 
DOCKED: ENDBRANCH  10  12
DOCKED: ENDBRANCH   8  10
DOCKED: ENDBRANCH   1   8
DOCKED: BRANCH   3  18
DOCKED: ATOM     18  C   UNL     1      21.065 -10.703  -2.021 -0.48 -0.00    +0.000 C 
DOCKED: ATOM     19  C   UNL     1      20.523 -10.893  -3.234 -0.48 -0.00    +0.000 C 
DOCKED: BRANCH  19  20
DOCKED: ATOM     20  C   UNL     1      21.268 -10.709  -4.497 -0.51 -0.00    +0.000 C 
DOCKED: ATOM     21  N   UNL     1      21.449 -11.769  -5.444 -0.52 -0.00    +0.000 N 
DOCKED: ATOM     22  O   UNL     1      21.783  -9.582  -4.730 -0.41 -0.00    +0.000 OA
DOCKED: ATOM     23  H   UNL     1      21.152 -12.681  -5.223 -0.42 -0.00    +0.000 HD
DOCKED: BRANCH  21  24
DOCKED: ATOM     24  O   UNL     1      22.026 -11.520  -6.644 -0.44 -0.00    +0.000 OA
DOCKED: ATOM     25  H   UNL     1      22.149 -12.354  -7.124 -0.59 -0.00    +0.000 HD
DOCKED: ENDBRANCH  21  24
DOCKED: ENDBRANCH  19  20
DOCKED: ENDBRANCH   3  18
DOCKED: TORSDOF 6
DOCKED: TER
DOCKED: ENDMDL
________________________________________________________________________________


	BEGINNING GENETIC ALGORITHM DOCKING 75 of 100
Run: 75 Seed: 1914414788 978996248 [ Run 75 of 100 GA/GALS ]
Beginning LAMARCKIAN GENETIC ALGORITHM (LGA), with a maximum of 2500000 energy evaluations.

Final-Value: -14.059


	FINAL GENETIC ALGORITHM DOCKED STATE
	_______________________________________________


Detailed state:  trans 21.394 -11.368 -2.210 quatxyzw 0.173345 -0.387719 0.862617 -0.274802 center 0.320 0.169 0.303 ntor 6 25.9449 -121.1283 -125.1141 -168.5367 -72.4394 -125.4662
State:	 21.394 -11.368  -2.210   0.180 -0.403  0.897 -148.100     25.94 -121.13 -125.11 -168.54  -72.44 -125.47

DOCKED: MODEL       75
DOCKED: USER    Run = 75
DOCKED: USER    DPF = ligand_dock.biased.dpf
DOCKED: USER  
DOCKED: USER    Estimated Free Energy of Binding    =  -10.88 kcal/mol  [=(1)+(2)+(3)-(4)]
DOCKED: USER    Estimated Inhibition Constant, Ki   =   10.60 nM (nanomolar)  [Temperature = 298.15 K]
DOCKED: USER    
DOCKED: USER    (1) Final Intermolecular Energy     =  -12.67 kcal/mol
DOCKED: USER        vdW + Hbond + desolv Energy     =  -12.67 kcal/mol
DOCKED: USER        Electrostatic Energy            =   +0.00 kcal/mol
DOCKED: USER    (2) Final Total Internal Energy     =   -1.39 kcal/mol
DOCKED: USER    (3) Torsional Free Energy           =   +1.79 kcal/mol
DOCKED: USER    (4) Unbound System's Energy  [=(2)] =   -1.39 kcal/mol
DOCKED: USER    
DOCKED: USER    
DOCKED: USER    NEWDPF move ligand.pdbqt
DOCKED: USER    NEWDPF about 0.320000 0.169000 0.303000
DOCKED: USER    NEWDPF tran0 21.394139 -11.367660 -2.209685
DOCKED: USER    NEWDPF quaternion0 0.173345 -0.387719 0.862617 -0.274802
DOCKED: USER    NEWDPF axisangle0 0.180286 -0.403244 0.897157 -148.099538
DOCKED: USER    NEWDPF quat0 0.180286 -0.403244 0.897157 -148.099538
DOCKED: USER    NEWDPF dihe0 25.94 -121.13 -125.11 -168.54 -72.44 -125.47 
DOCKED: USER  keepresnum = 1 
DOCKED: USER  
DOCKED: REMARK  Name = 
DOCKED: REMARK  6 active torsions:
DOCKED: REMARK  status: ('A' for Active; 'I' for Inactive)
DOCKED: REMARK    1  A    between atoms: S_2  and  N_3
DOCKED: REMARK    2  A    between atoms: S_2  and  C_10
DOCKED: REMARK    3  A    between atoms: N_3  and  C_4
DOCKED: REMARK    4  A    between atoms: C_12  and  C_13
DOCKED: REMARK    5  A    between atoms: C_14  and  C_15
DOCKED: REMARK    6  A    between atoms: N_16  and  O_17
DOCKED: REMARK                            x       y       z     vdW  Elec       q    Type
DOCKED: REMARK                         _______ _______ _______ _____ _____    ______ ____
DOCKED: USER                              x       y       z     vdW  Elec       q    Type
DOCKED: USER                           _______ _______ _______ _____ _____    ______ ____
DOCKED: ROOT
DOCKED: ATOM      1  C   UNL     1      21.275 -10.052  -4.156 -0.41 -0.00    +0.000 A 
DOCKED: ATOM      2  C   UNL     1      20.861 -10.666  -2.967 -0.44 -0.00    +0.000 A 
DOCKED: ATOM      3  C   UNL     1      20.715  -9.918  -1.786 -0.52 -0.00    +0.000 A 
DOCKED: ATOM      4  C   UNL     1      21.010  -8.539  -1.813 -0.45 -0.00    +0.000 A 
DOCKED: ATOM      5  C   UNL     1      21.415  -7.928  -3.003 -0.37 -0.00    +0.000 A 
DOCKED: ATOM      6  C   UNL     1      21.543  -8.678  -4.173 -0.30 -0.00    +0.000 A 
DOCKED: ENDROOT
DOCKED: BRANCH   1   8
DOCKED: ATOM      7  O   UNL     1      20.125 -11.261  -6.266 -0.41 -0.00    +0.000 OA
DOCKED: ATOM      8  S   UNL     1      21.460 -11.011  -5.623 -0.61 -0.00    +0.000 S 
DOCKED: ATOM      9  O   UNL     1      22.086 -12.327  -5.263 -0.76 -0.00    +0.000 OA
DOCKED: BRANCH   8  10
DOCKED: ATOM     10  N   UNL     1      22.485 -10.181  -6.754 -0.31 -0.00    +0.000 N 
DOCKED: ATOM     11  H   UNL     1      22.364  -9.210  -6.861 -0.00 -0.00    +0.000 HD
DOCKED: BRANCH  10  12
DOCKED: ATOM     12  C   UNL     1      23.500 -10.828  -7.542 -0.35 -0.00    +0.000 A 
DOCKED: ATOM     13  C   UNL     1      24.807 -10.313  -7.647 -0.30 -0.00    +0.000 A 
DOCKED: ATOM     14  C   UNL     1      25.769 -10.975  -8.416 -0.37 -0.00    +0.000 A 
DOCKED: ATOM     15  C   UNL     1      25.438 -12.152  -9.090 -0.35 -0.00    +0.000 A 
DOCKED: ATOM     16  C   UNL     1      24.144 -12.668  -9.000 -0.37 -0.00    +0.000 A 
DOCKED: ATOM     17  C   UNL     1      23.179 -12.010  -8.231 -0.40 -0.00    +0.000 A 
DOCKED: ENDBRANCH  10  12
DOCKED: ENDBRANCH   8  10
DOCKED: ENDBRANCH   1   8
DOCKED: BRANCH   3  18
DOCKED: ATOM     18  C   UNL     1      20.296 -10.623  -0.549 -0.61 -0.00    +0.000 C 
DOCKED: ATOM     19  C   UNL     1      20.947 -10.524   0.620 -0.68 -0.00    +0.000 C 
DOCKED: BRANCH  19  20
DOCKED: ATOM     20  C   UNL     1      20.525 -11.227   1.849 -0.74 -0.00    +0.000 C 
DOCKED: ATOM     21  N   UNL     1      20.641 -10.637   3.151 -0.66 -0.00    +0.000 N 
DOCKED: ATOM     22  O   UNL     1      20.073 -12.399   1.744 -1.73 -0.00    +0.000 OA
DOCKED: ATOM     23  H   UNL     1      21.097  -9.771   3.259 -0.59 -0.00    +0.000 HD
DOCKED: BRANCH  21  24
DOCKED: ATOM     24  O   UNL     1      20.124 -11.268   4.233 -0.77 -0.00    +0.000 OA
DOCKED: ATOM     25  H   UNL     1      20.089 -12.222   4.065 -0.18 -0.00    +0.000 HD
DOCKED: ENDBRANCH  21  24
DOCKED: ENDBRANCH  19  20
DOCKED: ENDBRANCH   3  18
DOCKED: TORSDOF 6
DOCKED: TER
DOCKED: ENDMDL
________________________________________________________________________________


	BEGINNING GENETIC ALGORITHM DOCKING 76 of 100
Run: 76 Seed: 1029444771 12840731 [ Run 76 of 100 GA/GALS ]
Beginning LAMARCKIAN GENETIC ALGORITHM (LGA), with a maximum of 2500000 energy evaluations.

Final-Value: -13.468


	FINAL GENETIC ALGORITHM DOCKED STATE
	_______________________________________________


Detailed state:  trans 21.014 -10.961 -1.818 quatxyzw -0.242343 0.299690 -0.809121 0.443598 center 0.320 0.169 0.303 ntor 6 18.7272 95.3130 15.0488 -73.5855 167.9249 150.6691
State:	 21.014 -10.961  -1.818  -0.270  0.334 -0.903 127.333     18.73   95.31   15.05  -73.59  167.92  150.67

DOCKED: MODEL       76
DOCKED: USER    Run = 76
DOCKED: USER    DPF = ligand_dock.biased.dpf
DOCKED: USER  
DOCKED: USER    Estimated Free Energy of Binding    =  -10.15 kcal/mol  [=(1)+(2)+(3)-(4)]
DOCKED: USER    Estimated Inhibition Constant, Ki   =   36.17 nM (nanomolar)  [Temperature = 298.15 K]
DOCKED: USER    
DOCKED: USER    (1) Final Intermolecular Energy     =  -11.94 kcal/mol
DOCKED: USER        vdW + Hbond + desolv Energy     =  -11.94 kcal/mol
DOCKED: USER        Electrostatic Energy            =   +0.00 kcal/mol
DOCKED: USER    (2) Final Total Internal Energy     =   -1.53 kcal/mol
DOCKED: USER    (3) Torsional Free Energy           =   +1.79 kcal/mol
DOCKED: USER    (4) Unbound System's Energy  [=(2)] =   -1.53 kcal/mol
DOCKED: USER    
DOCKED: USER    
DOCKED: USER    NEWDPF move ligand.pdbqt
DOCKED: USER    NEWDPF about 0.320000 0.169000 0.303000
DOCKED: USER    NEWDPF tran0 21.013713 -10.960889 -1.818379
DOCKED: USER    NEWDPF quaternion0 -0.242343 0.299690 -0.809121 0.443598
DOCKED: USER    NEWDPF axisangle0 -0.270404 0.334391 -0.902809 127.332678
DOCKED: USER    NEWDPF quat0 -0.270404 0.334391 -0.902809 127.332678
DOCKED: USER    NEWDPF dihe0 18.73 95.31 15.05 -73.59 167.92 150.67 
DOCKED: USER  keepresnum = 1 
DOCKED: USER  
DOCKED: REMARK  Name = 
DOCKED: REMARK  6 active torsions:
DOCKED: REMARK  status: ('A' for Active; 'I' for Inactive)
DOCKED: REMARK    1  A    between atoms: S_2  and  N_3
DOCKED: REMARK    2  A    between atoms: S_2  and  C_10
DOCKED: REMARK    3  A    between atoms: N_3  and  C_4
DOCKED: REMARK    4  A    between atoms: C_12  and  C_13
DOCKED: REMARK    5  A    between atoms: C_14  and  C_15
DOCKED: REMARK    6  A    between atoms: N_16  and  O_17
DOCKED: REMARK                            x       y       z     vdW  Elec       q    Type
DOCKED: REMARK                         _______ _______ _______ _____ _____    ______ ____
DOCKED: USER                              x       y       z     vdW  Elec       q    Type
DOCKED: USER                           _______ _______ _______ _____ _____    ______ ____
DOCKED: ROOT
DOCKED: ATOM      1  C   UNL     1      20.547  -9.840  -3.833 -0.38 -0.00    +0.000 A 
DOCKED: ATOM      2  C   UNL     1      20.424 -10.219  -2.490 -0.46 -0.00    +0.000 A 
DOCKED: ATOM      3  C   UNL     1      20.831  -9.355  -1.459 -0.51 -0.00    +0.000 A 
DOCKED: ATOM      4  C   UNL     1      21.384  -8.103  -1.801 -0.44 -0.00    +0.000 A 
DOCKED: ATOM      5  C   UNL     1      21.499  -7.724  -3.141 -0.33 -0.00    +0.000 A 
DOCKED: ATOM      6  C   UNL     1      21.078  -8.585  -4.155 -0.32 -0.00    +0.000 A 
DOCKED: ENDROOT
DOCKED: BRANCH   1   8
DOCKED: ATOM      7  O   UNL     1      19.610 -12.262  -4.531 -0.61 -0.00    +0.000 OA
DOCKED: ATOM      8  S   UNL     1      20.039 -10.943  -5.110 -0.56 -0.00    +0.000 S 
DOCKED: ATOM      9  O   UNL     1      21.195 -11.169  -6.041 -0.45 -0.00    +0.000 OA
DOCKED: BRANCH   8  10
DOCKED: ATOM     10  N   UNL     1      18.714 -10.258  -5.999 -0.24 -0.00    +0.000 N 
DOCKED: ATOM     11  H   UNL     1      18.826  -9.354  -6.373 +0.01 -0.00    +0.000 HD
DOCKED: BRANCH  10  12
DOCKED: ATOM     12  C   UNL     1      17.462 -10.932  -6.222 -0.30 -0.00    +0.000 A 
DOCKED: ATOM     13  C   UNL     1      16.423 -10.913  -5.271 -0.21 -0.00    +0.000 A 
DOCKED: ATOM     14  C   UNL     1      15.218 -11.573  -5.527 -0.25 -0.00    +0.000 A 
DOCKED: ATOM     15  C   UNL     1      15.037 -12.261  -6.728 -0.30 -0.00    +0.000 A 
DOCKED: ATOM     16  C   UNL     1      16.062 -12.294  -7.675 -0.34 -0.00    +0.000 A 
DOCKED: ATOM     17  C   UNL     1      17.269 -11.634  -7.424 -0.34 -0.00    +0.000 A 
DOCKED: ENDBRANCH  10  12
DOCKED: ENDBRANCH   8  10
DOCKED: ENDBRANCH   1   8
DOCKED: BRANCH   3  18
DOCKED: ATOM     18  C   UNL     1      20.699  -9.816  -0.055 -0.65 -0.00    +0.000 C 
DOCKED: ATOM     19  C   UNL     1      20.376 -11.072   0.288 -0.66 -0.00    +0.000 C 
DOCKED: BRANCH  19  20
DOCKED: ATOM     20  C   UNL     1      20.245 -11.526   1.688 -0.77 -0.00    +0.000 C 
DOCKED: ATOM     21  N   UNL     1      20.521 -10.668   2.803 -0.65 -0.00    +0.000 N 
DOCKED: ATOM     22  O   UNL     1      19.906 -12.721   1.902 -1.56 -0.00    +0.000 OA
DOCKED: ATOM     23  H   UNL     1      20.896  -9.771   2.651 -0.59 -0.00    +0.000 HD
DOCKED: BRANCH  21  24
DOCKED: ATOM     24  O   UNL     1      20.264 -11.087   4.066 -0.81 -0.00    +0.000 OA
DOCKED: ATOM     25  H   UNL     1      20.186 -12.054   4.075 -0.21 -0.00    +0.000 HD
DOCKED: ENDBRANCH  21  24
DOCKED: ENDBRANCH  19  20
DOCKED: ENDBRANCH   3  18
DOCKED: TORSDOF 6
DOCKED: TER
DOCKED: ENDMDL
________________________________________________________________________________


	BEGINNING GENETIC ALGORITHM DOCKING 77 of 100
Run: 77 Seed: 525939403 294889483 [ Run 77 of 100 GA/GALS ]
Beginning LAMARCKIAN GENETIC ALGORITHM (LGA), with a maximum of 2500000 energy evaluations.

Final-Value: -13.165


	FINAL GENETIC ALGORITHM DOCKED STATE
	_______________________________________________


Detailed state:  trans 19.016 -11.254 -1.718 quatxyzw 0.206916 -0.200145 0.370992 -0.882889 center 0.320 0.169 0.303 ntor 6 22.8238 -71.0993 74.3473 -15.3671 179.8615 51.1924
State:	 19.016 -11.254  -1.718   0.441 -0.426  0.790 -56.014     22.82  -71.10   74.35  -15.37  179.86   51.19

DOCKED: MODEL       77
DOCKED: USER    Run = 77
DOCKED: USER    DPF = ligand_dock.biased.dpf
DOCKED: USER  
DOCKED: USER    Estimated Free Energy of Binding    =   -9.41 kcal/mol  [=(1)+(2)+(3)-(4)]
DOCKED: USER    Estimated Inhibition Constant, Ki   =  126.14 nM (nanomolar)  [Temperature = 298.15 K]
DOCKED: USER    
DOCKED: USER    (1) Final Intermolecular Energy     =  -11.20 kcal/mol
DOCKED: USER        vdW + Hbond + desolv Energy     =  -11.20 kcal/mol
DOCKED: USER        Electrostatic Energy            =   +0.00 kcal/mol
DOCKED: USER    (2) Final Total Internal Energy     =   -1.96 kcal/mol
DOCKED: USER    (3) Torsional Free Energy           =   +1.79 kcal/mol
DOCKED: USER    (4) Unbound System's Energy  [=(2)] =   -1.96 kcal/mol
DOCKED: USER    
DOCKED: USER    
DOCKED: USER    NEWDPF move ligand.pdbqt
DOCKED: USER    NEWDPF about 0.320000 0.169000 0.303000
DOCKED: USER    NEWDPF tran0 19.016199 -11.253617 -1.718090
DOCKED: USER    NEWDPF quaternion0 0.206916 -0.200145 0.370992 -0.882889
DOCKED: USER    NEWDPF axisangle0 0.440639 -0.426220 0.790047 -56.014305
DOCKED: USER    NEWDPF quat0 0.440639 -0.426220 0.790047 -56.014305
DOCKED: USER    NEWDPF dihe0 22.82 -71.10 74.35 -15.37 179.86 51.19 
DOCKED: USER  keepresnum = 1 
DOCKED: USER  
DOCKED: REMARK  Name = 
DOCKED: REMARK  6 active torsions:
DOCKED: REMARK  status: ('A' for Active; 'I' for Inactive)
DOCKED: REMARK    1  A    between atoms: S_2  and  N_3
DOCKED: REMARK    2  A    between atoms: S_2  and  C_10
DOCKED: REMARK    3  A    between atoms: N_3  and  C_4
DOCKED: REMARK    4  A    between atoms: C_12  and  C_13
DOCKED: REMARK    5  A    between atoms: C_14  and  C_15
DOCKED: REMARK    6  A    between atoms: N_16  and  O_17
DOCKED: REMARK                            x       y       z     vdW  Elec       q    Type
DOCKED: REMARK                         _______ _______ _______ _____ _____    ______ ____
DOCKED: USER                              x       y       z     vdW  Elec       q    Type
DOCKED: USER                           _______ _______ _______ _____ _____    ______ ____
DOCKED: ROOT
DOCKED: ATOM      1  C   UNL     1      18.829 -10.054  -3.733 -0.29 -0.00    +0.000 A 
DOCKED: ATOM      2  C   UNL     1      19.128 -10.312  -2.389 -0.32 -0.00    +0.000 A 
DOCKED: ATOM      3  C   UNL     1      20.459 -10.481  -1.969 -0.48 -0.00    +0.000 A 
DOCKED: ATOM      4  C   UNL     1      21.489 -10.403  -2.929 -0.44 -0.00    +0.000 A 
DOCKED: ATOM      5  C   UNL     1      21.189 -10.139  -4.268 -0.41 -0.00    +0.000 A 
DOCKED: ATOM      6  C   UNL     1      19.864  -9.960  -4.670 -0.29 -0.00    +0.000 A 
DOCKED: ENDROOT
DOCKED: BRANCH   1   8
DOCKED: ATOM      7  O   UNL     1      16.662 -11.087  -4.947 -0.25 -0.00    +0.000 OA
DOCKED: ATOM      8  S   UNL     1      17.153  -9.855  -4.239 -0.30 -0.00    +0.000 S 
DOCKED: ATOM      9  O   UNL     1      17.067  -8.685  -5.175 -0.15 -0.00    +0.000 OA
DOCKED: BRANCH   8  10
DOCKED: ATOM     10  N   UNL     1      16.143  -9.558  -2.857 -0.22 -0.00    +0.000 N 
DOCKED: ATOM     11  H   UNL     1      15.738  -8.666  -2.765 -0.02 -0.00    +0.000 HD
DOCKED: BRANCH  10  12
DOCKED: ATOM     12  C   UNL     1      15.864 -10.538  -1.841 -0.26 -0.00    +0.000 A 
DOCKED: ATOM     13  C   UNL     1      14.864 -11.517  -2.001 -0.28 -0.00    +0.000 A 
DOCKED: ATOM     14  C   UNL     1      14.628 -12.459  -0.995 -0.40 +0.00    +0.000 A 
DOCKED: ATOM     15  C   UNL     1      15.381 -12.431   0.181 -0.47 +0.00    +0.000 A 
DOCKED: ATOM     16  C   UNL     1      16.369 -11.460   0.355 -0.37 +0.00    +0.000 A 
DOCKED: ATOM     17  C   UNL     1      16.610 -10.517  -0.650 -0.27 -0.00    +0.000 A 
DOCKED: ENDBRANCH  10  12
DOCKED: ENDBRANCH   8  10
DOCKED: ENDBRANCH   1   8
DOCKED: BRANCH   3  18
DOCKED: ATOM     18  C   UNL     1      20.718 -10.774  -0.538 -0.62 -0.00    +0.000 C 
DOCKED: ATOM     19  C   UNL     1      19.797 -11.281   0.296 -0.63 -0.00    +0.000 C 
DOCKED: BRANCH  19  20
DOCKED: ATOM     20  C   UNL     1      20.060 -11.571   1.721 -0.76 -0.00    +0.000 C 
DOCKED: ATOM     21  N   UNL     1      20.540 -10.573   2.632 -0.62 -0.00    +0.000 N 
DOCKED: ATOM     22  O   UNL     1      19.880 -12.747   2.137 -1.51 -0.00    +0.000 OA
DOCKED: ATOM     23  H   UNL     1      20.793  -9.683   2.297 -0.55 -0.00    +0.000 HD
DOCKED: BRANCH  21  24
DOCKED: ATOM     24  O   UNL     1      20.644 -10.852   3.954 -0.80 -0.00    +0.000 OA
DOCKED: ATOM     25  H   UNL     1      20.712 -11.811   4.078 -0.49 -0.00    +0.000 HD
DOCKED: ENDBRANCH  21  24
DOCKED: ENDBRANCH  19  20
DOCKED: ENDBRANCH   3  18
DOCKED: TORSDOF 6
DOCKED: TER
DOCKED: ENDMDL
________________________________________________________________________________


	BEGINNING GENETIC ALGORITHM DOCKING 78 of 100
Run: 78 Seed: 231164998 1715174661 [ Run 78 of 100 GA/GALS ]
Beginning LAMARCKIAN GENETIC ALGORITHM (LGA), with a maximum of 2500000 energy evaluations.

Final-Value: -13.886


	FINAL GENETIC ALGORITHM DOCKED STATE
	_______________________________________________


Detailed state:  trans 22.255 -11.066 -2.265 quatxyzw 0.289422 -0.321368 0.875704 -0.214707 center 0.320 0.169 0.303 ntor 6 34.1278 -106.2130 112.0028 39.6178 43.8030 141.9983
State:	 22.255 -11.066  -2.265   0.296 -0.329  0.897 -155.203     34.13 -106.21  112.00   39.62   43.80  142.00

DOCKED: MODEL       78
DOCKED: USER    Run = 78
DOCKED: USER    DPF = ligand_dock.biased.dpf
DOCKED: USER  
DOCKED: USER    Estimated Free Energy of Binding    =  -10.52 kcal/mol  [=(1)+(2)+(3)-(4)]
DOCKED: USER    Estimated Inhibition Constant, Ki   =   19.50 nM (nanomolar)  [Temperature = 298.15 K]
DOCKED: USER    
DOCKED: USER    (1) Final Intermolecular Energy     =  -12.31 kcal/mol
DOCKED: USER        vdW + Hbond + desolv Energy     =  -12.31 kcal/mol
DOCKED: USER        Electrostatic Energy            =   +0.00 kcal/mol
DOCKED: USER    (2) Final Total Internal Energy     =   -1.58 kcal/mol
DOCKED: USER    (3) Torsional Free Energy           =   +1.79 kcal/mol
DOCKED: USER    (4) Unbound System's Energy  [=(2)] =   -1.58 kcal/mol
DOCKED: USER    
DOCKED: USER    
DOCKED: USER    NEWDPF move ligand.pdbqt
DOCKED: USER    NEWDPF about 0.320000 0.169000 0.303000
DOCKED: USER    NEWDPF tran0 22.254792 -11.066299 -2.264926
DOCKED: USER    NEWDPF quaternion0 0.289422 -0.321368 0.875704 -0.214707
DOCKED: USER    NEWDPF axisangle0 0.296333 -0.329041 0.896615 -155.203295
DOCKED: USER    NEWDPF quat0 0.296333 -0.329041 0.896615 -155.203295
DOCKED: USER    NEWDPF dihe0 34.13 -106.21 112.00 39.62 43.80 142.00 
DOCKED: USER  keepresnum = 1 
DOCKED: USER  
DOCKED: REMARK  Name = 
DOCKED: REMARK  6 active torsions:
DOCKED: REMARK  status: ('A' for Active; 'I' for Inactive)
DOCKED: REMARK    1  A    between atoms: S_2  and  N_3
DOCKED: REMARK    2  A    between atoms: S_2  and  C_10
DOCKED: REMARK    3  A    between atoms: N_3  and  C_4
DOCKED: REMARK    4  A    between atoms: C_12  and  C_13
DOCKED: REMARK    5  A    between atoms: C_14  and  C_15
DOCKED: REMARK    6  A    between atoms: N_16  and  O_17
DOCKED: REMARK                            x       y       z     vdW  Elec       q    Type
DOCKED: REMARK                         _______ _______ _______ _____ _____    ______ ____
DOCKED: USER                              x       y       z     vdW  Elec       q    Type
DOCKED: USER                           _______ _______ _______ _____ _____    ______ ____
DOCKED: ROOT
DOCKED: ATOM      1  C   UNL     1      21.496  -9.928  -4.179 -0.39 -0.00    +0.000 A 
DOCKED: ATOM      2  C   UNL     1      21.451 -10.545  -2.921 -0.45 -0.00    +0.000 A 
DOCKED: ATOM      3  C   UNL     1      21.354  -9.776  -1.748 -0.53 -0.00    +0.000 A 
DOCKED: ATOM      4  C   UNL     1      21.321  -8.371  -1.857 -0.45 -0.00    +0.000 A 
DOCKED: ATOM      5  C   UNL     1      21.358  -7.758  -3.112 -0.37 -0.00    +0.000 A 
DOCKED: ATOM      6  C   UNL     1      21.440  -8.533  -4.271 -0.30 -0.00    +0.000 A 
DOCKED: ENDROOT
DOCKED: BRANCH   1   8
DOCKED: ATOM      7  O   UNL     1      21.991 -12.327  -5.290 -0.77 -0.00    +0.000 OA
DOCKED: ATOM      8  S   UNL     1      21.626 -10.910  -5.636 -0.60 -0.00    +0.000 S 
DOCKED: ATOM      9  O   UNL     1      22.695 -10.329  -6.515 -0.38 -0.00    +0.000 OA
DOCKED: BRANCH   8  10
DOCKED: ATOM     10  N   UNL     1      20.117 -10.909  -6.495 -0.33 -0.00    +0.000 N 
DOCKED: ATOM     11  H   UNL     1      20.111 -11.249  -7.418 -0.12 -0.00    +0.000 HD
DOCKED: BRANCH  10  12
DOCKED: ATOM     12  C   UNL     1      18.876 -10.441  -5.936 -0.28 -0.00    +0.000 A 
DOCKED: ATOM     13  C   UNL     1      17.768 -11.293  -5.759 -0.30 -0.00    +0.000 A 
DOCKED: ATOM     14  C   UNL     1      16.581 -10.804  -5.205 -0.21 -0.00    +0.000 A 
DOCKED: ATOM     15  C   UNL     1      16.485  -9.464  -4.826 -0.17 -0.00    +0.000 A 
DOCKED: ATOM     16  C   UNL     1      17.573  -8.608  -5.004 -0.15 -0.00    +0.000 A 
DOCKED: ATOM     17  C   UNL     1      18.763  -9.093  -5.557 -0.16 -0.00    +0.000 A 
DOCKED: ENDBRANCH  10  12
DOCKED: ENDBRANCH   8  10
DOCKED: ENDBRANCH   1   8
DOCKED: BRANCH   3  18
DOCKED: ATOM     18  C   UNL     1      21.333 -10.479  -0.441 -0.71 -0.00    +0.000 C 
DOCKED: ATOM     19  C   UNL     1      20.280 -10.471   0.390 -0.65 -0.00    +0.000 C 
DOCKED: BRANCH  19  20
DOCKED: ATOM     20  C   UNL     1      20.264 -11.173   1.691 -0.75 -0.00    +0.000 C 
DOCKED: ATOM     21  N   UNL     1      20.616 -10.522   2.919 -0.63 -0.00    +0.000 N 
DOCKED: ATOM     22  O   UNL     1      19.955 -12.394   1.709 -1.74 -0.00    +0.000 OA
DOCKED: ATOM     23  H   UNL     1      20.969  -9.604   2.905 -0.59 -0.00    +0.000 HD
DOCKED: BRANCH  21  24
DOCKED: ATOM     24  O   UNL     1      20.463 -11.169   4.100 -0.74 -0.00    +0.000 OA
DOCKED: ATOM     25  H   UNL     1      20.639 -12.114   3.976 -0.54 -0.00    +0.000 HD
DOCKED: ENDBRANCH  21  24
DOCKED: ENDBRANCH  19  20
DOCKED: ENDBRANCH   3  18
DOCKED: TORSDOF 6
DOCKED: TER
DOCKED: ENDMDL
________________________________________________________________________________


	BEGINNING GENETIC ALGORITHM DOCKING 79 of 100
Run: 79 Seed: 82578801 559749440 [ Run 79 of 100 GA/GALS ]
Beginning LAMARCKIAN GENETIC ALGORITHM (LGA), with a maximum of 2500000 energy evaluations.

Final-Value: -12.818


	FINAL GENETIC ALGORITHM DOCKED STATE
	_______________________________________________


Detailed state:  trans 16.067 -10.345 4.556 quatxyzw -0.281139 -0.487486 -0.121038 0.817721 center 0.320 0.169 0.303 ntor 6 -1.8797 168.9369 -132.7771 4.0129 -79.7389 139.5946
State:	 16.067 -10.345   4.556  -0.488 -0.847 -0.210 70.285     -1.88  168.94 -132.78    4.01  -79.74  139.59

DOCKED: MODEL       79
DOCKED: USER    Run = 79
DOCKED: USER    DPF = ligand_dock.biased.dpf
DOCKED: USER  
DOCKED: USER    Estimated Free Energy of Binding    =   -9.28 kcal/mol  [=(1)+(2)+(3)-(4)]
DOCKED: USER    Estimated Inhibition Constant, Ki   =  158.28 nM (nanomolar)  [Temperature = 298.15 K]
DOCKED: USER    
DOCKED: USER    (1) Final Intermolecular Energy     =  -11.07 kcal/mol
DOCKED: USER        vdW + Hbond + desolv Energy     =  -11.07 kcal/mol
DOCKED: USER        Electrostatic Energy            =   +0.00 kcal/mol
DOCKED: USER    (2) Final Total Internal Energy     =   -1.75 kcal/mol
DOCKED: USER    (3) Torsional Free Energy           =   +1.79 kcal/mol
DOCKED: USER    (4) Unbound System's Energy  [=(2)] =   -1.75 kcal/mol
DOCKED: USER    
DOCKED: USER    
DOCKED: USER    NEWDPF move ligand.pdbqt
DOCKED: USER    NEWDPF about 0.320000 0.169000 0.303000
DOCKED: USER    NEWDPF tran0 16.066948 -10.345394 4.555905
DOCKED: USER    NEWDPF quaternion0 -0.281139 -0.487486 -0.121038 0.817721
DOCKED: USER    NEWDPF axisangle0 -0.488415 -0.846897 -0.210276 70.285302
DOCKED: USER    NEWDPF quat0 -0.488415 -0.846897 -0.210276 70.285302
DOCKED: USER    NEWDPF dihe0 -1.88 168.94 -132.78 4.01 -79.74 139.59 
DOCKED: USER  keepresnum = 1 
DOCKED: USER  
DOCKED: REMARK  Name = 
DOCKED: REMARK  6 active torsions:
DOCKED: REMARK  status: ('A' for Active; 'I' for Inactive)
DOCKED: REMARK    1  A    between atoms: S_2  and  N_3
DOCKED: REMARK    2  A    between atoms: S_2  and  C_10
DOCKED: REMARK    3  A    between atoms: N_3  and  C_4
DOCKED: REMARK    4  A    between atoms: C_12  and  C_13
DOCKED: REMARK    5  A    between atoms: C_14  and  C_15
DOCKED: REMARK    6  A    between atoms: N_16  and  O_17
DOCKED: REMARK                            x       y       z     vdW  Elec       q    Type
DOCKED: REMARK                         _______ _______ _______ _____ _____    ______ ____
DOCKED: USER                              x       y       z     vdW  Elec       q    Type
DOCKED: USER                           _______ _______ _______ _____ _____    ______ ____
DOCKED: ROOT
DOCKED: ATOM      1  C   UNL     1      13.921  -9.408   4.330 -0.34 +0.00    +0.000 A 
DOCKED: ATOM      2  C   UNL     1      15.307  -9.549   4.184 -0.32 +0.00    +0.000 A 
DOCKED: ATOM      3  C   UNL     1      15.862  -9.960   2.959 -0.39 +0.00    +0.000 A 
DOCKED: ATOM      4  C   UNL     1      14.997 -10.244   1.882 -0.30 +0.00    +0.000 A 
DOCKED: ATOM      5  C   UNL     1      13.615 -10.096   2.029 -0.25 +0.00    +0.000 A 
DOCKED: ATOM      6  C   UNL     1      13.077  -9.674   3.246 -0.21 +0.00    +0.000 A 
DOCKED: ENDROOT
DOCKED: BRANCH   1   8
DOCKED: ATOM      7  O   UNL     1      14.267  -9.042   6.972 -0.52 +0.00    +0.000 OA
DOCKED: ATOM      8  S   UNL     1      13.247  -8.902   5.877 -0.62 +0.00    +0.000 S 
DOCKED: ATOM      9  O   UNL     1      12.064  -9.769   6.196 -0.77 +0.00    +0.000 OA
DOCKED: BRANCH   8  10
DOCKED: ATOM     10  N   UNL     1      12.734  -7.244   5.792 -0.28 +0.00    +0.000 N 
DOCKED: ATOM     11  H   UNL     1      11.832  -7.023   6.117 -0.01 +0.00    +0.000 HD
DOCKED: BRANCH  10  12
DOCKED: ATOM     12  C   UNL     1      13.549  -6.177   5.274 -0.33 +0.00    +0.000 A 
DOCKED: ATOM     13  C   UNL     1      12.990  -4.978   4.791 -0.26 +0.00    +0.000 A 
DOCKED: ATOM     14  C   UNL     1      13.815  -3.959   4.304 -0.28 +0.00    +0.000 A 
DOCKED: ATOM     15  C   UNL     1      15.201  -4.127   4.289 -0.38 -0.00    +0.000 A 
DOCKED: ATOM     16  C   UNL     1      15.766  -5.315   4.758 -0.38 +0.00    +0.000 A 
DOCKED: ATOM     17  C   UNL     1      14.945  -6.335   5.247 -0.40 +0.00    +0.000 A 
DOCKED: ENDBRANCH  10  12
DOCKED: ENDBRANCH   8  10
DOCKED: ENDBRANCH   1   8
DOCKED: BRANCH   3  18
DOCKED: ATOM     18  C   UNL     1      17.335 -10.115   2.865 -0.49 +0.00    +0.000 C 
DOCKED: ATOM     19  C   UNL     1      17.942 -11.264   2.532 -0.47 +0.00    +0.000 C 
DOCKED: BRANCH  19  20
DOCKED: ATOM     20  C   UNL     1      19.409 -11.413   2.440 -0.70 -0.00    +0.000 C 
DOCKED: ATOM     21  N   UNL     1      20.032 -12.354   1.555 -0.70 -0.00    +0.000 N 
DOCKED: ATOM     22  O   UNL     1      20.132 -10.704   3.189 -0.83 -0.00    +0.000 OA
DOCKED: ATOM     23  H   UNL     1      19.479 -12.992   1.049 -0.44 -0.00    +0.000 HD
DOCKED: BRANCH  21  24
DOCKED: ATOM     24  O   UNL     1      21.379 -12.365   1.411 -0.95 -0.00    +0.000 OA
DOCKED: ATOM     25  H   UNL     1      21.767 -11.659   1.951 -0.43 -0.00    +0.000 HD
DOCKED: ENDBRANCH  21  24
DOCKED: ENDBRANCH  19  20
DOCKED: ENDBRANCH   3  18
DOCKED: TORSDOF 6
DOCKED: TER
DOCKED: ENDMDL
________________________________________________________________________________


	BEGINNING GENETIC ALGORITHM DOCKING 80 of 100
Run: 80 Seed: 424110855 445124112 [ Run 80 of 100 GA/GALS ]
Beginning LAMARCKIAN GENETIC ALGORITHM (LGA), with a maximum of 2500000 energy evaluations.

Final-Value: -12.849


	FINAL GENETIC ALGORITHM DOCKED STATE
	_______________________________________________


Detailed state:  trans 16.468 -10.238 3.642 quatxyzw 0.085061 0.640035 -0.082613 -0.759141 center 0.320 0.169 0.303 ntor 6 1.2877 -57.9136 117.4869 171.1947 168.5339 61.6206
State:	 16.468 -10.238   3.642   0.131  0.983 -0.127 -81.223      1.29  -57.91  117.49  171.19  168.53   61.62

DOCKED: MODEL       80
DOCKED: USER    Run = 80
DOCKED: USER    DPF = ligand_dock.biased.dpf
DOCKED: USER  
DOCKED: USER    Estimated Free Energy of Binding    =   -9.47 kcal/mol  [=(1)+(2)+(3)-(4)]
DOCKED: USER    Estimated Inhibition Constant, Ki   =  113.60 nM (nanomolar)  [Temperature = 298.15 K]
DOCKED: USER    
DOCKED: USER    (1) Final Intermolecular Energy     =  -11.26 kcal/mol
DOCKED: USER        vdW + Hbond + desolv Energy     =  -11.26 kcal/mol
DOCKED: USER        Electrostatic Energy            =   +0.00 kcal/mol
DOCKED: USER    (2) Final Total Internal Energy     =   -1.58 kcal/mol
DOCKED: USER    (3) Torsional Free Energy           =   +1.79 kcal/mol
DOCKED: USER    (4) Unbound System's Energy  [=(2)] =   -1.58 kcal/mol
DOCKED: USER    
DOCKED: USER    
DOCKED: USER    NEWDPF move ligand.pdbqt
DOCKED: USER    NEWDPF about 0.320000 0.169000 0.303000
DOCKED: USER    NEWDPF tran0 16.468132 -10.237536 3.641580
DOCKED: USER    NEWDPF quaternion0 0.085061 0.640035 -0.082613 -0.759141
DOCKED: USER    NEWDPF axisangle0 0.130677 0.983268 -0.126916 -81.222886
DOCKED: USER    NEWDPF quat0 0.130677 0.983268 -0.126916 -81.222886
DOCKED: USER    NEWDPF dihe0 1.29 -57.91 117.49 171.19 168.53 61.62 
DOCKED: USER  keepresnum = 1 
DOCKED: USER  
DOCKED: REMARK  Name = 
DOCKED: REMARK  6 active torsions:
DOCKED: REMARK  status: ('A' for Active; 'I' for Inactive)
DOCKED: REMARK    1  A    between atoms: S_2  and  N_3
DOCKED: REMARK    2  A    between atoms: S_2  and  C_10
DOCKED: REMARK    3  A    between atoms: N_3  and  C_4
DOCKED: REMARK    4  A    between atoms: C_12  and  C_13
DOCKED: REMARK    5  A    between atoms: C_14  and  C_15
DOCKED: REMARK    6  A    between atoms: N_16  and  O_17
DOCKED: REMARK                            x       y       z     vdW  Elec       q    Type
DOCKED: REMARK                         _______ _______ _______ _____ _____    ______ ____
DOCKED: USER                              x       y       z     vdW  Elec       q    Type
DOCKED: USER                           _______ _______ _______ _____ _____    ______ ____
DOCKED: ROOT
DOCKED: ATOM      1  C   UNL     1      14.337  -9.244   3.726 -0.32 +0.00    +0.000 A 
DOCKED: ATOM      2  C   UNL     1      15.580  -9.628   3.206 -0.38 +0.00    +0.000 A 
DOCKED: ATOM      3  C   UNL     1      15.673 -10.655   2.251 -0.37 +0.00    +0.000 A 
DOCKED: ATOM      4  C   UNL     1      14.493 -11.306   1.837 -0.39 +0.00    +0.000 A 
DOCKED: ATOM      5  C   UNL     1      13.253 -10.917   2.351 -0.29 +0.00    +0.000 A 
DOCKED: ATOM      6  C   UNL     1      13.173  -9.886   3.289 -0.20 +0.00    +0.000 A 
DOCKED: ENDROOT
DOCKED: BRANCH   1   8
DOCKED: ATOM      7  O   UNL     1      14.269  -8.534   6.320 -0.60 +0.00    +0.000 OA
DOCKED: ATOM      8  S   UNL     1      14.246  -7.961   4.930 -0.53 +0.00    +0.000 S 
DOCKED: ATOM      9  O   UNL     1      12.964  -7.205   4.732 -0.27 +0.00    +0.000 OA
DOCKED: BRANCH   8  10
DOCKED: ATOM     10  N   UNL     1      15.586  -6.872   4.745 -0.46 +0.00    +0.000 N 
DOCKED: ATOM     11  H   UNL     1      16.494  -7.232   4.867 -0.16 +0.00    +0.000 HD
DOCKED: BRANCH  10  12
DOCKED: ATOM     12  C   UNL     1      15.448  -5.476   4.426 -0.37 +0.00    +0.000 A 
DOCKED: ATOM     13  C   UNL     1      15.004  -5.039   3.162 -0.26 -0.00    +0.000 A 
DOCKED: ATOM     14  C   UNL     1      14.874  -3.673   2.891 -0.27 -0.00    +0.000 A 
DOCKED: ATOM     15  C   UNL     1      15.189  -2.731   3.873 -0.38 -0.00    +0.000 A 
DOCKED: ATOM     16  C   UNL     1      15.638  -3.152   5.126 -0.43 -0.00    +0.000 A 
DOCKED: ATOM     17  C   UNL     1      15.768  -4.517   5.402 -0.46 +0.00    +0.000 A 
DOCKED: ENDBRANCH  10  12
DOCKED: ENDBRANCH   8  10
DOCKED: ENDBRANCH   1   8
DOCKED: BRANCH   3  18
DOCKED: ATOM     18  C   UNL     1      17.016 -11.037   1.749 -0.45 +0.00    +0.000 C 
DOCKED: ATOM     19  C   UNL     1      18.163 -10.593   2.285 -0.55 -0.00    +0.000 C 
DOCKED: BRANCH  19  20
DOCKED: ATOM     20  C   UNL     1      19.499 -10.976   1.781 -0.67 -0.00    +0.000 C 
DOCKED: ATOM     21  N   UNL     1      20.263 -10.132   0.910 -0.57 -0.00    +0.000 N 
DOCKED: ATOM     22  O   UNL     1      19.965 -12.099   2.113 -1.68 -0.00    +0.000 OA
DOCKED: ATOM     23  H   UNL     1      19.864  -9.306   0.552 -0.08 -0.00    +0.000 HD
DOCKED: BRANCH  21  24
DOCKED: ATOM     24  O   UNL     1      21.534 -10.467   0.578 -0.64 -0.00    +0.000 OA
DOCKED: ATOM     25  H   UNL     1      21.764 -11.311   0.996 -0.49 -0.00    +0.000 HD
DOCKED: ENDBRANCH  21  24
DOCKED: ENDBRANCH  19  20
DOCKED: ENDBRANCH   3  18
DOCKED: TORSDOF 6
DOCKED: TER
DOCKED: ENDMDL
________________________________________________________________________________


	BEGINNING GENETIC ALGORITHM DOCKING 81 of 100
Run: 81 Seed: 1349771960 174573947 [ Run 81 of 100 GA/GALS ]
Beginning LAMARCKIAN GENETIC ALGORITHM (LGA), with a maximum of 2500000 energy evaluations.

Final-Value: -13.079


	FINAL GENETIC ALGORITHM DOCKED STATE
	_______________________________________________


Detailed state:  trans 22.199 -10.869 -3.730 quatxyzw -0.186785 0.099304 -0.968440 -0.131809 center 0.320 0.169 0.303 ntor 6 -111.6530 -41.8604 26.0517 -131.0290 -111.6343 165.0705
State:	 22.199 -10.869  -3.730  -0.188  0.100 -0.977 -164.852   -111.65  -41.86   26.05 -131.03 -111.63  165.07

DOCKED: MODEL       81
DOCKED: USER    Run = 81
DOCKED: USER    DPF = ligand_dock.biased.dpf
DOCKED: USER  
DOCKED: USER    Estimated Free Energy of Binding    =  -10.33 kcal/mol  [=(1)+(2)+(3)-(4)]
DOCKED: USER    Estimated Inhibition Constant, Ki   =   26.76 nM (nanomolar)  [Temperature = 298.15 K]
DOCKED: USER    
DOCKED: USER    (1) Final Intermolecular Energy     =  -12.12 kcal/mol
DOCKED: USER        vdW + Hbond + desolv Energy     =  -12.12 kcal/mol
DOCKED: USER        Electrostatic Energy            =   +0.00 kcal/mol
DOCKED: USER    (2) Final Total Internal Energy     =   -0.96 kcal/mol
DOCKED: USER    (3) Torsional Free Energy           =   +1.79 kcal/mol
DOCKED: USER    (4) Unbound System's Energy  [=(2)] =   -0.96 kcal/mol
DOCKED: USER    
DOCKED: USER    
DOCKED: USER    NEWDPF move ligand.pdbqt
DOCKED: USER    NEWDPF about 0.320000 0.169000 0.303000
DOCKED: USER    NEWDPF tran0 22.199152 -10.869444 -3.730258
DOCKED: USER    NEWDPF quaternion0 -0.186785 0.099304 -0.968440 -0.131809
DOCKED: USER    NEWDPF axisangle0 -0.188429 0.100178 -0.976964 -164.851746
DOCKED: USER    NEWDPF quat0 -0.188429 0.100178 -0.976964 -164.851746
DOCKED: USER    NEWDPF dihe0 -111.65 -41.86 26.05 -131.03 -111.63 165.07 
DOCKED: USER  keepresnum = 1 
DOCKED: USER  
DOCKED: REMARK  Name = 
DOCKED: REMARK  6 active torsions:
DOCKED: REMARK  status: ('A' for Active; 'I' for Inactive)
DOCKED: REMARK    1  A    between atoms: S_2  and  N_3
DOCKED: REMARK    2  A    between atoms: S_2  and  C_10
DOCKED: REMARK    3  A    between atoms: N_3  and  C_4
DOCKED: REMARK    4  A    between atoms: C_12  and  C_13
DOCKED: REMARK    5  A    between atoms: C_14  and  C_15
DOCKED: REMARK    6  A    between atoms: N_16  and  O_17
DOCKED: REMARK                            x       y       z     vdW  Elec       q    Type
DOCKED: REMARK                         _______ _______ _______ _____ _____    ______ ____
DOCKED: USER                              x       y       z     vdW  Elec       q    Type
DOCKED: USER                           _______ _______ _______ _____ _____    ______ ____
DOCKED: ROOT
DOCKED: ATOM      1  C   UNL     1      21.833 -10.855  -6.054 -0.41 -0.00    +0.000 A 
DOCKED: ATOM      2  C   UNL     1      21.625 -11.150  -4.700 -0.47 -0.00    +0.000 A 
DOCKED: ATOM      3  C   UNL     1      20.601 -10.514  -3.976 -0.43 -0.00    +0.000 A 
DOCKED: ATOM      4  C   UNL     1      19.796  -9.561  -4.632 -0.26 -0.00    +0.000 A 
DOCKED: ATOM      5  C   UNL     1      20.000  -9.274  -5.985 -0.17 -0.00    +0.000 A 
DOCKED: ATOM      6  C   UNL     1      21.011  -9.921  -6.696 -0.24 -0.00    +0.000 A 
DOCKED: ENDROOT
DOCKED: BRANCH   1   8
DOCKED: ATOM      7  O   UNL     1      23.715 -12.776  -6.125 -1.13 +0.00    +0.000 OA
DOCKED: ATOM      8  S   UNL     1      23.128 -11.656  -6.940 -0.63 -0.00    +0.000 S 
DOCKED: ATOM      9  O   UNL     1      24.203 -10.651  -7.237 -0.42 -0.00    +0.000 OA
DOCKED: BRANCH   8  10
DOCKED: ATOM     10  N   UNL     1      22.521 -12.302  -8.433 -0.28 -0.00    +0.000 N 
DOCKED: ATOM     11  H   UNL     1      21.556 -12.225  -8.611 -0.51 -0.00    +0.000 HD
DOCKED: BRANCH  10  12
DOCKED: ATOM     12  C   UNL     1      23.344 -12.943  -9.425 -0.36 -0.00    +0.000 A 
DOCKED: ATOM     13  C   UNL     1      24.494 -12.325  -9.953 -0.29 -0.00    +0.000 A 
DOCKED: ATOM     14  C   UNL     1      25.274 -12.983 -10.909 -0.16 -0.00    +0.000 A 
DOCKED: ATOM     15  C   UNL     1      24.914 -14.258 -11.350 -0.28 -0.00    +0.000 A 
DOCKED: ATOM     16  C   UNL     1      23.772 -14.877 -10.839 -0.39 +0.00    +0.000 A 
DOCKED: ATOM     17  C   UNL     1      22.990 -14.224  -9.882 -0.36 +0.00    +0.000 A 
DOCKED: ENDBRANCH  10  12
DOCKED: ENDBRANCH   8  10
DOCKED: ENDBRANCH   1   8
DOCKED: BRANCH   3  18
DOCKED: ATOM     18  C   UNL     1      20.438 -10.847  -2.539 -0.44 -0.00    +0.000 C 
DOCKED: ATOM     19  C   UNL     1      21.068 -10.196  -1.550 -0.63 -0.00    +0.000 C 
DOCKED: BRANCH  19  20
DOCKED: ATOM     20  C   UNL     1      20.903 -10.531  -0.120 -0.70 -0.00    +0.000 C 
DOCKED: ATOM     21  N   UNL     1      20.179 -11.688   0.319 -0.53 -0.00    +0.000 N 
DOCKED: ATOM     22  O   UNL     1      21.395  -9.752   0.740 -0.68 -0.00    +0.000 OA
DOCKED: ATOM     23  H   UNL     1      19.693 -12.241  -0.335 -0.08 -0.00    +0.000 HD
DOCKED: BRANCH  21  24
DOCKED: ATOM     24  O   UNL     1      20.163 -12.025   1.632 -1.68 -0.00    +0.000 OA
DOCKED: ATOM     25  H   UNL     1      20.659 -12.848   1.761 -0.59 -0.00    +0.000 HD
DOCKED: ENDBRANCH  21  24
DOCKED: ENDBRANCH  19  20
DOCKED: ENDBRANCH   3  18
DOCKED: TORSDOF 6
DOCKED: TER
DOCKED: ENDMDL
________________________________________________________________________________


	BEGINNING GENETIC ALGORITHM DOCKING 82 of 100
Run: 82 Seed: 1046158471 1186194141 [ Run 82 of 100 GA/GALS ]
Beginning LAMARCKIAN GENETIC ALGORITHM (LGA), with a maximum of 2500000 energy evaluations.

Final-Value: -12.923


	FINAL GENETIC ALGORITHM DOCKED STATE
	_______________________________________________


Detailed state:  trans 18.867 -10.336 -1.513 quatxyzw -0.959141 0.205554 0.046396 -0.188793 center 0.320 0.169 0.303 ntor 6 164.1903 15.3220 -179.9606 121.7262 134.0407 -134.4995
State:	 18.867 -10.336  -1.513  -0.977  0.209  0.047 -158.235    164.19   15.32 -179.96  121.73  134.04 -134.50

DOCKED: MODEL       82
DOCKED: USER    Run = 82
DOCKED: USER    DPF = ligand_dock.biased.dpf
DOCKED: USER  
DOCKED: USER    Estimated Free Energy of Binding    =   -9.99 kcal/mol  [=(1)+(2)+(3)-(4)]
DOCKED: USER    Estimated Inhibition Constant, Ki   =   47.71 nM (nanomolar)  [Temperature = 298.15 K]
DOCKED: USER    
DOCKED: USER    (1) Final Intermolecular Energy     =  -11.78 kcal/mol
DOCKED: USER        vdW + Hbond + desolv Energy     =  -11.78 kcal/mol
DOCKED: USER        Electrostatic Energy            =   +0.00 kcal/mol
DOCKED: USER    (2) Final Total Internal Energy     =   -1.15 kcal/mol
DOCKED: USER    (3) Torsional Free Energy           =   +1.79 kcal/mol
DOCKED: USER    (4) Unbound System's Energy  [=(2)] =   -1.15 kcal/mol
DOCKED: USER    
DOCKED: USER    
DOCKED: USER    NEWDPF move ligand.pdbqt
DOCKED: USER    NEWDPF about 0.320000 0.169000 0.303000
DOCKED: USER    NEWDPF tran0 18.867109 -10.335810 -1.512534
DOCKED: USER    NEWDPF quaternion0 -0.959141 0.205554 0.046396 -0.188793
DOCKED: USER    NEWDPF axisangle0 -0.976705 0.209319 0.047246 -158.235298
DOCKED: USER    NEWDPF quat0 -0.976705 0.209319 0.047246 -158.235298
DOCKED: USER    NEWDPF dihe0 164.19 15.32 -179.96 121.73 134.04 -134.50 
DOCKED: USER  keepresnum = 1 
DOCKED: USER  
DOCKED: REMARK  Name = 
DOCKED: REMARK  6 active torsions:
DOCKED: REMARK  status: ('A' for Active; 'I' for Inactive)
DOCKED: REMARK    1  A    between atoms: S_2  and  N_3
DOCKED: REMARK    2  A    between atoms: S_2  and  C_10
DOCKED: REMARK    3  A    between atoms: N_3  and  C_4
DOCKED: REMARK    4  A    between atoms: C_12  and  C_13
DOCKED: REMARK    5  A    between atoms: C_14  and  C_15
DOCKED: REMARK    6  A    between atoms: N_16  and  O_17
DOCKED: REMARK                            x       y       z     vdW  Elec       q    Type
DOCKED: REMARK                         _______ _______ _______ _____ _____    ______ ____
DOCKED: USER                              x       y       z     vdW  Elec       q    Type
DOCKED: USER                           _______ _______ _______ _____ _____    ______ ____
DOCKED: ROOT
DOCKED: ATOM      1  C   UNL     1      18.285 -11.421   0.492 -0.46 -0.00    +0.000 A 
DOCKED: ATOM      2  C   UNL     1      18.972 -11.160  -0.701 -0.43 -0.00    +0.000 A 
DOCKED: ATOM      3  C   UNL     1      20.269 -10.618  -0.678 -0.53 -0.00    +0.000 A 
DOCKED: ATOM      4  C   UNL     1      20.862 -10.325   0.567 -0.60 -0.00    +0.000 A 
DOCKED: ATOM      5  C   UNL     1      20.177 -10.593   1.756 -0.58 -0.00    +0.000 A 
DOCKED: ATOM      6  C   UNL     1      18.895 -11.143   1.721 -0.53 -0.00    +0.000 A 
DOCKED: ENDROOT
DOCKED: BRANCH   1   8
DOCKED: ATOM      7  O   UNL     1      16.684 -13.520  -0.024 -1.19 +0.00    +0.000 OA
DOCKED: ATOM      8  S   UNL     1      16.656 -12.091   0.440 -0.62 +0.00    +0.000 S 
DOCKED: ATOM      9  O   UNL     1      15.831 -11.280  -0.517 -0.34 +0.00    +0.000 OA
DOCKED: BRANCH   8  10
DOCKED: ATOM     10  N   UNL     1      15.932 -12.023   2.018 -0.44 +0.00    +0.000 N 
DOCKED: ATOM     11  H   UNL     1      15.773 -12.872   2.490 -0.03 +0.00    +0.000 HD
DOCKED: BRANCH  10  12
DOCKED: ATOM     12  C   UNL     1      15.550 -10.801   2.674 -0.42 +0.00    +0.000 A 
DOCKED: ATOM     13  C   UNL     1      15.661  -9.547   2.042 -0.31 +0.00    +0.000 A 
DOCKED: ATOM     14  C   UNL     1      15.271  -8.381   2.709 -0.29 +0.00    +0.000 A 
DOCKED: ATOM     15  C   UNL     1      14.772  -8.453   4.011 -0.33 +0.00    +0.000 A 
DOCKED: ATOM     16  C   UNL     1      14.664  -9.689   4.651 -0.39 +0.00    +0.000 A 
DOCKED: ATOM     17  C   UNL     1      15.051 -10.858   3.987 -0.42 +0.00    +0.000 A 
DOCKED: ENDBRANCH  10  12
DOCKED: ENDBRANCH   8  10
DOCKED: ENDBRANCH   1   8
DOCKED: BRANCH   3  18
DOCKED: ATOM     18  C   UNL     1      20.943 -10.341  -1.971 -0.58 -0.00    +0.000 C 
DOCKED: ATOM     19  C   UNL     1      20.648 -10.977  -3.115 -0.36 -0.00    +0.000 C 
DOCKED: BRANCH  19  20
DOCKED: ATOM     20  C   UNL     1      21.322 -10.698  -4.400 -0.52 -0.00    +0.000 C 
DOCKED: ATOM     21  N   UNL     1      21.283 -11.612  -5.503 -0.50 -0.00    +0.000 N 
DOCKED: ATOM     22  O   UNL     1      21.976  -9.627  -4.513 -0.42 -0.00    +0.000 OA
DOCKED: ATOM     23  H   UNL     1      20.874 -12.501  -5.390 -0.49 -0.00    +0.000 HD
DOCKED: BRANCH  21  24
DOCKED: ATOM     24  O   UNL     1      21.806 -11.257  -6.702 -0.43 -0.00    +0.000 OA
DOCKED: ATOM     25  H   UNL     1      21.926 -12.049  -7.249 -0.56 -0.00    +0.000 HD
DOCKED: ENDBRANCH  21  24
DOCKED: ENDBRANCH  19  20
DOCKED: ENDBRANCH   3  18
DOCKED: TORSDOF 6
DOCKED: TER
DOCKED: ENDMDL
________________________________________________________________________________


	BEGINNING GENETIC ALGORITHM DOCKING 83 of 100
Run: 83 Seed: 515615323 28621196 [ Run 83 of 100 GA/GALS ]
Beginning LAMARCKIAN GENETIC ALGORITHM (LGA), with a maximum of 2500000 energy evaluations.

Final-Value: -12.161


	FINAL GENETIC ALGORITHM DOCKED STATE
	_______________________________________________


Detailed state:  trans 18.337 -10.156 0.399 quatxyzw -0.854881 0.460505 0.157985 -0.179314 center 0.320 0.169 0.303 ntor 6 8.2442 -82.6209 90.2690 -35.7553 168.1885 87.7772
State:	 18.337 -10.156   0.399  -0.869  0.468  0.161 -159.340      8.24  -82.62   90.27  -35.76  168.19   87.78

DOCKED: MODEL       83
DOCKED: USER    Run = 83
DOCKED: USER    DPF = ligand_dock.biased.dpf
DOCKED: USER  
DOCKED: USER    Estimated Free Energy of Binding    =   -8.47 kcal/mol  [=(1)+(2)+(3)-(4)]
DOCKED: USER    Estimated Inhibition Constant, Ki   =  620.01 nM (nanomolar)  [Temperature = 298.15 K]
DOCKED: USER    
DOCKED: USER    (1) Final Intermolecular Energy     =  -10.26 kcal/mol
DOCKED: USER        vdW + Hbond + desolv Energy     =  -10.26 kcal/mol
DOCKED: USER        Electrostatic Energy            =   +0.00 kcal/mol
DOCKED: USER    (2) Final Total Internal Energy     =   -1.90 kcal/mol
DOCKED: USER    (3) Torsional Free Energy           =   +1.79 kcal/mol
DOCKED: USER    (4) Unbound System's Energy  [=(2)] =   -1.90 kcal/mol
DOCKED: USER    
DOCKED: USER    
DOCKED: USER    NEWDPF move ligand.pdbqt
DOCKED: USER    NEWDPF about 0.320000 0.169000 0.303000
DOCKED: USER    NEWDPF tran0 18.337426 -10.156182 0.398720
DOCKED: USER    NEWDPF quaternion0 -0.854881 0.460505 0.157985 -0.179314
DOCKED: USER    NEWDPF axisangle0 -0.868966 0.468092 0.160588 -159.340352
DOCKED: USER    NEWDPF quat0 -0.868966 0.468092 0.160588 -159.340352
DOCKED: USER    NEWDPF dihe0 8.24 -82.62 90.27 -35.76 168.19 87.78 
DOCKED: USER  keepresnum = 1 
DOCKED: USER  
DOCKED: REMARK  Name = 
DOCKED: REMARK  6 active torsions:
DOCKED: REMARK  status: ('A' for Active; 'I' for Inactive)
DOCKED: REMARK    1  A    between atoms: S_2  and  N_3
DOCKED: REMARK    2  A    between atoms: S_2  and  C_10
DOCKED: REMARK    3  A    between atoms: N_3  and  C_4
DOCKED: REMARK    4  A    between atoms: C_12  and  C_13
DOCKED: REMARK    5  A    between atoms: C_14  and  C_15
DOCKED: REMARK    6  A    between atoms: N_16  and  O_17
DOCKED: REMARK                            x       y       z     vdW  Elec       q    Type
DOCKED: REMARK                         _______ _______ _______ _____ _____    ______ ____
DOCKED: USER                              x       y       z     vdW  Elec       q    Type
DOCKED: USER                           _______ _______ _______ _____ _____    ______ ____
DOCKED: ROOT
DOCKED: ATOM      1  C   UNL     1      17.940 -11.084   2.524 -0.44 +0.00    +0.000 A 
DOCKED: ATOM      2  C   UNL     1      18.276 -11.027   1.165 -0.45 -0.00    +0.000 A 
DOCKED: ATOM      3  C   UNL     1      19.614 -11.151   0.750 -0.57 -0.00    +0.000 A 
DOCKED: ATOM      4  C   UNL     1      20.616 -11.316   1.728 -0.66 -0.00    +0.000 A 
DOCKED: ATOM      5  C   UNL     1      20.278 -11.379   3.083 -0.65 -0.00    +0.000 A 
DOCKED: ATOM      6  C   UNL     1      18.944 -11.269   3.481 -0.43 -0.00    +0.000 A 
DOCKED: ENDROOT
DOCKED: BRANCH   1   8
DOCKED: ATOM      7  O   UNL     1      15.758  -9.527   2.744 -0.40 +0.00    +0.000 OA
DOCKED: ATOM      8  S   UNL     1      16.258 -10.917   3.021 -0.64 +0.00    +0.000 S 
DOCKED: ATOM      9  O   UNL     1      16.162 -11.189   4.495 -0.65 +0.00    +0.000 OA
DOCKED: BRANCH   8  10
DOCKED: ATOM     10  N   UNL     1      15.265 -12.057   2.164 -0.49 +0.00    +0.000 N 
DOCKED: ATOM     11  H   UNL     1      15.115 -12.938   2.575 -0.15 +0.00    +0.000 HD
DOCKED: BRANCH  10  12
DOCKED: ATOM     12  C   UNL     1      14.651 -11.788   0.891 -0.40 +0.00    +0.000 A 
DOCKED: ATOM     13  C   UNL     1      13.334 -11.300   0.785 -0.35 +0.00    +0.000 A 
DOCKED: ATOM     14  C   UNL     1      12.774 -11.042  -0.470 -0.29 +0.00    +0.000 A 
DOCKED: ATOM     15  C   UNL     1      13.517 -11.272  -1.629 -0.29 -0.00    +0.000 A 
DOCKED: ATOM     16  C   UNL     1      14.821 -11.763  -1.537 -0.33 +0.00    +0.000 A 
DOCKED: ATOM     17  C   UNL     1      15.386 -12.021  -0.284 -0.41 +0.00    +0.000 A 
DOCKED: ENDBRANCH  10  12
DOCKED: ENDBRANCH   8  10
DOCKED: ENDBRANCH   1   8
DOCKED: BRANCH   3  18
DOCKED: ATOM     18  C   UNL     1      19.917 -11.061  -0.700 -0.49 -0.00    +0.000 C 
DOCKED: ATOM     19  C   UNL     1      19.019 -10.692  -1.626 -0.43 -0.00    +0.000 C 
DOCKED: BRANCH  19  20
DOCKED: ATOM     20  C   UNL     1      19.325 -10.605  -3.068 -0.42 -0.00    +0.000 C 
DOCKED: ATOM     21  N   UNL     1      19.522 -11.767  -3.884 -0.41 -0.00    +0.000 N 
DOCKED: ATOM     22  O   UNL     1      19.444  -9.462  -3.588 -0.31 -0.00    +0.000 OA
DOCKED: ATOM     23  H   UNL     1      19.545 -12.660  -3.469 -0.07 -0.00    +0.000 HD
DOCKED: BRANCH  21  24
DOCKED: ATOM     24  O   UNL     1      19.673 -11.641  -5.225 -0.54 -0.00    +0.000 OA
DOCKED: ATOM     25  H   UNL     1      19.755 -10.702  -5.454 -0.01 -0.00    +0.000 HD
DOCKED: ENDBRANCH  21  24
DOCKED: ENDBRANCH  19  20
DOCKED: ENDBRANCH   3  18
DOCKED: TORSDOF 6
DOCKED: TER
DOCKED: ENDMDL
________________________________________________________________________________


	BEGINNING GENETIC ALGORITHM DOCKING 84 of 100
Run: 84 Seed: 1963633202 1244302164 [ Run 84 of 100 GA/GALS ]
Beginning LAMARCKIAN GENETIC ALGORITHM (LGA), with a maximum of 2500000 energy evaluations.

Final-Value: -13.349


	FINAL GENETIC ALGORITHM DOCKED STATE
	_______________________________________________


Detailed state:  trans 20.172 -8.224 -0.952 quatxyzw 0.214461 -0.185599 -0.436935 -0.853608 center 0.320 0.169 0.303 ntor 6 46.1570 -164.3566 -149.8332 -150.1196 139.7139 -13.7436
State:	 20.172  -8.224  -0.952   0.412 -0.356 -0.839 -62.787     46.16 -164.36 -149.83 -150.12  139.71  -13.74

DOCKED: MODEL       84
DOCKED: USER    Run = 84
DOCKED: USER    DPF = ligand_dock.biased.dpf
DOCKED: USER  
DOCKED: USER    Estimated Free Energy of Binding    =  -10.33 kcal/mol  [=(1)+(2)+(3)-(4)]
DOCKED: USER    Estimated Inhibition Constant, Ki   =   26.98 nM (nanomolar)  [Temperature = 298.15 K]
DOCKED: USER    
DOCKED: USER    (1) Final Intermolecular Energy     =  -12.12 kcal/mol
DOCKED: USER        vdW + Hbond + desolv Energy     =  -12.12 kcal/mol
DOCKED: USER        Electrostatic Energy            =   +0.00 kcal/mol
DOCKED: USER    (2) Final Total Internal Energy     =   -1.23 kcal/mol
DOCKED: USER    (3) Torsional Free Energy           =   +1.79 kcal/mol
DOCKED: USER    (4) Unbound System's Energy  [=(2)] =   -1.23 kcal/mol
DOCKED: USER    
DOCKED: USER    
DOCKED: USER    NEWDPF move ligand.pdbqt
DOCKED: USER    NEWDPF about 0.320000 0.169000 0.303000
DOCKED: USER    NEWDPF tran0 20.172131 -8.224197 -0.951776
DOCKED: USER    NEWDPF quaternion0 0.214461 -0.185599 -0.436935 -0.853608
DOCKED: USER    NEWDPF axisangle0 0.411700 -0.356294 -0.838783 -62.787409
DOCKED: USER    NEWDPF quat0 0.411700 -0.356294 -0.838783 -62.787409
DOCKED: USER    NEWDPF dihe0 46.16 -164.36 -149.83 -150.12 139.71 -13.74 
DOCKED: USER  keepresnum = 1 
DOCKED: USER  
DOCKED: REMARK  Name = 
DOCKED: REMARK  6 active torsions:
DOCKED: REMARK  status: ('A' for Active; 'I' for Inactive)
DOCKED: REMARK    1  A    between atoms: S_2  and  N_3
DOCKED: REMARK    2  A    between atoms: S_2  and  C_10
DOCKED: REMARK    3  A    between atoms: N_3  and  C_4
DOCKED: REMARK    4  A    between atoms: C_12  and  C_13
DOCKED: REMARK    5  A    between atoms: C_14  and  C_15
DOCKED: REMARK    6  A    between atoms: N_16  and  O_17
DOCKED: REMARK                            x       y       z     vdW  Elec       q    Type
DOCKED: REMARK                         _______ _______ _______ _____ _____    ______ ____
DOCKED: USER                              x       y       z     vdW  Elec       q    Type
DOCKED: USER                           _______ _______ _______ _____ _____    ______ ____
DOCKED: ROOT
DOCKED: ATOM      1  C   UNL     1      21.373  -7.141  -2.660 -0.40 -0.00    +0.000 A 
DOCKED: ATOM      2  C   UNL     1      21.108  -8.034  -1.614 -0.40 -0.00    +0.000 A 
DOCKED: ATOM      3  C   UNL     1      20.891  -9.398  -1.872 -0.51 -0.00    +0.000 A 
DOCKED: ATOM      4  C   UNL     1      20.928  -9.852  -3.206 -0.45 -0.00    +0.000 A 
DOCKED: ATOM      5  C   UNL     1      21.200  -8.961  -4.248 -0.33 -0.00    +0.000 A 
DOCKED: ATOM      6  C   UNL     1      21.427  -7.610  -3.977 -0.29 -0.00    +0.000 A 
DOCKED: ENDROOT
DOCKED: BRANCH   1   8
DOCKED: ATOM      7  O   UNL     1      21.628  -4.627  -3.584 -0.19 -0.00    +0.000 OA
DOCKED: ATOM      8  S   UNL     1      21.632  -5.433  -2.314 -0.52 -0.00    +0.000 S 
DOCKED: ATOM      9  O   UNL     1      22.963  -5.274  -1.637 -0.66 +0.00    +0.000 OA
DOCKED: BRANCH   8  10
DOCKED: ATOM     10  N   UNL     1      20.382  -4.839  -1.265 -0.43 -0.00    +0.000 N 
DOCKED: ATOM     11  H   UNL     1      19.525  -5.323  -1.248 -0.03 -0.00    +0.000 HD
DOCKED: BRANCH  10  12
DOCKED: ATOM     12  C   UNL     1      20.525  -3.683  -0.419 -0.37 +0.00    +0.000 A 
DOCKED: ATOM     13  C   UNL     1      19.518  -3.288   0.483 -0.07 +0.00    +0.000 A 
DOCKED: ATOM     14  C   UNL     1      19.697  -2.164   1.295 -0.39 -0.00    +0.000 A 
DOCKED: ATOM     15  C   UNL     1      20.876  -1.421   1.212 -0.37 -0.00    +0.000 A 
DOCKED: ATOM     16  C   UNL     1      21.878  -1.798   0.316 -0.32 -0.00    +0.000 A 
DOCKED: ATOM     17  C   UNL     1      21.704  -2.922  -0.497 -0.34 +0.00    +0.000 A 
DOCKED: ENDBRANCH  10  12
DOCKED: ENDBRANCH   8  10
DOCKED: ENDBRANCH   1   8
DOCKED: BRANCH   3  18
DOCKED: ATOM     18  C   UNL     1      20.592 -10.296  -0.729 -0.64 -0.00    +0.000 C 
DOCKED: ATOM     19  C   UNL     1      20.871  -9.993   0.548 -0.62 -0.00    +0.000 C 
DOCKED: BRANCH  19  20
DOCKED: ATOM     20  C   UNL     1      20.571 -10.891   1.683 -0.70 -0.00    +0.000 C 
DOCKED: ATOM     21  N   UNL     1      20.643 -10.456   3.047 -0.58 -0.00    +0.000 N 
DOCKED: ATOM     22  O   UNL     1      20.268 -12.089   1.436 -1.61 -0.00    +0.000 OA
DOCKED: ATOM     23  H   UNL     1      20.989  -9.558   3.258 -0.60 -0.00    +0.000 HD
DOCKED: BRANCH  21  24
DOCKED: ATOM     24  O   UNL     1      20.236 -11.275   4.046 -0.82 -0.00    +0.000 OA
DOCKED: ATOM     25  H   UNL     1      20.601 -12.162   3.905 -0.50 -0.00    +0.000 HD
DOCKED: ENDBRANCH  21  24
DOCKED: ENDBRANCH  19  20
DOCKED: ENDBRANCH   3  18
DOCKED: TORSDOF 6
DOCKED: TER
DOCKED: ENDMDL
________________________________________________________________________________


	BEGINNING GENETIC ALGORITHM DOCKING 85 of 100
Run: 85 Seed: 950060708 1104021577 [ Run 85 of 100 GA/GALS ]
Beginning LAMARCKIAN GENETIC ALGORITHM (LGA), with a maximum of 2500000 energy evaluations.

Final-Value: -12.884


	FINAL GENETIC ALGORITHM DOCKED STATE
	_______________________________________________


Detailed state:  trans 21.764 -10.646 -2.604 quatxyzw 0.152581 -0.278758 0.907170 -0.275783 center 0.320 0.169 0.303 ntor 6 -57.0619 -179.8369 143.0894 1.6375 -166.6356 149.1055
State:	 21.764 -10.646  -2.604   0.159 -0.290  0.944 -147.983    -57.06 -179.84  143.09    1.64 -166.64  149.11

DOCKED: MODEL       85
DOCKED: USER    Run = 85
DOCKED: USER    DPF = ligand_dock.biased.dpf
DOCKED: USER  
DOCKED: USER    Estimated Free Energy of Binding    =   -9.70 kcal/mol  [=(1)+(2)+(3)-(4)]
DOCKED: USER    Estimated Inhibition Constant, Ki   =   77.77 nM (nanomolar)  [Temperature = 298.15 K]
DOCKED: USER    
DOCKED: USER    (1) Final Intermolecular Energy     =  -11.49 kcal/mol
DOCKED: USER        vdW + Hbond + desolv Energy     =  -11.49 kcal/mol
DOCKED: USER        Electrostatic Energy            =   +0.00 kcal/mol
DOCKED: USER    (2) Final Total Internal Energy     =   -1.40 kcal/mol
DOCKED: USER    (3) Torsional Free Energy           =   +1.79 kcal/mol
DOCKED: USER    (4) Unbound System's Energy  [=(2)] =   -1.40 kcal/mol
DOCKED: USER    
DOCKED: USER    
DOCKED: USER    NEWDPF move ligand.pdbqt
DOCKED: USER    NEWDPF about 0.320000 0.169000 0.303000
DOCKED: USER    NEWDPF tran0 21.763550 -10.646028 -2.604336
DOCKED: USER    NEWDPF quaternion0 0.152581 -0.278758 0.907170 -0.275783
DOCKED: USER    NEWDPF axisangle0 0.158736 -0.290005 0.943769 -147.982594
DOCKED: USER    NEWDPF quat0 0.158736 -0.290005 0.943769 -147.982594
DOCKED: USER    NEWDPF dihe0 -57.06 -179.84 143.09 1.64 -166.64 149.11 
DOCKED: USER  keepresnum = 1 
DOCKED: USER  
DOCKED: REMARK  Name = 
DOCKED: REMARK  6 active torsions:
DOCKED: REMARK  status: ('A' for Active; 'I' for Inactive)
DOCKED: REMARK    1  A    between atoms: S_2  and  N_3
DOCKED: REMARK    2  A    between atoms: S_2  and  C_10
DOCKED: REMARK    3  A    between atoms: N_3  and  C_4
DOCKED: REMARK    4  A    between atoms: C_12  and  C_13
DOCKED: REMARK    5  A    between atoms: C_14  and  C_15
DOCKED: REMARK    6  A    between atoms: N_16  and  O_17
DOCKED: REMARK                            x       y       z     vdW  Elec       q    Type
DOCKED: REMARK                         _______ _______ _______ _____ _____    ______ ____
DOCKED: USER                              x       y       z     vdW  Elec       q    Type
DOCKED: USER                           _______ _______ _______ _____ _____    ______ ____
DOCKED: ROOT
DOCKED: ATOM      1  C   UNL     1      21.577  -9.826  -4.802 -0.36 -0.00    +0.000 A 
DOCKED: ATOM      2  C   UNL     1      21.196 -10.164  -3.496 -0.46 -0.00    +0.000 A 
DOCKED: ATOM      3  C   UNL     1      21.022  -9.168  -2.519 -0.46 -0.00    +0.000 A 
DOCKED: ATOM      4  C   UNL     1      21.253  -7.823  -2.871 -0.39 -0.00    +0.000 A 
DOCKED: ATOM      5  C   UNL     1      21.625  -7.487  -4.175 -0.26 -0.00    +0.000 A 
DOCKED: ATOM      6  C   UNL     1      21.782  -8.484  -5.140 -0.24 -0.00    +0.000 A 
DOCKED: ENDROOT
DOCKED: BRANCH   1   8
DOCKED: ATOM      7  O   UNL     1      21.671 -12.451  -5.381 -0.81 -0.00    +0.000 OA
DOCKED: ATOM      8  S   UNL     1      21.799 -11.091  -6.008 -0.59 -0.00    +0.000 S 
DOCKED: ATOM      9  O   UNL     1      23.170 -10.953  -6.604 -0.43 -0.00    +0.000 OA
DOCKED: BRANCH   8  10
DOCKED: ATOM     10  N   UNL     1      20.611 -10.934  -7.265 -0.25 -0.00    +0.000 N 
DOCKED: ATOM     11  H   UNL     1      20.925 -10.920  -8.198 -0.07 -0.00    +0.000 HD
DOCKED: BRANCH  10  12
DOCKED: ATOM     12  C   UNL     1      19.197 -10.823  -7.023 -0.29 -0.00    +0.000 A 
DOCKED: ATOM     13  C   UNL     1      18.291 -10.468  -8.042 -0.23 -0.00    +0.000 A 
DOCKED: ATOM     14  C   UNL     1      16.922 -10.379  -7.771 -0.20 -0.00    +0.000 A 
DOCKED: ATOM     15  C   UNL     1      16.444 -10.637  -6.485 -0.23 -0.00    +0.000 A 
DOCKED: ATOM     16  C   UNL     1      17.333 -10.981  -5.465 -0.24 -0.00    +0.000 A 
DOCKED: ATOM     17  C   UNL     1      18.703 -11.073  -5.732 -0.35 -0.00    +0.000 A 
DOCKED: ENDBRANCH  10  12
DOCKED: ENDBRANCH   8  10
DOCKED: ENDBRANCH   1   8
DOCKED: BRANCH   3  18
DOCKED: ATOM     18  C   UNL     1      20.640  -9.583  -1.146 -0.59 -0.00    +0.000 C 
DOCKED: ATOM     19  C   UNL     1      21.060 -10.718  -0.568 -0.63 -0.00    +0.000 C 
DOCKED: BRANCH  19  20
DOCKED: ATOM     20  C   UNL     1      20.677 -11.127   0.799 -0.71 -0.00    +0.000 C 
DOCKED: ATOM     21  N   UNL     1      20.065 -12.393   1.080 -0.62 -0.00    +0.000 N 
DOCKED: ATOM     22  O   UNL     1      20.873 -10.316   1.744 -0.65 -0.00    +0.000 OA
DOCKED: ATOM     23  H   UNL     1      19.802 -12.986   0.339 -0.48 -0.00    +0.000 HD
DOCKED: BRANCH  21  24
DOCKED: ATOM     24  O   UNL     1      19.849 -12.776   2.362 -1.37 -0.00    +0.000 OA
DOCKED: ATOM     25  H   UNL     1      20.689 -12.771   2.846 -0.59 -0.00    +0.000 HD
DOCKED: ENDBRANCH  21  24
DOCKED: ENDBRANCH  19  20
DOCKED: ENDBRANCH   3  18
DOCKED: TORSDOF 6
DOCKED: TER
DOCKED: ENDMDL
________________________________________________________________________________


	BEGINNING GENETIC ALGORITHM DOCKING 86 of 100
Run: 86 Seed: 180144348 1444719514 [ Run 86 of 100 GA/GALS ]
Beginning LAMARCKIAN GENETIC ALGORITHM (LGA), with a maximum of 2500000 energy evaluations.

Final-Value: -14.074


	FINAL GENETIC ALGORITHM DOCKED STATE
	_______________________________________________


Detailed state:  trans 21.820 -10.801 -2.064 quatxyzw 0.250819 -0.266710 0.887243 -0.280633 center 0.320 0.169 0.303 ntor 6 37.1217 -87.2683 27.1419 169.5797 134.3715 -128.2342
State:	 21.820 -10.801  -2.064   0.261 -0.278  0.924 -147.404     37.12  -87.27   27.14  169.58  134.37 -128.23

DOCKED: MODEL       86
DOCKED: USER    Run = 86
DOCKED: USER    DPF = ligand_dock.biased.dpf
DOCKED: USER  
DOCKED: USER    Estimated Free Energy of Binding    =  -10.89 kcal/mol  [=(1)+(2)+(3)-(4)]
DOCKED: USER    Estimated Inhibition Constant, Ki   =   10.48 nM (nanomolar)  [Temperature = 298.15 K]
DOCKED: USER    
DOCKED: USER    (1) Final Intermolecular Energy     =  -12.68 kcal/mol
DOCKED: USER        vdW + Hbond + desolv Energy     =  -12.68 kcal/mol
DOCKED: USER        Electrostatic Energy            =   +0.00 kcal/mol
DOCKED: USER    (2) Final Total Internal Energy     =   -1.40 kcal/mol
DOCKED: USER    (3) Torsional Free Energy           =   +1.79 kcal/mol
DOCKED: USER    (4) Unbound System's Energy  [=(2)] =   -1.40 kcal/mol
DOCKED: USER    
DOCKED: USER    
DOCKED: USER    NEWDPF move ligand.pdbqt
DOCKED: USER    NEWDPF about 0.320000 0.169000 0.303000
DOCKED: USER    NEWDPF tran0 21.820319 -10.801139 -2.063834
DOCKED: USER    NEWDPF quaternion0 0.250819 -0.266710 0.887243 -0.280633
DOCKED: USER    NEWDPF axisangle0 0.261320 -0.277876 0.924390 -147.403992
DOCKED: USER    NEWDPF quat0 0.261320 -0.277876 0.924390 -147.403992
DOCKED: USER    NEWDPF dihe0 37.12 -87.27 27.14 169.58 134.37 -128.23 
DOCKED: USER  keepresnum = 1 
DOCKED: USER  
DOCKED: REMARK  Name = 
DOCKED: REMARK  6 active torsions:
DOCKED: REMARK  status: ('A' for Active; 'I' for Inactive)
DOCKED: REMARK    1  A    between atoms: S_2  and  N_3
DOCKED: REMARK    2  A    between atoms: S_2  and  C_10
DOCKED: REMARK    3  A    between atoms: N_3  and  C_4
DOCKED: REMARK    4  A    between atoms: C_12  and  C_13
DOCKED: REMARK    5  A    between atoms: C_14  and  C_15
DOCKED: REMARK    6  A    between atoms: N_16  and  O_17
DOCKED: REMARK                            x       y       z     vdW  Elec       q    Type
DOCKED: REMARK                         _______ _______ _______ _____ _____    ______ ____
DOCKED: USER                              x       y       z     vdW  Elec       q    Type
DOCKED: USER                           _______ _______ _______ _____ _____    ______ ____
DOCKED: ROOT
DOCKED: ATOM      1  C   UNL     1      21.184  -9.907  -4.145 -0.40 -0.00    +0.000 A 
DOCKED: ATOM      2  C   UNL     1      21.075 -10.310  -2.807 -0.49 -0.00    +0.000 A 
DOCKED: ATOM      3  C   UNL     1      21.059  -9.361  -1.771 -0.52 -0.00    +0.000 A 
DOCKED: ATOM      4  C   UNL     1      21.171  -7.994  -2.099 -0.42 -0.00    +0.000 A 
DOCKED: ATOM      5  C   UNL     1      21.272  -7.594  -3.434 -0.34 -0.00    +0.000 A 
DOCKED: ATOM      6  C   UNL     1      21.274  -8.545  -4.455 -0.29 -0.00    +0.000 A 
DOCKED: ENDROOT
DOCKED: BRANCH   1   8
DOCKED: ATOM      7  O   UNL     1      19.831 -11.649  -5.684 -0.51 -0.00    +0.000 OA
DOCKED: ATOM      8  S   UNL     1      21.212 -11.115  -5.427 -0.63 -0.00    +0.000 S 
DOCKED: ATOM      9  O   UNL     1      22.105 -12.246  -5.006 -0.65 -0.00    +0.000 OA
DOCKED: BRANCH   8  10
DOCKED: ATOM     10  N   UNL     1      21.829 -10.415  -6.893 -0.30 -0.00    +0.000 N 
DOCKED: ATOM     11  H   UNL     1      21.316  -9.685  -7.308 +0.00 -0.00    +0.000 HD
DOCKED: BRANCH  10  12
DOCKED: ATOM     12  C   UNL     1      23.045 -10.839  -7.535 -0.34 -0.00    +0.000 A 
DOCKED: ATOM     13  C   UNL     1      24.261 -10.149  -7.363 -0.23 -0.00    +0.000 A 
DOCKED: ATOM     14  C   UNL     1      25.425 -10.597  -7.996 -0.35 -0.00    +0.000 A 
DOCKED: ATOM     15  C   UNL     1      25.387 -11.732  -8.809 -0.38 -0.00    +0.000 A 
DOCKED: ATOM     16  C   UNL     1      24.187 -12.419  -8.994 -0.39 -0.00    +0.000 A 
DOCKED: ATOM     17  C   UNL     1      23.021 -11.976  -8.361 -0.36 -0.00    +0.000 A 
DOCKED: ENDBRANCH  10  12
DOCKED: ENDBRANCH   8  10
DOCKED: ENDBRANCH   1   8
DOCKED: BRANCH   3  18
DOCKED: ATOM     18  C   UNL     1      20.964  -9.843  -0.370 -0.68 -0.00    +0.000 C 
DOCKED: ATOM     19  C   UNL     1      20.432 -11.025  -0.026 -0.61 -0.00    +0.000 C 
DOCKED: BRANCH  19  20
DOCKED: ATOM     20  C   UNL     1      20.340 -11.501   1.370 -0.76 -0.00    +0.000 C 
DOCKED: ATOM     21  N   UNL     1      20.643 -10.659   2.491 -0.62 -0.00    +0.000 N 
DOCKED: ATOM     22  O   UNL     1      20.009 -12.700   1.575 -1.51 -0.00    +0.000 OA
DOCKED: ATOM     23  H   UNL     1      21.012  -9.759   2.342 -0.58 -0.00    +0.000 HD
DOCKED: BRANCH  21  24
DOCKED: ATOM     24  O   UNL     1      20.421 -11.099   3.753 -0.82 -0.00    +0.000 OA
DOCKED: ATOM     25  H   UNL     1      20.632 -12.044   3.808 -0.50 -0.00    +0.000 HD
DOCKED: ENDBRANCH  21  24
DOCKED: ENDBRANCH  19  20
DOCKED: ENDBRANCH   3  18
DOCKED: TORSDOF 6
DOCKED: TER
DOCKED: ENDMDL
________________________________________________________________________________


	BEGINNING GENETIC ALGORITHM DOCKING 87 of 100
Run: 87 Seed: 383678879 1940849219 [ Run 87 of 100 GA/GALS ]
Beginning LAMARCKIAN GENETIC ALGORITHM (LGA), with a maximum of 2500000 energy evaluations.

Final-Value: -12.988


	FINAL GENETIC ALGORITHM DOCKED STATE
	_______________________________________________


Detailed state:  trans 14.471 -8.409 1.938 quatxyzw -0.588098 -0.437192 -0.089157 -0.674578 center 0.320 0.169 0.303 ntor 6 0.7129 91.5848 -47.8212 32.4562 -22.1277 157.4102
State:	 14.471  -8.409   1.938  -0.797 -0.592 -0.121 -95.157      0.71   91.58  -47.82   32.46  -22.13  157.41

DOCKED: MODEL       87
DOCKED: USER    Run = 87
DOCKED: USER    DPF = ligand_dock.biased.dpf
DOCKED: USER  
DOCKED: USER    Estimated Free Energy of Binding    =   -9.47 kcal/mol  [=(1)+(2)+(3)-(4)]
DOCKED: USER    Estimated Inhibition Constant, Ki   =  113.96 nM (nanomolar)  [Temperature = 298.15 K]
DOCKED: USER    
DOCKED: USER    (1) Final Intermolecular Energy     =  -11.26 kcal/mol
DOCKED: USER        vdW + Hbond + desolv Energy     =  -11.26 kcal/mol
DOCKED: USER        Electrostatic Energy            =   +0.00 kcal/mol
DOCKED: USER    (2) Final Total Internal Energy     =   -1.73 kcal/mol
DOCKED: USER    (3) Torsional Free Energy           =   +1.79 kcal/mol
DOCKED: USER    (4) Unbound System's Energy  [=(2)] =   -1.73 kcal/mol
DOCKED: USER    
DOCKED: USER    
DOCKED: USER    NEWDPF move ligand.pdbqt
DOCKED: USER    NEWDPF about 0.320000 0.169000 0.303000
DOCKED: USER    NEWDPF tran0 14.470865 -8.408988 1.938035
DOCKED: USER    NEWDPF quaternion0 -0.588098 -0.437192 -0.089157 -0.674578
DOCKED: USER    NEWDPF axisangle0 -0.796661 -0.592237 -0.120776 -95.157273
DOCKED: USER    NEWDPF quat0 -0.796661 -0.592237 -0.120776 -95.157273
DOCKED: USER    NEWDPF dihe0 0.71 91.58 -47.82 32.46 -22.13 157.41 
DOCKED: USER  keepresnum = 1 
DOCKED: USER  
DOCKED: REMARK  Name = 
DOCKED: REMARK  6 active torsions:
DOCKED: REMARK  status: ('A' for Active; 'I' for Inactive)
DOCKED: REMARK    1  A    between atoms: S_2  and  N_3
DOCKED: REMARK    2  A    between atoms: S_2  and  C_10
DOCKED: REMARK    3  A    between atoms: N_3  and  C_4
DOCKED: REMARK    4  A    between atoms: C_12  and  C_13
DOCKED: REMARK    5  A    between atoms: C_14  and  C_15
DOCKED: REMARK    6  A    between atoms: N_16  and  O_17
DOCKED: REMARK                            x       y       z     vdW  Elec       q    Type
DOCKED: REMARK                         _______ _______ _______ _____ _____    ______ ____
DOCKED: USER                              x       y       z     vdW  Elec       q    Type
DOCKED: USER                           _______ _______ _______ _____ _____    ______ ____
DOCKED: ROOT
DOCKED: ATOM      1  C   UNL     1      15.589 -10.421   1.454 -0.30 +0.00    +0.000 A 
DOCKED: ATOM      2  C   UNL     1      15.388  -9.122   1.938 -0.28 +0.00    +0.000 A 
DOCKED: ATOM      3  C   UNL     1      15.258  -8.881   3.316 -0.34 +0.00    +0.000 A 
DOCKED: ATOM      4  C   UNL     1      15.315  -9.974   4.205 -0.39 +0.00    +0.000 A 
DOCKED: ATOM      5  C   UNL     1      15.524 -11.268   3.721 -0.47 +0.00    +0.000 A 
DOCKED: ATOM      6  C   UNL     1      15.665 -11.493   2.351 -0.43 +0.00    +0.000 A 
DOCKED: ENDROOT
DOCKED: BRANCH   1   8
DOCKED: ATOM      7  O   UNL     1      15.679  -9.402  -1.034 -0.28 -0.00    +0.000 OA
DOCKED: ATOM      8  S   UNL     1      15.741 -10.701  -0.279 -0.41 +0.00    +0.000 S 
DOCKED: ATOM      9  O   UNL     1      14.610 -11.582  -0.726 -0.38 +0.00    +0.000 OA
DOCKED: BRANCH   8  10
DOCKED: ATOM     10  N   UNL     1      17.250 -11.487  -0.628 -0.36 -0.00    +0.000 N 
DOCKED: ATOM     11  H   UNL     1      17.332 -11.971  -1.481 +0.01 -0.00    +0.000 HD
DOCKED: BRANCH  10  12
DOCKED: ATOM     12  C   UNL     1      18.386 -11.472   0.255 -0.46 -0.00    +0.000 A 
DOCKED: ATOM     13  C   UNL     1      18.480 -12.335   1.365 -0.48 -0.00    +0.000 A 
DOCKED: ATOM     14  C   UNL     1      19.604 -12.298   2.196 -0.60 -0.00    +0.000 A 
DOCKED: ATOM     15  C   UNL     1      20.641 -11.399   1.933 -0.67 -0.00    +0.000 A 
DOCKED: ATOM     16  C   UNL     1      20.555 -10.534   0.841 -0.61 -0.00    +0.000 A 
DOCKED: ATOM     17  C   UNL     1      19.433 -10.569   0.006 -0.46 -0.00    +0.000 A 
DOCKED: ENDBRANCH  10  12
DOCKED: ENDBRANCH   8  10
DOCKED: ENDBRANCH   1   8
DOCKED: BRANCH   3  18
DOCKED: ATOM     18  C   UNL     1      15.024  -7.489   3.773 -0.38 +0.00    +0.000 C 
DOCKED: ATOM     19  C   UNL     1      14.864  -7.145   5.060 -0.45 +0.00    +0.000 C 
DOCKED: BRANCH  19  20
DOCKED: ATOM     20  C   UNL     1      14.631  -5.757   5.510 -0.47 +0.00    +0.000 C 
DOCKED: ATOM     21  N   UNL     1      15.621  -4.729   5.373 -0.50 +0.00    +0.000 N 
DOCKED: ATOM     22  O   UNL     1      13.530  -5.481   6.058 -1.00 +0.00    +0.000 OA
DOCKED: ATOM     23  H   UNL     1      16.524  -4.956   5.053 -0.59 -0.00    +0.000 HD
DOCKED: BRANCH  21  24
DOCKED: ATOM     24  O   UNL     1      15.317  -3.445   5.681 -0.56 +0.00    +0.000 OA
DOCKED: ATOM     25  H   UNL     1      14.398  -3.395   5.987 -0.41 +0.00    +0.000 HD
DOCKED: ENDBRANCH  21  24
DOCKED: ENDBRANCH  19  20
DOCKED: ENDBRANCH   3  18
DOCKED: TORSDOF 6
DOCKED: TER
DOCKED: ENDMDL
________________________________________________________________________________


	BEGINNING GENETIC ALGORITHM DOCKING 88 of 100
Run: 88 Seed: 1794020675 1826447471 [ Run 88 of 100 GA/GALS ]
Beginning LAMARCKIAN GENETIC ALGORITHM (LGA), with a maximum of 2500000 energy evaluations.

Final-Value: -13.917


	FINAL GENETIC ALGORITHM DOCKED STATE
	_______________________________________________


Detailed state:  trans 21.956 -10.890 -2.143 quatxyzw 0.274205 -0.292055 0.870096 -0.287140 center 0.320 0.169 0.303 ntor 6 41.6419 49.3918 56.2903 -4.4049 107.3846 153.3322
State:	 21.956 -10.890  -2.143   0.286 -0.305  0.908 -146.626     41.64   49.39   56.29   -4.40  107.38  153.33

DOCKED: MODEL       88
DOCKED: USER    Run = 88
DOCKED: USER    DPF = ligand_dock.biased.dpf
DOCKED: USER  
DOCKED: USER    Estimated Free Energy of Binding    =  -10.56 kcal/mol  [=(1)+(2)+(3)-(4)]
DOCKED: USER    Estimated Inhibition Constant, Ki   =   18.18 nM (nanomolar)  [Temperature = 298.15 K]
DOCKED: USER    
DOCKED: USER    (1) Final Intermolecular Energy     =  -12.35 kcal/mol
DOCKED: USER        vdW + Hbond + desolv Energy     =  -12.35 kcal/mol
DOCKED: USER        Electrostatic Energy            =   +0.00 kcal/mol
DOCKED: USER    (2) Final Total Internal Energy     =   -1.57 kcal/mol
DOCKED: USER    (3) Torsional Free Energy           =   +1.79 kcal/mol
DOCKED: USER    (4) Unbound System's Energy  [=(2)] =   -1.57 kcal/mol
DOCKED: USER    
DOCKED: USER    
DOCKED: USER    NEWDPF move ligand.pdbqt
DOCKED: USER    NEWDPF about 0.320000 0.169000 0.303000
DOCKED: USER    NEWDPF tran0 21.955541 -10.889559 -2.142703
DOCKED: USER    NEWDPF quaternion0 0.274205 -0.292055 0.870096 -0.287140
DOCKED: USER    NEWDPF axisangle0 0.286260 -0.304895 0.908347 -146.626430
DOCKED: USER    NEWDPF quat0 0.286260 -0.304895 0.908347 -146.626430
DOCKED: USER    NEWDPF dihe0 41.64 49.39 56.29 -4.40 107.38 153.33 
DOCKED: USER  keepresnum = 1 
DOCKED: USER  
DOCKED: REMARK  Name = 
DOCKED: REMARK  6 active torsions:
DOCKED: REMARK  status: ('A' for Active; 'I' for Inactive)
DOCKED: REMARK    1  A    between atoms: S_2  and  N_3
DOCKED: REMARK    2  A    between atoms: S_2  and  C_10
DOCKED: REMARK    3  A    between atoms: N_3  and  C_4
DOCKED: REMARK    4  A    between atoms: C_12  and  C_13
DOCKED: REMARK    5  A    between atoms: C_14  and  C_15
DOCKED: REMARK    6  A    between atoms: N_16  and  O_17
DOCKED: REMARK                            x       y       z     vdW  Elec       q    Type
DOCKED: REMARK                         _______ _______ _______ _____ _____    ______ ____
DOCKED: USER                              x       y       z     vdW  Elec       q    Type
DOCKED: USER                           _______ _______ _______ _____ _____    ______ ____
DOCKED: ROOT
DOCKED: ATOM      1  C   UNL     1      21.260  -9.851  -4.136 -0.40 -0.00    +0.000 A 
DOCKED: ATOM      2  C   UNL     1      21.193 -10.336  -2.823 -0.49 -0.00    +0.000 A 
DOCKED: ATOM      3  C   UNL     1      21.239  -9.456  -1.728 -0.52 -0.00    +0.000 A 
DOCKED: ATOM      4  C   UNL     1      21.369  -8.073  -1.973 -0.44 -0.00    +0.000 A 
DOCKED: ATOM      5  C   UNL     1      21.428  -7.590  -3.283 -0.34 -0.00    +0.000 A 
DOCKED: ATOM      6  C   UNL     1      21.368  -8.474  -4.362 -0.30 -0.00    +0.000 A 
DOCKED: ENDROOT
DOCKED: BRANCH   1   8
DOCKED: ATOM      7  O   UNL     1      21.140 -12.394  -5.004 -0.71 -0.00    +0.000 OA
DOCKED: ATOM      8  S   UNL     1      21.211 -10.974  -5.492 -0.60 -0.00    +0.000 S 
DOCKED: ATOM      9  O   UNL     1      22.458 -10.797  -6.309 -0.44 -0.00    +0.000 OA
DOCKED: BRANCH   8  10
DOCKED: ATOM     10  N   UNL     1      19.825 -10.648  -6.488 -0.30 -0.00    +0.000 N 
DOCKED: ATOM     11  H   UNL     1      19.977 -10.445  -7.439 -0.01 -0.00    +0.000 HD
DOCKED: BRANCH  10  12
DOCKED: ATOM     12  C   UNL     1      18.470 -10.659  -6.005 -0.30 -0.00    +0.000 A 
DOCKED: ATOM     13  C   UNL     1      18.126 -10.165  -4.731 -0.25 -0.00    +0.000 A 
DOCKED: ATOM     14  C   UNL     1      16.796 -10.184  -4.300 -0.21 -0.00    +0.000 A 
DOCKED: ATOM     15  C   UNL     1      15.798 -10.699  -5.130 -0.22 -0.00    +0.000 A 
DOCKED: ATOM     16  C   UNL     1      16.127 -11.199  -6.391 -0.27 -0.00    +0.000 A 
DOCKED: ATOM     17  C   UNL     1      17.456 -11.180  -6.827 -0.33 -0.00    +0.000 A 
DOCKED: ENDBRANCH  10  12
DOCKED: ENDBRANCH   8  10
DOCKED: ENDBRANCH   1   8
DOCKED: BRANCH   3  18
DOCKED: ATOM     18  C   UNL     1      21.187 -10.025  -0.359 -0.70 -0.00    +0.000 C 
DOCKED: ATOM     19  C   UNL     1      20.250 -10.894   0.050 -0.65 -0.00    +0.000 C 
DOCKED: BRANCH  19  20
DOCKED: ATOM     20  C   UNL     1      20.203 -11.458   1.415 -0.75 -0.00    +0.000 C 
DOCKED: ATOM     21  N   UNL     1      20.526 -10.684   2.578 -0.64 -0.00    +0.000 N 
DOCKED: ATOM     22  O   UNL     1      19.894 -12.672   1.552 -1.56 -0.00    +0.000 OA
DOCKED: ATOM     23  H   UNL     1      20.879  -9.771   2.477 -0.58 -0.00    +0.000 HD
DOCKED: BRANCH  21  24
DOCKED: ATOM     24  O   UNL     1      20.346 -11.206   3.816 -0.82 -0.00    +0.000 OA
DOCKED: ATOM     25  H   UNL     1      20.638 -12.130   3.822 -0.51 -0.00    +0.000 HD
DOCKED: ENDBRANCH  21  24
DOCKED: ENDBRANCH  19  20
DOCKED: ENDBRANCH   3  18
DOCKED: TORSDOF 6
DOCKED: TER
DOCKED: ENDMDL
________________________________________________________________________________


	BEGINNING GENETIC ALGORITHM DOCKING 89 of 100
Run: 89 Seed: 1240908620 418652157 [ Run 89 of 100 GA/GALS ]
Beginning LAMARCKIAN GENETIC ALGORITHM (LGA), with a maximum of 2500000 energy evaluations.

Final-Value: -13.219


	FINAL GENETIC ALGORITHM DOCKED STATE
	_______________________________________________


Detailed state:  trans 16.569 -8.094 4.137 quatxyzw 0.245152 -0.752583 0.241449 0.561446 center 0.320 0.169 0.303 ntor 6 -4.9327 -10.9043 49.1841 -170.7401 -6.5111 9.5687
State:	 16.569  -8.094   4.137   0.296 -0.909  0.292 111.688     -4.93  -10.90   49.18 -170.74   -6.51    9.57

DOCKED: MODEL       89
DOCKED: USER    Run = 89
DOCKED: USER    DPF = ligand_dock.biased.dpf
DOCKED: USER  
DOCKED: USER    Estimated Free Energy of Binding    =  -10.04 kcal/mol  [=(1)+(2)+(3)-(4)]
DOCKED: USER    Estimated Inhibition Constant, Ki   =   43.37 nM (nanomolar)  [Temperature = 298.15 K]
DOCKED: USER    
DOCKED: USER    (1) Final Intermolecular Energy     =  -11.83 kcal/mol
DOCKED: USER        vdW + Hbond + desolv Energy     =  -11.83 kcal/mol
DOCKED: USER        Electrostatic Energy            =   +0.00 kcal/mol
DOCKED: USER    (2) Final Total Internal Energy     =   -1.38 kcal/mol
DOCKED: USER    (3) Torsional Free Energy           =   +1.79 kcal/mol
DOCKED: USER    (4) Unbound System's Energy  [=(2)] =   -1.38 kcal/mol
DOCKED: USER    
DOCKED: USER    
DOCKED: USER    NEWDPF move ligand.pdbqt
DOCKED: USER    NEWDPF about 0.320000 0.169000 0.303000
DOCKED: USER    NEWDPF tran0 16.568758 -8.094374 4.137429
DOCKED: USER    NEWDPF quaternion0 0.245152 -0.752583 0.241449 0.561446
DOCKED: USER    NEWDPF axisangle0 0.296251 -0.909451 0.291777 111.688330
DOCKED: USER    NEWDPF quat0 0.296251 -0.909451 0.291777 111.688330
DOCKED: USER    NEWDPF dihe0 -4.93 -10.90 49.18 -170.74 -6.51 9.57 
DOCKED: USER  keepresnum = 1 
DOCKED: USER  
DOCKED: REMARK  Name = 
DOCKED: REMARK  6 active torsions:
DOCKED: REMARK  status: ('A' for Active; 'I' for Inactive)
DOCKED: REMARK    1  A    between atoms: S_2  and  N_3
DOCKED: REMARK    2  A    between atoms: S_2  and  C_10
DOCKED: REMARK    3  A    between atoms: N_3  and  C_4
DOCKED: REMARK    4  A    between atoms: C_12  and  C_13
DOCKED: REMARK    5  A    between atoms: C_14  and  C_15
DOCKED: REMARK    6  A    between atoms: N_16  and  O_17
DOCKED: REMARK                            x       y       z     vdW  Elec       q    Type
DOCKED: REMARK                         _______ _______ _______ _____ _____    ______ ____
DOCKED: USER                              x       y       z     vdW  Elec       q    Type
DOCKED: USER                           _______ _______ _______ _____ _____    ______ ____
DOCKED: ROOT
DOCKED: ATOM      1  C   UNL     1      14.459  -7.246   4.742 -0.36 +0.00    +0.000 A 
DOCKED: ATOM      2  C   UNL     1      15.438  -7.888   3.971 -0.34 +0.00    +0.000 A 
DOCKED: ATOM      3  C   UNL     1      15.457  -9.289   3.858 -0.35 +0.00    +0.000 A 
DOCKED: ATOM      4  C   UNL     1      14.484 -10.041   4.549 -0.36 +0.00    +0.000 A 
DOCKED: ATOM      5  C   UNL     1      13.505  -9.398   5.310 -0.40 +0.00    +0.000 A 
DOCKED: ATOM      6  C   UNL     1      13.487  -8.005   5.404 -0.38 +0.00    +0.000 A 
DOCKED: ENDROOT
DOCKED: BRANCH   1   8
DOCKED: ATOM      7  O   UNL     1      13.996  -5.062   6.242 -1.00 +0.00    +0.000 OA
DOCKED: ATOM      8  S   UNL     1      14.459  -5.490   4.877 -0.53 +0.00    +0.000 S 
DOCKED: ATOM      9  O   UNL     1      13.527  -4.926   3.844 -0.23 +0.00    +0.000 OA
DOCKED: BRANCH   8  10
DOCKED: ATOM     10  N   UNL     1      16.059  -4.869   4.603 -0.41 -0.00    +0.000 N 
DOCKED: ATOM     11  H   UNL     1      16.814  -5.334   5.030 -0.63 -0.00    +0.000 HD
DOCKED: BRANCH  10  12
DOCKED: ATOM     12  C   UNL     1      16.344  -3.717   3.790 -0.38 -0.00    +0.000 A 
DOCKED: ATOM     13  C   UNL     1      15.455  -3.265   2.795 -0.30 -0.00    +0.000 A 
DOCKED: ATOM     14  C   UNL     1      15.763  -2.136   2.031 -0.28 -0.00    +0.000 A 
DOCKED: ATOM     15  C   UNL     1      16.960  -1.450   2.245 -0.33 -0.00    +0.000 A 
DOCKED: ATOM     16  C   UNL     1      17.853  -1.892   3.223 -0.40 -0.00    +0.000 A 
DOCKED: ATOM     17  C   UNL     1      17.548  -3.020   3.991 -0.34 -0.00    +0.000 A 
DOCKED: ENDBRANCH  10  12
DOCKED: ENDBRANCH   8  10
DOCKED: ENDBRANCH   1   8
DOCKED: BRANCH   3  18
DOCKED: ATOM     18  C   UNL     1      16.529  -9.919   3.048 -0.46 +0.00    +0.000 C 
DOCKED: ATOM     19  C   UNL     1      16.496 -11.196   2.635 -0.46 +0.00    +0.000 C 
DOCKED: BRANCH  19  20
DOCKED: ATOM     20  C   UNL     1      17.566 -11.818   1.828 -0.31 +0.00    +0.000 C 
DOCKED: ATOM     21  N   UNL     1      18.940 -11.423   1.938 -0.54 -0.00    +0.000 N 
DOCKED: ATOM     22  O   UNL     1      17.248 -12.709   0.995 -1.05 +0.00    +0.000 OA
DOCKED: ATOM     23  H   UNL     1      19.186 -10.653   2.499 -0.02 -0.00    +0.000 HD
DOCKED: BRANCH  21  24
DOCKED: ATOM     24  O   UNL     1      19.901 -12.109   1.273 -1.56 -0.00    +0.000 OA
DOCKED: ATOM     25  H   UNL     1      19.505 -12.878   0.836 -0.41 -0.00    +0.000 HD
DOCKED: ENDBRANCH  21  24
DOCKED: ENDBRANCH  19  20
DOCKED: ENDBRANCH   3  18
DOCKED: TORSDOF 6
DOCKED: TER
DOCKED: ENDMDL
________________________________________________________________________________


	BEGINNING GENETIC ALGORITHM DOCKING 90 of 100
Run: 90 Seed: 675757091 1963945871 [ Run 90 of 100 GA/GALS ]
Beginning LAMARCKIAN GENETIC ALGORITHM (LGA), with a maximum of 2500000 energy evaluations.

Final-Value: -12.990


	FINAL GENETIC ALGORITHM DOCKED STATE
	_______________________________________________


Detailed state:  trans 18.284 -10.385 -1.302 quatxyzw 0.868353 -0.126864 -0.476239 -0.055365 center 0.320 0.169 0.303 ntor 6 -1.8677 136.5984 145.8118 -27.7821 60.2224 46.0766
State:	 18.284 -10.385  -1.302   0.870 -0.127 -0.477 -173.652     -1.87  136.60  145.81  -27.78   60.22   46.08

DOCKED: MODEL       90
DOCKED: USER    Run = 90
DOCKED: USER    DPF = ligand_dock.biased.dpf
DOCKED: USER  
DOCKED: USER    Estimated Free Energy of Binding    =   -9.47 kcal/mol  [=(1)+(2)+(3)-(4)]
DOCKED: USER    Estimated Inhibition Constant, Ki   =  114.33 nM (nanomolar)  [Temperature = 298.15 K]
DOCKED: USER    
DOCKED: USER    (1) Final Intermolecular Energy     =  -11.26 kcal/mol
DOCKED: USER        vdW + Hbond + desolv Energy     =  -11.26 kcal/mol
DOCKED: USER        Electrostatic Energy            =   +0.00 kcal/mol
DOCKED: USER    (2) Final Total Internal Energy     =   -1.73 kcal/mol
DOCKED: USER    (3) Torsional Free Energy           =   +1.79 kcal/mol
DOCKED: USER    (4) Unbound System's Energy  [=(2)] =   -1.73 kcal/mol
DOCKED: USER    
DOCKED: USER    
DOCKED: USER    NEWDPF move ligand.pdbqt
DOCKED: USER    NEWDPF about 0.320000 0.169000 0.303000
DOCKED: USER    NEWDPF tran0 18.283767 -10.384565 -1.302451
DOCKED: USER    NEWDPF quaternion0 0.868353 -0.126864 -0.476239 -0.055365
DOCKED: USER    NEWDPF axisangle0 0.869687 -0.127059 -0.476971 -173.652363
DOCKED: USER    NEWDPF quat0 0.869687 -0.127059 -0.476971 -173.652363
DOCKED: USER    NEWDPF dihe0 -1.87 136.60 145.81 -27.78 60.22 46.08 
DOCKED: USER  keepresnum = 1 
DOCKED: USER  
DOCKED: REMARK  Name = 
DOCKED: REMARK  6 active torsions:
DOCKED: REMARK  status: ('A' for Active; 'I' for Inactive)
DOCKED: REMARK    1  A    between atoms: S_2  and  N_3
DOCKED: REMARK    2  A    between atoms: S_2  and  C_10
DOCKED: REMARK    3  A    between atoms: N_3  and  C_4
DOCKED: REMARK    4  A    between atoms: C_12  and  C_13
DOCKED: REMARK    5  A    between atoms: C_14  and  C_15
DOCKED: REMARK    6  A    between atoms: N_16  and  O_17
DOCKED: REMARK                            x       y       z     vdW  Elec       q    Type
DOCKED: REMARK                         _______ _______ _______ _____ _____    ______ ____
DOCKED: USER                              x       y       z     vdW  Elec       q    Type
DOCKED: USER                           _______ _______ _______ _____ _____    ______ ____
DOCKED: ROOT
DOCKED: ATOM      1  C   UNL     1      19.872 -10.766   0.391 -0.56 -0.00    +0.000 A 
DOCKED: ATOM      2  C   UNL     1      19.257 -10.845  -0.866 -0.43 -0.00    +0.000 A 
DOCKED: ATOM      3  C   UNL     1      19.782 -10.146  -1.967 -0.40 -0.00    +0.000 A 
DOCKED: ATOM      4  C   UNL     1      20.930  -9.348  -1.782 -0.51 -0.00    +0.000 A 
DOCKED: ATOM      5  C   UNL     1      21.545  -9.277  -0.529 -0.45 -0.00    +0.000 A 
DOCKED: ATOM      6  C   UNL     1      21.023  -9.987   0.553 -0.53 -0.00    +0.000 A 
DOCKED: ENDROOT
DOCKED: BRANCH   1   8
DOCKED: ATOM      7  O   UNL     1      18.569 -10.691   2.743 -0.64 -0.00    +0.000 OA
DOCKED: ATOM      8  S   UNL     1      19.192 -11.643   1.759 -0.83 -0.00    +0.000 S 
DOCKED: ATOM      9  O   UNL     1      20.293 -12.402   2.442 -1.46 -0.00    +0.000 OA
DOCKED: BRANCH   8  10
DOCKED: ATOM     10  N   UNL     1      17.981 -12.761   1.211 -0.47 +0.00    +0.000 N 
DOCKED: ATOM     11  H   UNL     1      18.238 -13.705   1.106 -0.22 -0.00    +0.000 HD
DOCKED: BRANCH  10  12
DOCKED: ATOM     12  C   UNL     1      16.626 -12.389   0.900 -0.43 +0.00    +0.000 A 
DOCKED: ATOM     13  C   UNL     1      16.039 -12.678  -0.347 -0.44 +0.00    +0.000 A 
DOCKED: ATOM     14  C   UNL     1      14.716 -12.309  -0.609 -0.43 +0.00    +0.000 A 
DOCKED: ATOM     15  C   UNL     1      13.968 -11.645   0.365 -0.38 +0.00    +0.000 A 
DOCKED: ATOM     16  C   UNL     1      14.542 -11.346   1.602 -0.39 +0.00    +0.000 A 
DOCKED: ATOM     17  C   UNL     1      15.864 -11.714   1.869 -0.41 +0.00    +0.000 A 
DOCKED: ENDBRANCH  10  12
DOCKED: ENDBRANCH   8  10
DOCKED: ENDBRANCH   1   8
DOCKED: BRANCH   3  18
DOCKED: ATOM     18  C   UNL     1      19.078 -10.246  -3.270 -0.37 -0.00    +0.000 C 
DOCKED: ATOM     19  C   UNL     1      19.456 -11.073  -4.257 -0.45 -0.00    +0.000 C 
DOCKED: BRANCH  19  20
DOCKED: ATOM     20  C   UNL     1      18.752 -11.169  -5.552 -0.40 -0.00    +0.000 C 
DOCKED: ATOM     21  N   UNL     1      19.433 -11.045  -6.808 -0.32 -0.00    +0.000 N 
DOCKED: ATOM     22  O   UNL     1      17.503 -11.339  -5.545 -0.36 -0.00    +0.000 OA
DOCKED: ATOM     23  H   UNL     1      20.386 -10.799  -6.827 -0.04 -0.00    +0.000 HD
DOCKED: BRANCH  21  24
DOCKED: ATOM     24  O   UNL     1      18.769 -11.268  -7.968 -0.32 -0.00    +0.000 OA
DOCKED: ATOM     25  H   UNL     1      17.856 -11.529  -7.773 -0.04 -0.00    +0.000 HD
DOCKED: ENDBRANCH  21  24
DOCKED: ENDBRANCH  19  20
DOCKED: ENDBRANCH   3  18
DOCKED: TORSDOF 6
DOCKED: TER
DOCKED: ENDMDL
________________________________________________________________________________


	BEGINNING GENETIC ALGORITHM DOCKING 91 of 100
Run: 91 Seed: 1918172981 1520221579 [ Run 91 of 100 GA/GALS ]
Beginning LAMARCKIAN GENETIC ALGORITHM (LGA), with a maximum of 2500000 energy evaluations.

Final-Value: -14.240


	FINAL GENETIC ALGORITHM DOCKED STATE
	_______________________________________________


Detailed state:  trans 17.341 -8.958 2.667 quatxyzw 0.078442 0.482458 0.824591 0.284835 center 0.320 0.169 0.303 ntor 6 9.0036 163.2167 -145.4780 4.7713 -174.9672 -66.0004
State:	 17.341  -8.958   2.667   0.082  0.503  0.860 146.902      9.00  163.22 -145.48    4.77 -174.97  -66.00

DOCKED: MODEL       91
DOCKED: USER    Run = 91
DOCKED: USER    DPF = ligand_dock.biased.dpf
DOCKED: USER  
DOCKED: USER    Estimated Free Energy of Binding    =  -10.78 kcal/mol  [=(1)+(2)+(3)-(4)]
DOCKED: USER    Estimated Inhibition Constant, Ki   =   12.44 nM (nanomolar)  [Temperature = 298.15 K]
DOCKED: USER    
DOCKED: USER    (1) Final Intermolecular Energy     =  -12.57 kcal/mol
DOCKED: USER        vdW + Hbond + desolv Energy     =  -12.57 kcal/mol
DOCKED: USER        Electrostatic Energy            =   +0.00 kcal/mol
DOCKED: USER    (2) Final Total Internal Energy     =   -1.67 kcal/mol
DOCKED: USER    (3) Torsional Free Energy           =   +1.79 kcal/mol
DOCKED: USER    (4) Unbound System's Energy  [=(2)] =   -1.67 kcal/mol
DOCKED: USER    
DOCKED: USER    
DOCKED: USER    NEWDPF move ligand.pdbqt
DOCKED: USER    NEWDPF about 0.320000 0.169000 0.303000
DOCKED: USER    NEWDPF tran0 17.341291 -8.957561 2.667198
DOCKED: USER    NEWDPF quaternion0 0.078442 0.482458 0.824591 0.284835
DOCKED: USER    NEWDPF axisangle0 0.081832 0.503307 0.860224 146.902069
DOCKED: USER    NEWDPF quat0 0.081832 0.503307 0.860224 146.902069
DOCKED: USER    NEWDPF dihe0 9.00 163.22 -145.48 4.77 -174.97 -66.00 
DOCKED: USER  keepresnum = 1 
DOCKED: USER  
DOCKED: REMARK  Name = 
DOCKED: REMARK  6 active torsions:
DOCKED: REMARK  status: ('A' for Active; 'I' for Inactive)
DOCKED: REMARK    1  A    between atoms: S_2  and  N_3
DOCKED: REMARK    2  A    between atoms: S_2  and  C_10
DOCKED: REMARK    3  A    between atoms: N_3  and  C_4
DOCKED: REMARK    4  A    between atoms: C_12  and  C_13
DOCKED: REMARK    5  A    between atoms: C_14  and  C_15
DOCKED: REMARK    6  A    between atoms: N_16  and  O_17
DOCKED: REMARK                            x       y       z     vdW  Elec       q    Type
DOCKED: REMARK                         _______ _______ _______ _____ _____    ______ ____
DOCKED: USER                              x       y       z     vdW  Elec       q    Type
DOCKED: USER                           _______ _______ _______ _____ _____    ______ ____
DOCKED: ROOT
DOCKED: ATOM      1  C   UNL     1      18.302 -10.851   1.654 -0.46 -0.00    +0.000 A 
DOCKED: ATOM      2  C   UNL     1      17.477 -10.099   2.501 -0.43 -0.00    +0.000 A 
DOCKED: ATOM      3  C   UNL     1      16.103  -9.968   2.234 -0.35 +0.00    +0.000 A 
DOCKED: ATOM      4  C   UNL     1      15.571 -10.592   1.087 -0.29 +0.00    +0.000 A 
DOCKED: ATOM      5  C   UNL     1      16.394 -11.348   0.248 -0.35 +0.00    +0.000 A 
DOCKED: ATOM      6  C   UNL     1      17.754 -11.482   0.531 -0.43 -0.00    +0.000 A 
DOCKED: ENDROOT
DOCKED: BRANCH   1   8
DOCKED: ATOM      7  O   UNL     1      20.499 -12.399   1.756 -1.57 -0.00    +0.000 OA
DOCKED: ATOM      8  S   UNL     1      20.023 -10.995   2.003 -0.90 -0.00    +0.000 S 
DOCKED: ATOM      9  O   UNL     1      20.254 -10.645   3.445 -0.82 -0.00    +0.000 OA
DOCKED: BRANCH   8  10
DOCKED: ATOM     10  N   UNL     1      20.929  -9.906   0.998 -0.49 -0.00    +0.000 N 
DOCKED: ATOM     11  H   UNL     1      21.608  -9.338   1.428 -0.53 -0.00    +0.000 HD
DOCKED: BRANCH  10  12
DOCKED: ATOM     12  C   UNL     1      20.745  -9.784  -0.424 -0.58 -0.00    +0.000 A 
DOCKED: ATOM     13  C   UNL     1      21.016  -8.586  -1.112 -0.43 -0.00    +0.000 A 
DOCKED: ATOM     14  C   UNL     1      20.834  -8.508  -2.497 -0.39 -0.00    +0.000 A 
DOCKED: ATOM     15  C   UNL     1      20.377  -9.621  -3.206 -0.40 -0.00    +0.000 A 
DOCKED: ATOM     16  C   UNL     1      20.098 -10.812  -2.534 -0.39 -0.00    +0.000 A 
DOCKED: ATOM     17  C   UNL     1      20.280 -10.894  -1.150 -0.43 -0.00    +0.000 A 
DOCKED: ENDBRANCH  10  12
DOCKED: ENDBRANCH   8  10
DOCKED: ENDBRANCH   1   8
DOCKED: BRANCH   3  18
DOCKED: ATOM     18  C   UNL     1      15.279  -9.141   3.151 -0.39 +0.00    +0.000 C 
DOCKED: ATOM     19  C   UNL     1      15.771  -8.134   3.889 -0.32 +0.00    +0.000 C 
DOCKED: BRANCH  19  20
DOCKED: ATOM     20  C   UNL     1      14.947  -7.315   4.801 -0.43 +0.00    +0.000 C 
DOCKED: ATOM     21  N   UNL     1      15.392  -6.052   5.314 -0.45 +0.00    +0.000 N 
DOCKED: ATOM     22  O   UNL     1      13.823  -7.761   5.158 -0.41 +0.00    +0.000 OA
DOCKED: ATOM     23  H   UNL     1      16.311  -5.747   5.136 -0.48 -0.00    +0.000 HD
DOCKED: BRANCH  21  24
DOCKED: ATOM     24  O   UNL     1      14.552  -5.278   6.042 -0.80 +0.00    +0.000 OA
DOCKED: ATOM     25  H   UNL     1      13.746  -5.777   6.244 -0.04 +0.00    +0.000 HD
DOCKED: ENDBRANCH  21  24
DOCKED: ENDBRANCH  19  20
DOCKED: ENDBRANCH   3  18
DOCKED: TORSDOF 6
DOCKED: TER
DOCKED: ENDMDL
________________________________________________________________________________


	BEGINNING GENETIC ALGORITHM DOCKING 92 of 100
Run: 92 Seed: 925712898 1848356622 [ Run 92 of 100 GA/GALS ]
Beginning LAMARCKIAN GENETIC ALGORITHM (LGA), with a maximum of 2500000 energy evaluations.

Final-Value: -12.856


	FINAL GENETIC ALGORITHM DOCKED STATE
	_______________________________________________


Detailed state:  trans 15.994 -10.696 1.813 quatxyzw -0.803860 0.184434 -0.562832 -0.054902 center 0.320 0.169 0.303 ntor 6 5.2329 -49.6386 173.7293 14.7360 -170.0791 31.7167
State:	 15.994 -10.696   1.813  -0.805  0.185 -0.564 -173.706      5.23  -49.64  173.73   14.74 -170.08   31.72

DOCKED: MODEL       92
DOCKED: USER    Run = 92
DOCKED: USER    DPF = ligand_dock.biased.dpf
DOCKED: USER  
DOCKED: USER    Estimated Free Energy of Binding    =   -8.83 kcal/mol  [=(1)+(2)+(3)-(4)]
DOCKED: USER    Estimated Inhibition Constant, Ki   =  334.38 nM (nanomolar)  [Temperature = 298.15 K]
DOCKED: USER    
DOCKED: USER    (1) Final Intermolecular Energy     =  -10.62 kcal/mol
DOCKED: USER        vdW + Hbond + desolv Energy     =  -10.62 kcal/mol
DOCKED: USER        Electrostatic Energy            =   +0.00 kcal/mol
DOCKED: USER    (2) Final Total Internal Energy     =   -2.23 kcal/mol
DOCKED: USER    (3) Torsional Free Energy           =   +1.79 kcal/mol
DOCKED: USER    (4) Unbound System's Energy  [=(2)] =   -2.23 kcal/mol
DOCKED: USER    
DOCKED: USER    
DOCKED: USER    NEWDPF move ligand.pdbqt
DOCKED: USER    NEWDPF about 0.320000 0.169000 0.303000
DOCKED: USER    NEWDPF tran0 15.994425 -10.695760 1.812972
DOCKED: USER    NEWDPF quaternion0 -0.803860 0.184434 -0.562832 -0.054902
DOCKED: USER    NEWDPF axisangle0 -0.805074 0.184713 -0.563682 -173.705514
DOCKED: USER    NEWDPF quat0 -0.805074 0.184713 -0.563682 -173.705514
DOCKED: USER    NEWDPF dihe0 5.23 -49.64 173.73 14.74 -170.08 31.72 
DOCKED: USER  keepresnum = 1 
DOCKED: USER  
DOCKED: REMARK  Name = 
DOCKED: REMARK  6 active torsions:
DOCKED: REMARK  status: ('A' for Active; 'I' for Inactive)
DOCKED: REMARK    1  A    between atoms: S_2  and  N_3
DOCKED: REMARK    2  A    between atoms: S_2  and  C_10
DOCKED: REMARK    3  A    between atoms: N_3  and  C_4
DOCKED: REMARK    4  A    between atoms: C_12  and  C_13
DOCKED: REMARK    5  A    between atoms: C_14  and  C_15
DOCKED: REMARK    6  A    between atoms: N_16  and  O_17
DOCKED: REMARK                            x       y       z     vdW  Elec       q    Type
DOCKED: REMARK                         _______ _______ _______ _____ _____    ______ ____
DOCKED: USER                              x       y       z     vdW  Elec       q    Type
DOCKED: USER                           _______ _______ _______ _____ _____    ______ ____
DOCKED: ROOT
DOCKED: ATOM      1  C   UNL     1      13.658 -10.696   2.086 -0.31 +0.00    +0.000 A 
DOCKED: ATOM      2  C   UNL     1      15.001 -11.012   2.326 -0.40 +0.00    +0.000 A 
DOCKED: ATOM      3  C   UNL     1      15.685 -10.456   3.422 -0.44 +0.00    +0.000 A 
DOCKED: ATOM      4  C   UNL     1      14.999  -9.560   4.267 -0.37 +0.00    +0.000 A 
DOCKED: ATOM      5  C   UNL     1      13.657  -9.252   4.030 -0.30 +0.00    +0.000 A 
DOCKED: ATOM      6  C   UNL     1      12.985  -9.821   2.946 -0.20 +0.00    +0.000 A 
DOCKED: ENDROOT
DOCKED: BRANCH   1   8
DOCKED: ATOM      7  O   UNL     1      12.260 -10.317  -0.181 -0.25 +0.00    +0.000 OA
DOCKED: ATOM      8  S   UNL     1      12.824 -11.396   0.701 -0.51 +0.00    +0.000 S 
DOCKED: ATOM      9  O   UNL     1      11.700 -12.259   1.200 -0.52 +0.00    +0.000 OA
DOCKED: BRANCH   8  10
DOCKED: ATOM     10  N   UNL     1      13.922 -12.369  -0.229 -0.43 +0.00    +0.000 N 
DOCKED: ATOM     11  H   UNL     1      13.581 -13.207  -0.617 +0.06 +0.00    +0.000 HD
DOCKED: BRANCH  10  12
DOCKED: ATOM     12  C   UNL     1      15.299 -12.024  -0.465 -0.41 +0.00    +0.000 A 
DOCKED: ATOM     13  C   UNL     1      15.667 -10.845  -1.142 -0.28 -0.00    +0.000 A 
DOCKED: ATOM     14  C   UNL     1      17.016 -10.538  -1.344 -0.24 -0.00    +0.000 A 
DOCKED: ATOM     15  C   UNL     1      18.009 -11.403  -0.879 -0.37 -0.00    +0.000 A 
DOCKED: ATOM     16  C   UNL     1      17.656 -12.578  -0.213 -0.41 -0.00    +0.000 A 
DOCKED: ATOM     17  C   UNL     1      16.308 -12.888  -0.007 -0.47 +0.00    +0.000 A 
DOCKED: ENDBRANCH  10  12
DOCKED: ENDBRANCH   8  10
DOCKED: ENDBRANCH   1   8
DOCKED: BRANCH   3  18
DOCKED: ATOM     18  C   UNL     1      17.113 -10.807   3.617 -0.35 +0.00    +0.000 C 
DOCKED: ATOM     19  C   UNL     1      17.954 -11.088   2.610 -0.50 +0.00    +0.000 C 
DOCKED: BRANCH  19  20
DOCKED: ATOM     20  C   UNL     1      19.376 -11.437   2.810 -0.69 -0.00    +0.000 C 
DOCKED: ATOM     21  N   UNL     1      20.120 -12.208   1.857 -0.71 -0.00    +0.000 N 
DOCKED: ATOM     22  O   UNL     1      19.942 -11.063   3.873 -0.80 -0.00    +0.000 OA
DOCKED: ATOM     23  H   UNL     1      19.661 -12.603   1.081 -0.21 -0.00    +0.000 HD
DOCKED: BRANCH  21  24
DOCKED: ATOM     24  O   UNL     1      21.452 -12.394   2.021 -0.97 -0.00    +0.000 OA
DOCKED: ATOM     25  H   UNL     1      21.729 -12.014   2.869 -0.54 -0.00    +0.000 HD
DOCKED: ENDBRANCH  21  24
DOCKED: ENDBRANCH  19  20
DOCKED: ENDBRANCH   3  18
DOCKED: TORSDOF 6
DOCKED: TER
DOCKED: ENDMDL
________________________________________________________________________________


	BEGINNING GENETIC ALGORITHM DOCKING 93 of 100
Run: 93 Seed: 1823304110 17296587 [ Run 93 of 100 GA/GALS ]
Beginning LAMARCKIAN GENETIC ALGORITHM (LGA), with a maximum of 2500000 energy evaluations.

Final-Value: -12.551


	FINAL GENETIC ALGORITHM DOCKED STATE
	_______________________________________________


Detailed state:  trans 18.727 -10.277 -1.345 quatxyzw 0.915237 -0.266166 -0.130104 0.273074 center 0.320 0.169 0.303 ntor 6 9.6567 102.7408 -179.9503 132.5036 114.0952 -11.9384
State:	 18.727 -10.277  -1.345   0.951 -0.277 -0.135 148.305      9.66  102.74 -179.95  132.50  114.10  -11.94

DOCKED: MODEL       93
DOCKED: USER    Run = 93
DOCKED: USER    DPF = ligand_dock.biased.dpf
DOCKED: USER  
DOCKED: USER    Estimated Free Energy of Binding    =   -8.86 kcal/mol  [=(1)+(2)+(3)-(4)]
DOCKED: USER    Estimated Inhibition Constant, Ki   =  319.45 nM (nanomolar)  [Temperature = 298.15 K]
DOCKED: USER    
DOCKED: USER    (1) Final Intermolecular Energy     =  -10.65 kcal/mol
DOCKED: USER        vdW + Hbond + desolv Energy     =  -10.65 kcal/mol
DOCKED: USER        Electrostatic Energy            =   +0.00 kcal/mol
DOCKED: USER    (2) Final Total Internal Energy     =   -1.90 kcal/mol
DOCKED: USER    (3) Torsional Free Energy           =   +1.79 kcal/mol
DOCKED: USER    (4) Unbound System's Energy  [=(2)] =   -1.90 kcal/mol
DOCKED: USER    
DOCKED: USER    
DOCKED: USER    NEWDPF move ligand.pdbqt
DOCKED: USER    NEWDPF about 0.320000 0.169000 0.303000
DOCKED: USER    NEWDPF tran0 18.727032 -10.277160 -1.344746
DOCKED: USER    NEWDPF quaternion0 0.915237 -0.266166 -0.130104 0.273074
DOCKED: USER    NEWDPF axisangle0 0.951397 -0.276682 -0.135244 148.305437
DOCKED: USER    NEWDPF quat0 0.951397 -0.276682 -0.135244 148.305437
DOCKED: USER    NEWDPF dihe0 9.66 102.74 -179.95 132.50 114.10 -11.94 
DOCKED: USER  keepresnum = 1 
DOCKED: USER  
DOCKED: REMARK  Name = 
DOCKED: REMARK  6 active torsions:
DOCKED: REMARK  status: ('A' for Active; 'I' for Inactive)
DOCKED: REMARK    1  A    between atoms: S_2  and  N_3
DOCKED: REMARK    2  A    between atoms: S_2  and  C_10
DOCKED: REMARK    3  A    between atoms: N_3  and  C_4
DOCKED: REMARK    4  A    between atoms: C_12  and  C_13
DOCKED: REMARK    5  A    between atoms: C_14  and  C_15
DOCKED: REMARK    6  A    between atoms: N_16  and  O_17
DOCKED: REMARK                            x       y       z     vdW  Elec       q    Type
DOCKED: REMARK                         _______ _______ _______ _____ _____    ______ ____
DOCKED: USER                              x       y       z     vdW  Elec       q    Type
DOCKED: USER                           _______ _______ _______ _____ _____    ______ ____
DOCKED: ROOT
DOCKED: ATOM      1  C   UNL     1      18.300 -11.705   0.475 -0.48 -0.00    +0.000 A 
DOCKED: ATOM      2  C   UNL     1      18.841 -11.262  -0.739 -0.43 -0.00    +0.000 A 
DOCKED: ATOM      3  C   UNL     1      20.185 -10.861  -0.822 -0.48 -0.00    +0.000 A 
DOCKED: ATOM      4  C   UNL     1      20.979 -10.897   0.343 -0.62 -0.00    +0.000 A 
DOCKED: ATOM      5  C   UNL     1      20.439 -11.347   1.551 -0.67 -0.00    +0.000 A 
DOCKED: ATOM      6  C   UNL     1      19.106 -11.755   1.618 -0.58 -0.00    +0.000 A 
DOCKED: ENDROOT
DOCKED: BRANCH   1   8
DOCKED: ATOM      7  O   UNL     1      16.164 -12.326   1.988 -0.66 +0.00    +0.000 OA
DOCKED: ATOM      8  S   UNL     1      16.609 -12.193   0.559 -0.63 +0.00    +0.000 S 
DOCKED: ATOM      9  O   UNL     1      16.455 -13.520  -0.128 -1.20 +0.00    +0.000 OA
DOCKED: BRANCH   8  10
DOCKED: ATOM     10  N   UNL     1      15.608 -11.018  -0.237 -0.29 +0.00    +0.000 N 
DOCKED: ATOM     11  H   UNL     1      15.126 -10.367   0.322 +0.00 +0.00    +0.000 HD
DOCKED: BRANCH  10  12
DOCKED: ATOM     12  C   UNL     1      15.440 -10.941  -1.665 -0.27 -0.00    +0.000 A 
DOCKED: ATOM     13  C   UNL     1      14.405 -11.623  -2.333 -0.30 -0.00    +0.000 A 
DOCKED: ATOM     14  C   UNL     1      14.268 -11.516  -3.721 -0.22 -0.00    +0.000 A 
DOCKED: ATOM     15  C   UNL     1      15.163 -10.734  -4.455 -0.23 -0.00    +0.000 A 
DOCKED: ATOM     16  C   UNL     1      16.198 -10.060  -3.804 -0.22 -0.00    +0.000 A 
DOCKED: ATOM     17  C   UNL     1      16.337 -10.163  -2.416 -0.23 -0.00    +0.000 A 
DOCKED: ENDBRANCH  10  12
DOCKED: ENDBRANCH   8  10
DOCKED: ENDBRANCH   1   8
DOCKED: BRANCH   3  18
DOCKED: ATOM     18  C   UNL     1      20.701 -10.379  -2.127 -0.56 -0.00    +0.000 C 
DOCKED: ATOM     19  C   UNL     1      20.454 -10.990  -3.296 -0.41 -0.00    +0.000 C 
DOCKED: BRANCH  19  20
DOCKED: ATOM     20  C   UNL     1      20.970 -10.505  -4.593 -0.48 -0.00    +0.000 C 
DOCKED: ATOM     21  N   UNL     1      21.030 -11.341  -5.757 -0.43 -0.00    +0.000 N 
DOCKED: ATOM     22  O   UNL     1      21.397  -9.322  -4.664 -0.37 -0.00    +0.000 OA
DOCKED: ATOM     23  H   UNL     1      20.807 -12.297  -5.686 -0.52 -0.00    +0.000 HD
DOCKED: BRANCH  21  24
DOCKED: ATOM     24  O   UNL     1      21.389 -10.817  -6.954 -0.35 -0.00    +0.000 OA
DOCKED: ATOM     25  H   UNL     1      21.718  -9.914  -6.826 +0.00 -0.00    +0.000 HD
DOCKED: ENDBRANCH  21  24
DOCKED: ENDBRANCH  19  20
DOCKED: ENDBRANCH   3  18
DOCKED: TORSDOF 6
DOCKED: TER
DOCKED: ENDMDL
________________________________________________________________________________


	BEGINNING GENETIC ALGORITHM DOCKING 94 of 100
Run: 94 Seed: 343681622 1052964240 [ Run 94 of 100 GA/GALS ]
Beginning LAMARCKIAN GENETIC ALGORITHM (LGA), with a maximum of 2500000 energy evaluations.

Final-Value: -13.138


	FINAL GENETIC ALGORITHM DOCKED STATE
	_______________________________________________


Detailed state:  trans 20.365 -8.325 -0.464 quatxyzw 0.145004 -0.142774 -0.350382 -0.914233 center 0.320 0.169 0.303 ntor 6 34.9368 15.3368 97.0201 -100.3854 -114.3519 122.7071
State:	 20.365  -8.325  -0.464   0.358 -0.352 -0.865 -47.806     34.94   15.34   97.02 -100.39 -114.35  122.71

DOCKED: MODEL       94
DOCKED: USER    Run = 94
DOCKED: USER    DPF = ligand_dock.biased.dpf
DOCKED: USER  
DOCKED: USER    Estimated Free Energy of Binding    =  -10.08 kcal/mol  [=(1)+(2)+(3)-(4)]
DOCKED: USER    Estimated Inhibition Constant, Ki   =   40.99 nM (nanomolar)  [Temperature = 298.15 K]
DOCKED: USER    
DOCKED: USER    (1) Final Intermolecular Energy     =  -11.87 kcal/mol
DOCKED: USER        vdW + Hbond + desolv Energy     =  -11.87 kcal/mol
DOCKED: USER        Electrostatic Energy            =   +0.00 kcal/mol
DOCKED: USER    (2) Final Total Internal Energy     =   -1.27 kcal/mol
DOCKED: USER    (3) Torsional Free Energy           =   +1.79 kcal/mol
DOCKED: USER    (4) Unbound System's Energy  [=(2)] =   -1.27 kcal/mol
DOCKED: USER    
DOCKED: USER    
DOCKED: USER    NEWDPF move ligand.pdbqt
DOCKED: USER    NEWDPF about 0.320000 0.169000 0.303000
DOCKED: USER    NEWDPF tran0 20.364807 -8.325339 -0.464235
DOCKED: USER    NEWDPF quaternion0 0.145004 -0.142774 -0.350382 -0.914233
DOCKED: USER    NEWDPF axisangle0 0.357868 -0.352364 -0.864737 -47.805911
DOCKED: USER    NEWDPF quat0 0.357868 -0.352364 -0.864737 -47.805911
DOCKED: USER    NEWDPF dihe0 34.94 15.34 97.02 -100.39 -114.35 122.71 
DOCKED: USER  keepresnum = 1 
DOCKED: USER  
DOCKED: REMARK  Name = 
DOCKED: REMARK  6 active torsions:
DOCKED: REMARK  status: ('A' for Active; 'I' for Inactive)
DOCKED: REMARK    1  A    between atoms: S_2  and  N_3
DOCKED: REMARK    2  A    between atoms: S_2  and  C_10
DOCKED: REMARK    3  A    between atoms: N_3  and  C_4
DOCKED: REMARK    4  A    between atoms: C_12  and  C_13
DOCKED: REMARK    5  A    between atoms: C_14  and  C_15
DOCKED: REMARK    6  A    between atoms: N_16  and  O_17
DOCKED: REMARK                            x       y       z     vdW  Elec       q    Type
DOCKED: REMARK                         _______ _______ _______ _____ _____    ______ ____
DOCKED: USER                              x       y       z     vdW  Elec       q    Type
DOCKED: USER                           _______ _______ _______ _____ _____    ______ ____
DOCKED: ROOT
DOCKED: ATOM      1  C   UNL     1      21.139  -7.308  -2.439 -0.40 -0.00    +0.000 A 
DOCKED: ATOM      2  C   UNL     1      21.169  -8.068  -1.262 -0.30 -0.00    +0.000 A 
DOCKED: ATOM      3  C   UNL     1      21.203  -9.472  -1.315 -0.55 -0.00    +0.000 A 
DOCKED: ATOM      4  C   UNL     1      21.190 -10.105  -2.574 -0.50 -0.00    +0.000 A 
DOCKED: ATOM      5  C   UNL     1      21.169  -9.346  -3.747 -0.39 -0.00    +0.000 A 
DOCKED: ATOM      6  C   UNL     1      21.148  -7.951  -3.682 -0.33 -0.00    +0.000 A 
DOCKED: ENDROOT
DOCKED: BRANCH   1   8
DOCKED: ATOM      7  O   UNL     1      20.326  -5.102  -1.132 -0.53 +0.00    +0.000 OA
DOCKED: ATOM      8  S   UNL     1      21.087  -5.549  -2.349 -0.52 -0.00    +0.000 S 
DOCKED: ATOM      9  O   UNL     1      20.400  -5.024  -3.577 -0.22 -0.00    +0.000 OA
DOCKED: BRANCH   8  10
DOCKED: ATOM     10  N   UNL     1      22.698  -4.906  -2.276 -0.33 -0.00    +0.000 N 
DOCKED: ATOM     11  H   UNL     1      23.426  -5.435  -2.676 +0.00 -0.00    +0.000 HD
DOCKED: BRANCH  10  12
DOCKED: ATOM     12  C   UNL     1      23.033  -3.646  -1.667 -0.28 +0.00    +0.000 A 
DOCKED: ATOM     13  C   UNL     1      22.073  -2.861  -0.999 -0.29 +0.00    +0.000 A 
DOCKED: ATOM     14  C   UNL     1      22.438  -1.645  -0.411 -0.26 -0.00    +0.000 A 
DOCKED: ATOM     15  C   UNL     1      23.759  -1.199  -0.488 -0.24 -0.00    +0.000 A 
DOCKED: ATOM     16  C   UNL     1      24.718  -1.965  -1.155 -0.21 -0.00    +0.000 A 
DOCKED: ATOM     17  C   UNL     1      24.358  -3.181  -1.742 -0.28 -0.00    +0.000 A 
DOCKED: ENDBRANCH  10  12
DOCKED: ENDBRANCH   8  10
DOCKED: ENDBRANCH   1   8
DOCKED: BRANCH   3  18
DOCKED: ATOM     18  C   UNL     1      21.211 -10.228  -0.038 -0.70 -0.00    +0.000 C 
DOCKED: ATOM     19  C   UNL     1      20.099 -10.580   0.625 -0.65 -0.00    +0.000 C 
DOCKED: BRANCH  19  20
DOCKED: ATOM     20  C   UNL     1      20.112 -11.333   1.896 -0.75 -0.00    +0.000 C 
DOCKED: ATOM     21  N   UNL     1      20.392 -10.709   3.156 -0.69 -0.00    +0.000 N 
DOCKED: ATOM     22  O   UNL     1      19.895 -12.574   1.860 -1.65 -0.00    +0.000 OA
DOCKED: ATOM     23  H   UNL     1      20.676  -9.767   3.185 -0.59 -0.00    +0.000 HD
DOCKED: BRANCH  21  24
DOCKED: ATOM     24  O   UNL     1      20.267 -11.412   4.308 -0.78 -0.00    +0.000 OA
DOCKED: ATOM     25  H   UNL     1      20.528 -12.333   4.153 -0.44 -0.00    +0.000 HD
DOCKED: ENDBRANCH  21  24
DOCKED: ENDBRANCH  19  20
DOCKED: ENDBRANCH   3  18
DOCKED: TORSDOF 6
DOCKED: TER
DOCKED: ENDMDL
________________________________________________________________________________


	BEGINNING GENETIC ALGORITHM DOCKING 95 of 100
Run: 95 Seed: 783194208 593682743 [ Run 95 of 100 GA/GALS ]
Beginning LAMARCKIAN GENETIC ALGORITHM (LGA), with a maximum of 2500000 energy evaluations.

Final-Value: -13.356


	FINAL GENETIC ALGORITHM DOCKED STATE
	_______________________________________________


Detailed state:  trans 20.196 -8.639 -0.672 quatxyzw 0.215702 -0.163173 -0.339526 -0.900871 center 0.320 0.169 0.303 ntor 6 34.8497 -175.7269 161.1968 -103.2339 -176.7264 137.5170
State:	 20.196  -8.639  -0.672   0.497 -0.376 -0.782 -51.454     34.85 -175.73  161.20 -103.23 -176.73  137.52

DOCKED: MODEL       95
DOCKED: USER    Run = 95
DOCKED: USER    DPF = ligand_dock.biased.dpf
DOCKED: USER  
DOCKED: USER    Estimated Free Energy of Binding    =  -10.26 kcal/mol  [=(1)+(2)+(3)-(4)]
DOCKED: USER    Estimated Inhibition Constant, Ki   =   29.90 nM (nanomolar)  [Temperature = 298.15 K]
DOCKED: USER    
DOCKED: USER    (1) Final Intermolecular Energy     =  -12.05 kcal/mol
DOCKED: USER        vdW + Hbond + desolv Energy     =  -12.05 kcal/mol
DOCKED: USER        Electrostatic Energy            =   +0.00 kcal/mol
DOCKED: USER    (2) Final Total Internal Energy     =   -1.30 kcal/mol
DOCKED: USER    (3) Torsional Free Energy           =   +1.79 kcal/mol
DOCKED: USER    (4) Unbound System's Energy  [=(2)] =   -1.30 kcal/mol
DOCKED: USER    
DOCKED: USER    
DOCKED: USER    NEWDPF move ligand.pdbqt
DOCKED: USER    NEWDPF about 0.320000 0.169000 0.303000
DOCKED: USER    NEWDPF tran0 20.196007 -8.639298 -0.671764
DOCKED: USER    NEWDPF quaternion0 0.215702 -0.163173 -0.339526 -0.900871
DOCKED: USER    NEWDPF axisangle0 0.496911 -0.375901 -0.782163 -51.454305
DOCKED: USER    NEWDPF quat0 0.496911 -0.375901 -0.782163 -51.454305
DOCKED: USER    NEWDPF dihe0 34.85 -175.73 161.20 -103.23 -176.73 137.52 
DOCKED: USER  keepresnum = 1 
DOCKED: USER  
DOCKED: REMARK  Name = 
DOCKED: REMARK  6 active torsions:
DOCKED: REMARK  status: ('A' for Active; 'I' for Inactive)
DOCKED: REMARK    1  A    between atoms: S_2  and  N_3
DOCKED: REMARK    2  A    between atoms: S_2  and  C_10
DOCKED: REMARK    3  A    between atoms: N_3  and  C_4
DOCKED: REMARK    4  A    between atoms: C_12  and  C_13
DOCKED: REMARK    5  A    between atoms: C_14  and  C_15
DOCKED: REMARK    6  A    between atoms: N_16  and  O_17
DOCKED: REMARK                            x       y       z     vdW  Elec       q    Type
DOCKED: REMARK                         _______ _______ _______ _____ _____    ______ ____
DOCKED: USER                              x       y       z     vdW  Elec       q    Type
DOCKED: USER                           _______ _______ _______ _____ _____    ______ ____
DOCKED: ROOT
DOCKED: ATOM      1  C   UNL     1      21.118  -7.384  -2.435 -0.40 -0.00    +0.000 A 
DOCKED: ATOM      2  C   UNL     1      21.062  -8.275  -1.355 -0.39 -0.00    +0.000 A 
DOCKED: ATOM      3  C   UNL     1      21.144  -9.663  -1.564 -0.55 -0.00    +0.000 A 
DOCKED: ATOM      4  C   UNL     1      21.266 -10.145  -2.884 -0.48 -0.00    +0.000 A 
DOCKED: ATOM      5  C   UNL     1      21.329  -9.254  -3.958 -0.37 -0.00    +0.000 A 
DOCKED: ATOM      6  C   UNL     1      21.261  -7.878  -3.736 -0.32 -0.00    +0.000 A 
DOCKED: ENDROOT
DOCKED: BRANCH   1   8
DOCKED: ATOM      7  O   UNL     1      20.436  -5.371  -0.787 -0.52 +0.00    +0.000 OA
DOCKED: ATOM      8  S   UNL     1      21.004  -5.649  -2.150 -0.54 -0.00    +0.000 S 
DOCKED: ATOM      9  O   UNL     1      20.103  -5.047  -3.189 -0.25 -0.00    +0.000 OA
DOCKED: BRANCH   8  10
DOCKED: ATOM     10  N   UNL     1      22.577  -4.920  -2.266 -0.34 -0.00    +0.000 N 
DOCKED: ATOM     11  H   UNL     1      23.263  -5.385  -2.796 -0.02 -0.00    +0.000 HD
DOCKED: BRANCH  10  12
DOCKED: ATOM     12  C   UNL     1      22.934  -3.677  -1.635 -0.28 +0.00    +0.000 A 
DOCKED: ATOM     13  C   UNL     1      24.257  -3.194  -1.633 -0.29 -0.00    +0.000 A 
DOCKED: ATOM     14  C   UNL     1      24.565  -1.977  -1.016 -0.20 -0.00    +0.000 A 
DOCKED: ATOM     15  C   UNL     1      23.560  -1.234  -0.393 -0.24 -0.00    +0.000 A 
DOCKED: ATOM     16  C   UNL     1      22.247  -1.707  -0.381 -0.27 -0.00    +0.000 A 
DOCKED: ATOM     17  C   UNL     1      21.934  -2.922  -0.998 -0.30 +0.00    +0.000 A 
DOCKED: ENDBRANCH  10  12
DOCKED: ENDBRANCH   8  10
DOCKED: ENDBRANCH   1   8
DOCKED: BRANCH   3  18
DOCKED: ATOM     18  C   UNL     1      21.056 -10.562  -0.387 -0.69 -0.00    +0.000 C 
DOCKED: ATOM     19  C   UNL     1      20.456 -10.225   0.764 -0.63 -0.00    +0.000 C 
DOCKED: BRANCH  19  20
DOCKED: ATOM     20  C   UNL     1      20.372 -11.125   1.933 -0.74 -0.00    +0.000 C 
DOCKED: ATOM     21  N   UNL     1      20.477 -10.646   3.280 -0.68 -0.00    +0.000 N 
DOCKED: ATOM     22  O   UNL     1      20.230 -12.360   1.730 -1.71 -0.00    +0.000 OA
DOCKED: ATOM     23  H   UNL     1      20.702  -9.702   3.450 -0.57 -0.00    +0.000 HD
DOCKED: BRANCH  21  24
DOCKED: ATOM     24  O   UNL     1      20.266 -11.487   4.321 -0.77 -0.00    +0.000 OA
DOCKED: ATOM     25  H   UNL     1      20.592 -12.371   4.093 -0.49 -0.00    +0.000 HD
DOCKED: ENDBRANCH  21  24
DOCKED: ENDBRANCH  19  20
DOCKED: ENDBRANCH   3  18
DOCKED: TORSDOF 6
DOCKED: TER
DOCKED: ENDMDL
________________________________________________________________________________


	BEGINNING GENETIC ALGORITHM DOCKING 96 of 100
Run: 96 Seed: 365227059 519934577 [ Run 96 of 100 GA/GALS ]
Beginning LAMARCKIAN GENETIC ALGORITHM (LGA), with a maximum of 2500000 energy evaluations.

Final-Value: -14.523


	FINAL GENETIC ALGORITHM DOCKED STATE
	_______________________________________________


Detailed state:  trans 17.248 -9.526 3.335 quatxyzw 0.118161 0.419222 0.839858 0.323929 center 0.320 0.169 0.303 ntor 6 -7.3794 -157.5845 137.4776 -18.1635 -96.9037 -60.5756
State:	 17.248  -9.526   3.335   0.125  0.443  0.888 142.199     -7.38 -157.58  137.48  -18.16  -96.90  -60.58

DOCKED: MODEL       96
DOCKED: USER    Run = 96
DOCKED: USER    DPF = ligand_dock.biased.dpf
DOCKED: USER  
DOCKED: USER    Estimated Free Energy of Binding    =  -11.17 kcal/mol  [=(1)+(2)+(3)-(4)]
DOCKED: USER    Estimated Inhibition Constant, Ki   =    6.51 nM (nanomolar)  [Temperature = 298.15 K]
DOCKED: USER    
DOCKED: USER    (1) Final Intermolecular Energy     =  -12.96 kcal/mol
DOCKED: USER        vdW + Hbond + desolv Energy     =  -12.96 kcal/mol
DOCKED: USER        Electrostatic Energy            =   +0.00 kcal/mol
DOCKED: USER    (2) Final Total Internal Energy     =   -1.57 kcal/mol
DOCKED: USER    (3) Torsional Free Energy           =   +1.79 kcal/mol
DOCKED: USER    (4) Unbound System's Energy  [=(2)] =   -1.57 kcal/mol
DOCKED: USER    
DOCKED: USER    
DOCKED: USER    NEWDPF move ligand.pdbqt
DOCKED: USER    NEWDPF about 0.320000 0.169000 0.303000
DOCKED: USER    NEWDPF tran0 17.248153 -9.525735 3.334638
DOCKED: USER    NEWDPF quaternion0 0.118161 0.419222 0.839858 0.323929
DOCKED: USER    NEWDPF axisangle0 0.124895 0.443114 0.887722 142.198651
DOCKED: USER    NEWDPF quat0 0.124895 0.443114 0.887722 142.198651
DOCKED: USER    NEWDPF dihe0 -7.38 -157.58 137.48 -18.16 -96.90 -60.58 
DOCKED: USER  keepresnum = 1 
DOCKED: USER  
DOCKED: REMARK  Name = 
DOCKED: REMARK  6 active torsions:
DOCKED: REMARK  status: ('A' for Active; 'I' for Inactive)
DOCKED: REMARK    1  A    between atoms: S_2  and  N_3
DOCKED: REMARK    2  A    between atoms: S_2  and  C_10
DOCKED: REMARK    3  A    between atoms: N_3  and  C_4
DOCKED: REMARK    4  A    between atoms: C_12  and  C_13
DOCKED: REMARK    5  A    between atoms: C_14  and  C_15
DOCKED: REMARK    6  A    between atoms: N_16  and  O_17
DOCKED: REMARK                            x       y       z     vdW  Elec       q    Type
DOCKED: REMARK                         _______ _______ _______ _____ _____    ______ ____
DOCKED: USER                              x       y       z     vdW  Elec       q    Type
DOCKED: USER                           _______ _______ _______ _____ _____    ______ ____
DOCKED: ROOT
DOCKED: ATOM      1  C   UNL     1      18.062 -11.293   2.011 -0.45 -0.00    +0.000 A 
DOCKED: ATOM      2  C   UNL     1      17.360 -10.643   3.035 -0.42 +0.00    +0.000 A 
DOCKED: ATOM      3  C   UNL     1      15.963 -10.504   2.972 -0.42 +0.00    +0.000 A 
DOCKED: ATOM      4  C   UNL     1      15.279 -11.017   1.851 -0.37 +0.00    +0.000 A 
DOCKED: ATOM      5  C   UNL     1      15.980 -11.671   0.834 -0.39 +0.00    +0.000 A 
DOCKED: ATOM      6  C   UNL     1      17.366 -11.814   0.915 -0.44 +0.00    +0.000 A 
DOCKED: ENDROOT
DOCKED: BRANCH   1   8
DOCKED: ATOM      7  O   UNL     1      20.264 -12.760   1.531 -1.37 -0.00    +0.000 OA
DOCKED: ATOM      8  S   UNL     1      19.815 -11.446   2.106 -0.92 -0.00    +0.000 S 
DOCKED: ATOM      9  O   UNL     1      20.228 -11.374   3.548 -0.88 -0.00    +0.000 OA
DOCKED: BRANCH   8  10
DOCKED: ATOM     10  N   UNL     1      20.576 -10.155   1.229 -0.56 -0.00    +0.000 N 
DOCKED: ATOM     11  H   UNL     1      21.034  -9.453   1.745 -0.53 -0.00    +0.000 HD
DOCKED: BRANCH  10  12
DOCKED: ATOM     12  C   UNL     1      20.576 -10.051  -0.207 -0.58 -0.00    +0.000 A 
DOCKED: ATOM     13  C   UNL     1      21.391  -9.125  -0.888 -0.53 -0.00    +0.000 A 
DOCKED: ATOM     14  C   UNL     1      21.371  -9.059  -2.285 -0.46 -0.00    +0.000 A 
DOCKED: ATOM     15  C   UNL     1      20.538  -9.910  -3.014 -0.44 -0.00    +0.000 A 
DOCKED: ATOM     16  C   UNL     1      19.721 -10.826  -2.350 -0.39 -0.00    +0.000 A 
DOCKED: ATOM     17  C   UNL     1      19.738 -10.896  -0.953 -0.46 -0.00    +0.000 A 
DOCKED: ENDBRANCH  10  12
DOCKED: ENDBRANCH   8  10
DOCKED: ENDBRANCH   1   8
DOCKED: BRANCH   3  18
DOCKED: ATOM     18  C   UNL     1      15.272  -9.788   4.073 -0.44 +0.00    +0.000 C 
DOCKED: ATOM     19  C   UNL     1      14.802  -8.536   3.965 -0.39 +0.00    +0.000 C 
DOCKED: BRANCH  19  20
DOCKED: ATOM     20  C   UNL     1      14.114  -7.826   5.064 -0.43 +0.00    +0.000 C 
DOCKED: ATOM     21  N   UNL     1      14.618  -6.607   5.625 -0.45 +0.00    +0.000 N 
DOCKED: ATOM     22  O   UNL     1      13.063  -8.332   5.539 -0.44 +0.00    +0.000 OA
DOCKED: ATOM     23  H   UNL     1      15.496  -6.262   5.343 -0.06 +0.00    +0.000 HD
DOCKED: BRANCH  21  24
DOCKED: ATOM     24  O   UNL     1      13.888  -5.926   6.542 -1.12 +0.00    +0.000 OA
DOCKED: ATOM     25  H   UNL     1      13.010  -6.330   6.620 -0.03 +0.00    +0.000 HD
DOCKED: ENDBRANCH  21  24
DOCKED: ENDBRANCH  19  20
DOCKED: ENDBRANCH   3  18
DOCKED: TORSDOF 6
DOCKED: TER
DOCKED: ENDMDL
________________________________________________________________________________


	BEGINNING GENETIC ALGORITHM DOCKING 97 of 100
Run: 97 Seed: 1697394198 334518140 [ Run 97 of 100 GA/GALS ]
Beginning LAMARCKIAN GENETIC ALGORITHM (LGA), with a maximum of 2500000 energy evaluations.

Final-Value: -12.796


	FINAL GENETIC ALGORITHM DOCKED STATE
	_______________________________________________


Detailed state:  trans 22.488 -11.749 -4.310 quatxyzw 0.397552 0.628138 0.000442 -0.668876 center 0.320 0.169 0.303 ntor 6 17.6946 156.4683 -176.2730 -151.0006 -36.5415 -114.7886
State:	 22.488 -11.749  -4.310   0.535  0.845  0.001 -96.039     17.69  156.47 -176.27 -151.00  -36.54 -114.79

DOCKED: MODEL       97
DOCKED: USER    Run = 97
DOCKED: USER    DPF = ligand_dock.biased.dpf
DOCKED: USER  
DOCKED: USER    Estimated Free Energy of Binding    =   -9.65 kcal/mol  [=(1)+(2)+(3)-(4)]
DOCKED: USER    Estimated Inhibition Constant, Ki   =   83.73 nM (nanomolar)  [Temperature = 298.15 K]
DOCKED: USER    
DOCKED: USER    (1) Final Intermolecular Energy     =  -11.44 kcal/mol
DOCKED: USER        vdW + Hbond + desolv Energy     =  -11.44 kcal/mol
DOCKED: USER        Electrostatic Energy            =   +0.00 kcal/mol
DOCKED: USER    (2) Final Total Internal Energy     =   -1.35 kcal/mol
DOCKED: USER    (3) Torsional Free Energy           =   +1.79 kcal/mol
DOCKED: USER    (4) Unbound System's Energy  [=(2)] =   -1.35 kcal/mol
DOCKED: USER    
DOCKED: USER    
DOCKED: USER    NEWDPF move ligand.pdbqt
DOCKED: USER    NEWDPF about 0.320000 0.169000 0.303000
DOCKED: USER    NEWDPF tran0 22.488236 -11.748885 -4.309986
DOCKED: USER    NEWDPF quaternion0 0.397552 0.628138 0.000442 -0.668876
DOCKED: USER    NEWDPF axisangle0 0.534795 0.844982 0.000595 -96.039260
DOCKED: USER    NEWDPF quat0 0.534795 0.844982 0.000595 -96.039260
DOCKED: USER    NEWDPF dihe0 17.69 156.47 -176.27 -151.00 -36.54 -114.79 
DOCKED: USER  keepresnum = 1 
DOCKED: USER  
DOCKED: REMARK  Name = 
DOCKED: REMARK  6 active torsions:
DOCKED: REMARK  status: ('A' for Active; 'I' for Inactive)
DOCKED: REMARK    1  A    between atoms: S_2  and  N_3
DOCKED: REMARK    2  A    between atoms: S_2  and  C_10
DOCKED: REMARK    3  A    between atoms: N_3  and  C_4
DOCKED: REMARK    4  A    between atoms: C_12  and  C_13
DOCKED: REMARK    5  A    between atoms: C_14  and  C_15
DOCKED: REMARK    6  A    between atoms: N_16  and  O_17
DOCKED: REMARK                            x       y       z     vdW  Elec       q    Type
DOCKED: REMARK                         _______ _______ _______ _____ _____    ______ ____
DOCKED: USER                              x       y       z     vdW  Elec       q    Type
DOCKED: USER                           _______ _______ _______ _____ _____    ______ ____
DOCKED: ROOT
DOCKED: ATOM      1  C   UNL     1      20.726 -10.456  -3.440 -0.46 -0.00    +0.000 A 
DOCKED: ATOM      2  C   UNL     1      21.836 -10.791  -4.226 -0.37 -0.00    +0.000 A 
DOCKED: ATOM      3  C   UNL     1      21.687 -11.078  -5.594 -0.46 -0.00    +0.000 A 
DOCKED: ATOM      4  C   UNL     1      20.396 -11.040  -6.160 -0.29 -0.00    +0.000 A 
DOCKED: ATOM      5  C   UNL     1      19.291 -10.698  -5.376 -0.34 -0.00    +0.000 A 
DOCKED: ATOM      6  C   UNL     1      19.454 -10.402  -4.021 -0.34 -0.00    +0.000 A 
DOCKED: ENDROOT
DOCKED: BRANCH   1   8
DOCKED: ATOM      7  O   UNL     1      21.193  -8.645  -1.507 -0.60 -0.00    +0.000 OA
DOCKED: ATOM      8  S   UNL     1      20.934 -10.110  -1.725 -0.75 -0.00    +0.000 S 
DOCKED: ATOM      9  O   UNL     1      22.106 -10.896  -1.213 -0.65 -0.00    +0.000 OA
DOCKED: BRANCH   8  10
DOCKED: ATOM     10  N   UNL     1      19.509 -10.569  -0.845 -0.45 -0.00    +0.000 N 
DOCKED: ATOM     11  H   UNL     1      18.657 -10.611  -1.335 -0.01 -0.00    +0.000 HD
DOCKED: BRANCH  10  12
DOCKED: ATOM     12  C   UNL     1      19.501 -10.891   0.557 -0.54 -0.00    +0.000 A 
DOCKED: ATOM     13  C   UNL     1      18.413 -10.569   1.392 -0.42 -0.00    +0.000 A 
DOCKED: ATOM     14  C   UNL     1      18.437 -10.906   2.748 -0.51 -0.00    +0.000 A 
DOCKED: ATOM     15  C   UNL     1      19.545 -11.563   3.287 -0.61 -0.00    +0.000 A 
DOCKED: ATOM     16  C   UNL     1      20.633 -11.881   2.472 -0.63 -0.00    +0.000 A 
DOCKED: ATOM     17  C   UNL     1      20.612 -11.547   1.114 -0.64 -0.00    +0.000 A 
DOCKED: ENDBRANCH  10  12
DOCKED: ENDBRANCH   8  10
DOCKED: ENDBRANCH   1   8
DOCKED: BRANCH   3  18
DOCKED: ATOM     18  C   UNL     1      22.893 -11.449  -6.375 -0.37 -0.00    +0.000 C 
DOCKED: ATOM     19  C   UNL     1      22.846 -12.026  -7.586 -0.37 -0.00    +0.000 C 
DOCKED: BRANCH  19  20
DOCKED: ATOM     20  C   UNL     1      24.050 -12.393  -8.360 -0.47 -0.00    +0.000 C 
DOCKED: ATOM     21  N   UNL     1      23.997 -13.270  -9.494 -0.39 -0.00    +0.000 N 
DOCKED: ATOM     22  O   UNL     1      25.165 -11.938  -7.987 -0.75 -0.00    +0.000 OA
DOCKED: ATOM     23  H   UNL     1      23.154 -13.722  -9.725 -0.04 -0.00    +0.000 HD
DOCKED: BRANCH  21  24
DOCKED: ATOM     24  O   UNL     1      25.104 -13.476 -10.248 -0.40 -0.00    +0.000 OA
DOCKED: ATOM     25  H   UNL     1      25.889 -13.200  -9.751 -0.59 -0.00    +0.000 HD
DOCKED: ENDBRANCH  21  24
DOCKED: ENDBRANCH  19  20
DOCKED: ENDBRANCH   3  18
DOCKED: TORSDOF 6
DOCKED: TER
DOCKED: ENDMDL
________________________________________________________________________________


	BEGINNING GENETIC ALGORITHM DOCKING 98 of 100
Run: 98 Seed: 1461898696 1861634575 [ Run 98 of 100 GA/GALS ]
Beginning LAMARCKIAN GENETIC ALGORITHM (LGA), with a maximum of 2500000 energy evaluations.

Final-Value: -13.789


	FINAL GENETIC ALGORITHM DOCKED STATE
	_______________________________________________


Detailed state:  trans 20.699 -8.121 -0.527 quatxyzw -0.129811 0.061573 0.469300 0.871272 center 0.320 0.169 0.303 ntor 6 29.6519 25.8473 136.6118 -161.8487 -128.3549 -36.9207
State:	 20.699  -8.121  -0.527  -0.264  0.125  0.956 58.786     29.65   25.85  136.61 -161.85 -128.35  -36.92

DOCKED: MODEL       98
DOCKED: USER    Run = 98
DOCKED: USER    DPF = ligand_dock.biased.dpf
DOCKED: USER  
DOCKED: USER    Estimated Free Energy of Binding    =  -10.64 kcal/mol  [=(1)+(2)+(3)-(4)]
DOCKED: USER    Estimated Inhibition Constant, Ki   =   15.82 nM (nanomolar)  [Temperature = 298.15 K]
DOCKED: USER    
DOCKED: USER    (1) Final Intermolecular Energy     =  -12.43 kcal/mol
DOCKED: USER        vdW + Hbond + desolv Energy     =  -12.43 kcal/mol
DOCKED: USER        Electrostatic Energy            =   +0.00 kcal/mol
DOCKED: USER    (2) Final Total Internal Energy     =   -1.36 kcal/mol
DOCKED: USER    (3) Torsional Free Energy           =   +1.79 kcal/mol
DOCKED: USER    (4) Unbound System's Energy  [=(2)] =   -1.36 kcal/mol
DOCKED: USER    
DOCKED: USER    
DOCKED: USER    NEWDPF move ligand.pdbqt
DOCKED: USER    NEWDPF about 0.320000 0.169000 0.303000
DOCKED: USER    NEWDPF tran0 20.699084 -8.121067 -0.527104
DOCKED: USER    NEWDPF quaternion0 -0.129811 0.061573 0.469300 0.871272
DOCKED: USER    NEWDPF axisangle0 -0.264489 0.125455 0.956194 58.786303
DOCKED: USER    NEWDPF quat0 -0.264489 0.125455 0.956194 58.786303
DOCKED: USER    NEWDPF dihe0 29.65 25.85 136.61 -161.85 -128.35 -36.92 
DOCKED: USER  keepresnum = 1 
DOCKED: USER  
DOCKED: REMARK  Name = 
DOCKED: REMARK  6 active torsions:
DOCKED: REMARK  status: ('A' for Active; 'I' for Inactive)
DOCKED: REMARK    1  A    between atoms: S_2  and  N_3
DOCKED: REMARK    2  A    between atoms: S_2  and  C_10
DOCKED: REMARK    3  A    between atoms: N_3  and  C_4
DOCKED: REMARK    4  A    between atoms: C_12  and  C_13
DOCKED: REMARK    5  A    between atoms: C_14  and  C_15
DOCKED: REMARK    6  A    between atoms: N_16  and  O_17
DOCKED: REMARK                            x       y       z     vdW  Elec       q    Type
DOCKED: REMARK                         _______ _______ _______ _____ _____    ______ ____
DOCKED: USER                              x       y       z     vdW  Elec       q    Type
DOCKED: USER                           _______ _______ _______ _____ _____    ______ ____
DOCKED: ROOT
DOCKED: ATOM      1  C   UNL     1      21.340  -7.114  -2.554 -0.40 -0.00    +0.000 A 
DOCKED: ATOM      2  C   UNL     1      21.393  -7.971  -1.447 -0.33 -0.00    +0.000 A 
DOCKED: ATOM      3  C   UNL     1      21.090  -9.337  -1.581 -0.53 -0.00    +0.000 A 
DOCKED: ATOM      4  C   UNL     1      20.716  -9.829  -2.848 -0.46 -0.00    +0.000 A 
DOCKED: ATOM      5  C   UNL     1      20.671  -8.975  -3.953 -0.33 -0.00    +0.000 A 
DOCKED: ATOM      6  C   UNL     1      20.987  -7.622  -3.810 -0.30 -0.00    +0.000 A 
DOCKED: ENDROOT
DOCKED: BRANCH   1   8
DOCKED: ATOM      7  O   UNL     1      21.881  -4.742  -3.701 -0.20 -0.00    +0.000 OA
DOCKED: ATOM      8  S   UNL     1      21.714  -5.403  -2.362 -0.51 -0.00    +0.000 S 
DOCKED: ATOM      9  O   UNL     1      22.994  -5.273  -1.587 -0.63 +0.00    +0.000 OA
DOCKED: BRANCH   8  10
DOCKED: ATOM     10  N   UNL     1      20.438  -4.607  -1.494 -0.41 -0.00    +0.000 N 
DOCKED: ATOM     11  H   UNL     1      19.515  -4.914  -1.644 -0.04 -0.00    +0.000 HD
DOCKED: BRANCH  10  12
DOCKED: ATOM     12  C   UNL     1      20.649  -3.525  -0.568 -0.40 +0.00    +0.000 A 
DOCKED: ATOM     13  C   UNL     1      21.868  -2.821  -0.508 -0.32 +0.00    +0.000 A 
DOCKED: ATOM     14  C   UNL     1      22.033  -1.770   0.399 -0.29 -0.00    +0.000 A 
DOCKED: ATOM     15  C   UNL     1      20.990  -1.413   1.256 -0.37 -0.00    +0.000 A 
DOCKED: ATOM     16  C   UNL     1      19.780  -2.109   1.211 -0.38 -0.00    +0.000 A 
DOCKED: ATOM     17  C   UNL     1      19.610  -3.160   0.305 -0.24 -0.00    +0.000 A 
DOCKED: ENDBRANCH  10  12
DOCKED: ENDBRANCH   8  10
DOCKED: ENDBRANCH   1   8
DOCKED: BRANCH   3  18
DOCKED: ATOM     18  C   UNL     1      21.140 -10.195  -0.371 -0.71 -0.00    +0.000 C 
DOCKED: ATOM     19  C   UNL     1      20.223 -10.153   0.608 -0.61 -0.00    +0.000 C 
DOCKED: BRANCH  19  20
DOCKED: ATOM     20  C   UNL     1      20.277 -11.010   1.811 -0.74 -0.00    +0.000 C 
DOCKED: ATOM     21  N   UNL     1      20.393 -10.470   3.134 -0.64 -0.00    +0.000 N 
DOCKED: ATOM     22  O   UNL     1      20.247 -12.260   1.658 -1.69 -0.00    +0.000 OA
DOCKED: ATOM     23  H   UNL     1      20.532  -9.504   3.260 -0.59 -0.00    +0.000 HD
DOCKED: BRANCH  21  24
DOCKED: ATOM     24  O   UNL     1      20.309 -11.286   4.213 -0.77 -0.00    +0.000 OA
DOCKED: ATOM     25  H   UNL     1      20.634 -12.168   3.976 -0.53 -0.00    +0.000 HD
DOCKED: ENDBRANCH  21  24
DOCKED: ENDBRANCH  19  20
DOCKED: ENDBRANCH   3  18
DOCKED: TORSDOF 6
DOCKED: TER
DOCKED: ENDMDL
________________________________________________________________________________


	BEGINNING GENETIC ALGORITHM DOCKING 99 of 100
Run: 99 Seed: 1752457576 415586103 [ Run 99 of 100 GA/GALS ]
Beginning LAMARCKIAN GENETIC ALGORITHM (LGA), with a maximum of 2500000 energy evaluations.

Final-Value: -13.303


	FINAL GENETIC ALGORITHM DOCKED STATE
	_______________________________________________


Detailed state:  trans 20.103 -8.820 -0.796 quatxyzw -0.217484 0.197502 0.334624 0.895388 center 0.320 0.169 0.303 ntor 6 27.6470 177.0858 177.3618 -99.2263 162.6656 145.6977
State:	 20.103  -8.820  -0.796  -0.488  0.444  0.751 52.883     27.65  177.09  177.36  -99.23  162.67  145.70

DOCKED: MODEL       99
DOCKED: USER    Run = 99
DOCKED: USER    DPF = ligand_dock.biased.dpf
DOCKED: USER  
DOCKED: USER    Estimated Free Energy of Binding    =  -10.15 kcal/mol  [=(1)+(2)+(3)-(4)]
DOCKED: USER    Estimated Inhibition Constant, Ki   =   36.50 nM (nanomolar)  [Temperature = 298.15 K]
DOCKED: USER    
DOCKED: USER    (1) Final Intermolecular Energy     =  -11.94 kcal/mol
DOCKED: USER        vdW + Hbond + desolv Energy     =  -11.94 kcal/mol
DOCKED: USER        Electrostatic Energy            =   +0.00 kcal/mol
DOCKED: USER    (2) Final Total Internal Energy     =   -1.37 kcal/mol
DOCKED: USER    (3) Torsional Free Energy           =   +1.79 kcal/mol
DOCKED: USER    (4) Unbound System's Energy  [=(2)] =   -1.37 kcal/mol
DOCKED: USER    
DOCKED: USER    
DOCKED: USER    NEWDPF move ligand.pdbqt
DOCKED: USER    NEWDPF about 0.320000 0.169000 0.303000
DOCKED: USER    NEWDPF tran0 20.102807 -8.819668 -0.796079
DOCKED: USER    NEWDPF quaternion0 -0.217484 0.197502 0.334624 0.895388
DOCKED: USER    NEWDPF axisangle0 -0.488413 0.443539 0.751482 52.883274
DOCKED: USER    NEWDPF quat0 -0.488413 0.443539 0.751482 52.883274
DOCKED: USER    NEWDPF dihe0 27.65 177.09 177.36 -99.23 162.67 145.70 
DOCKED: USER  keepresnum = 1 
DOCKED: USER  
DOCKED: REMARK  Name = 
DOCKED: REMARK  6 active torsions:
DOCKED: REMARK  status: ('A' for Active; 'I' for Inactive)
DOCKED: REMARK    1  A    between atoms: S_2  and  N_3
DOCKED: REMARK    2  A    between atoms: S_2  and  C_10
DOCKED: REMARK    3  A    between atoms: N_3  and  C_4
DOCKED: REMARK    4  A    between atoms: C_12  and  C_13
DOCKED: REMARK    5  A    between atoms: C_14  and  C_15
DOCKED: REMARK    6  A    between atoms: N_16  and  O_17
DOCKED: REMARK                            x       y       z     vdW  Elec       q    Type
DOCKED: REMARK                         _______ _______ _______ _____ _____    ______ ____
DOCKED: USER                              x       y       z     vdW  Elec       q    Type
DOCKED: USER                           _______ _______ _______ _____ _____    ______ ____
DOCKED: ROOT
DOCKED: ATOM      1  C   UNL     1      21.153  -7.607  -2.517 -0.40 -0.00    +0.000 A 
DOCKED: ATOM      2  C   UNL     1      21.016  -8.476  -1.427 -0.44 -0.00    +0.000 A 
DOCKED: ATOM      3  C   UNL     1      21.098  -9.868  -1.603 -0.56 -0.00    +0.000 A 
DOCKED: ATOM      4  C   UNL     1      21.303 -10.378  -2.902 -0.48 -0.00    +0.000 A 
DOCKED: ATOM      5  C   UNL     1      21.447  -9.508  -3.987 -0.37 -0.00    +0.000 A 
DOCKED: ATOM      6  C   UNL     1      21.378  -8.127  -3.796 -0.33 -0.00    +0.000 A 
DOCKED: ENDROOT
DOCKED: BRANCH   1   8
DOCKED: ATOM      7  O   UNL     1      20.567  -5.554  -0.880 -0.53 +0.00    +0.000 OA
DOCKED: ATOM      8  S   UNL     1      21.037  -5.866  -2.274 -0.54 -0.00    +0.000 S 
DOCKED: ATOM      9  O   UNL     1      20.054  -5.305  -3.260 -0.25 -0.00    +0.000 OA
DOCKED: BRANCH   8  10
DOCKED: ATOM     10  N   UNL     1      22.587  -5.123  -2.526 -0.31 -0.00    +0.000 N 
DOCKED: ATOM     11  H   UNL     1      23.217  -5.565  -3.140 -0.01 -0.00    +0.000 HD
DOCKED: BRANCH  10  12
DOCKED: ATOM     12  C   UNL     1      23.004  -3.900  -1.892 -0.29 +0.00    +0.000 A 
DOCKED: ATOM     13  C   UNL     1      24.350  -3.484  -1.885 -0.29 -0.00    +0.000 A 
DOCKED: ATOM     14  C   UNL     1      24.716  -2.285  -1.266 -0.23 -0.00    +0.000 A 
DOCKED: ATOM     15  C   UNL     1      23.748  -1.492  -0.646 -0.24 -0.00    +0.000 A 
DOCKED: ATOM     16  C   UNL     1      22.412  -1.898  -0.640 -0.26 -0.00    +0.000 A 
DOCKED: ATOM     17  C   UNL     1      22.041  -3.096  -1.259 -0.29 +0.00    +0.000 A 
DOCKED: ENDBRANCH  10  12
DOCKED: ENDBRANCH   8  10
DOCKED: ENDBRANCH   1   8
DOCKED: BRANCH   3  18
DOCKED: ATOM     18  C   UNL     1      20.924 -10.744  -0.418 -0.64 -0.00    +0.000 C 
DOCKED: ATOM     19  C   UNL     1      20.619 -10.287   0.806 -0.65 -0.00    +0.000 C 
DOCKED: BRANCH  19  20
DOCKED: ATOM     20  C   UNL     1      20.447 -11.163   1.983 -0.74 -0.00    +0.000 C 
DOCKED: ATOM     21  N   UNL     1      20.558 -10.675   3.327 -0.68 -0.00    +0.000 N 
DOCKED: ATOM     22  O   UNL     1      20.222 -12.388   1.791 -1.71 -0.00    +0.000 OA
DOCKED: ATOM     23  H   UNL     1      20.846  -9.749   3.491 -0.57 -0.00    +0.000 HD
DOCKED: BRANCH  21  24
DOCKED: ATOM     24  O   UNL     1      20.265 -11.487   4.372 -0.76 -0.00    +0.000 OA
DOCKED: ATOM     25  H   UNL     1      20.426 -12.409   4.120 -0.37 -0.00    +0.000 HD
DOCKED: ENDBRANCH  21  24
DOCKED: ENDBRANCH  19  20
DOCKED: ENDBRANCH   3  18
DOCKED: TORSDOF 6
DOCKED: TER
DOCKED: ENDMDL
________________________________________________________________________________


	BEGINNING GENETIC ALGORITHM DOCKING 100 of 100
Run: 100 Seed: 1473901755 1569203703 [ Run 100 of 100 GA/GALS ]
Beginning LAMARCKIAN GENETIC ALGORITHM (LGA), with a maximum of 2500000 energy evaluations.

Final-Value: -14.444


	FINAL GENETIC ALGORITHM DOCKED STATE
	_______________________________________________


Detailed state:  trans 17.389 -8.960 3.105 quatxyzw 0.209094 0.505438 0.789319 0.278905 center 0.320 0.169 0.303 ntor 6 5.9941 19.1484 119.5854 -14.6106 -103.8242 -48.7385
State:	 17.389  -8.960   3.105   0.218  0.526  0.822 147.610      5.99   19.15  119.59  -14.61 -103.82  -48.74

DOCKED: MODEL      100
DOCKED: USER    Run = 100
DOCKED: USER    DPF = ligand_dock.biased.dpf
DOCKED: USER  
DOCKED: USER    Estimated Free Energy of Binding    =  -11.01 kcal/mol  [=(1)+(2)+(3)-(4)]
DOCKED: USER    Estimated Inhibition Constant, Ki   =    8.53 nM (nanomolar)  [Temperature = 298.15 K]
DOCKED: USER    
DOCKED: USER    (1) Final Intermolecular Energy     =  -12.80 kcal/mol
DOCKED: USER        vdW + Hbond + desolv Energy     =  -12.80 kcal/mol
DOCKED: USER        Electrostatic Energy            =   +0.00 kcal/mol
DOCKED: USER    (2) Final Total Internal Energy     =   -1.65 kcal/mol
DOCKED: USER    (3) Torsional Free Energy           =   +1.79 kcal/mol
DOCKED: USER    (4) Unbound System's Energy  [=(2)] =   -1.65 kcal/mol
DOCKED: USER    
DOCKED: USER    
DOCKED: USER    NEWDPF move ligand.pdbqt
DOCKED: USER    NEWDPF about 0.320000 0.169000 0.303000
DOCKED: USER    NEWDPF tran0 17.389147 -8.959729 3.104826
DOCKED: USER    NEWDPF quaternion0 0.209094 0.505438 0.789319 0.278905
DOCKED: USER    NEWDPF axisangle0 0.217734 0.526323 0.821934 147.610244
DOCKED: USER    NEWDPF quat0 0.217734 0.526323 0.821934 147.610244
DOCKED: USER    NEWDPF dihe0 5.99 19.15 119.59 -14.61 -103.82 -48.74 
DOCKED: USER  keepresnum = 1 
DOCKED: USER  
DOCKED: REMARK  Name = 
DOCKED: REMARK  6 active torsions:
DOCKED: REMARK  status: ('A' for Active; 'I' for Inactive)
DOCKED: REMARK    1  A    between atoms: S_2  and  N_3
DOCKED: REMARK    2  A    between atoms: S_2  and  C_10
DOCKED: REMARK    3  A    between atoms: N_3  and  C_4
DOCKED: REMARK    4  A    between atoms: C_12  and  C_13
DOCKED: REMARK    5  A    between atoms: C_14  and  C_15
DOCKED: REMARK    6  A    between atoms: N_16  and  O_17
DOCKED: REMARK                            x       y       z     vdW  Elec       q    Type
DOCKED: REMARK                         _______ _______ _______ _____ _____    ______ ____
DOCKED: USER                              x       y       z     vdW  Elec       q    Type
DOCKED: USER                           _______ _______ _______ _____ _____    ______ ____
DOCKED: ROOT
DOCKED: ATOM      1  C   UNL     1      17.930 -11.078   2.237 -0.45 -0.00    +0.000 A 
DOCKED: ATOM      2  C   UNL     1      17.376 -10.121   3.097 -0.33 +0.00    +0.000 A 
DOCKED: ATOM      3  C   UNL     1      15.996  -9.855   3.082 -0.39 +0.00    +0.000 A 
DOCKED: ATOM      4  C   UNL     1      15.179 -10.556   2.171 -0.34 +0.00    +0.000 A 
DOCKED: ATOM      5  C   UNL     1      15.733 -11.515   1.319 -0.38 +0.00    +0.000 A 
DOCKED: ATOM      6  C   UNL     1      17.103 -11.781   1.354 -0.41 +0.00    +0.000 A 
DOCKED: ENDROOT
DOCKED: BRANCH   1   8
DOCKED: ATOM      7  O   UNL     1      19.966 -12.767   1.746 -1.54 -0.00    +0.000 OA
DOCKED: ATOM      8  S   UNL     1      19.664 -11.389   2.267 -0.90 -0.00    +0.000 S 
DOCKED: ATOM      9  O   UNL     1      20.149 -11.284   3.684 -0.85 -0.00    +0.000 OA
DOCKED: BRANCH   8  10
DOCKED: ATOM     10  N   UNL     1      20.498 -10.221   1.289 -0.56 -0.00    +0.000 N 
DOCKED: ATOM     11  H   UNL     1      21.084  -9.573   1.742 -0.54 -0.00    +0.000 HD
DOCKED: BRANCH  10  12
DOCKED: ATOM     12  C   UNL     1      20.383 -10.145  -0.144 -0.56 -0.00    +0.000 A 
DOCKED: ATOM     13  C   UNL     1      19.450 -10.919  -0.861 -0.45 -0.00    +0.000 A 
DOCKED: ATOM     14  C   UNL     1      19.362 -10.811  -2.252 -0.39 -0.00    +0.000 A 
DOCKED: ATOM     15  C   UNL     1      20.204  -9.936  -2.942 -0.41 -0.00    +0.000 A 
DOCKED: ATOM     16  C   UNL     1      21.137  -9.169  -2.243 -0.48 -0.00    +0.000 A 
DOCKED: ATOM     17  C   UNL     1      21.228  -9.272  -0.851 -0.56 -0.00    +0.000 A 
DOCKED: ENDBRANCH  10  12
DOCKED: ENDBRANCH   8  10
DOCKED: ENDBRANCH   1   8
DOCKED: BRANCH   3  18
DOCKED: ATOM     18  C   UNL     1      15.465  -8.816   3.998 -0.37 +0.00    +0.000 C 
DOCKED: ATOM     19  C   UNL     1      15.227  -7.549   3.627 -0.34 +0.00    +0.000 C 
DOCKED: BRANCH  19  20
DOCKED: ATOM     20  C   UNL     1      14.698  -6.517   4.544 -0.41 +0.00    +0.000 C 
DOCKED: ATOM     21  N   UNL     1      15.537  -5.524   5.149 -0.47 +0.00    +0.000 N 
DOCKED: ATOM     22  O   UNL     1      13.469  -6.535   4.822 -0.33 +0.00    +0.000 OA
DOCKED: ATOM     23  H   UNL     1      16.513  -5.568   5.032 -0.63 -0.00    +0.000 HD
DOCKED: BRANCH  21  24
DOCKED: ATOM     24  O   UNL     1      14.989  -4.522   5.879 -0.64 +0.00    +0.000 OA
DOCKED: ATOM     25  H   UNL     1      14.036  -4.676   5.974 -0.04 +0.00    +0.000 HD
DOCKED: ENDBRANCH  21  24
DOCKED: ENDBRANCH  19  20
DOCKED: ENDBRANCH   3  18
DOCKED: TORSDOF 6
DOCKED: TER
DOCKED: ENDMDL
________________________________________________________________________________

DPF>                           # do this many hybrid GA-LS runs

DPF> analysis                             # perform a ranked cluster analysis


		CLUSTER ANALYSIS OF CONFORMATIONS
		_________________________________

Number of conformations = 100

RMSD cluster analysis will be performed using the ligand atoms only (25 / 25 total atoms).

Outputting structurally similar clusters, ranked in order of increasing energy.


________________________________________________________________________________

Number of distinct conformational clusters found = 18,  out of 100 runs,
Using an rmsd-tolerance of 2.0 A


	CLUSTERING HISTOGRAM
	____________________

________________________________________________________________________________
     |           |     |           |     |                                    
Clus | Lowest    | Run | Mean      | Num | Histogram                          
-ter | Binding   |     | Binding   | in  |                                    
Rank | Energy    |     | Energy    | Clus|    5    10   15   20   25   30   35
_____|___________|_____|___________|_____|____:____|____:____|____:____|____:___
   1 |    -11.36 |  34 |    -10.81 |  26 |##########################
   2 |    -11.23 |  30 |    -10.95 |   9 |#########
   3 |    -11.13 |  27 |    -10.51 |  14 |##############
   4 |    -10.64 |  98 |    -10.28 |  14 |##############
   5 |    -10.39 |  42 |    -10.25 |   5 |#####
   6 |    -10.33 |  81 |    -10.33 |   1 |#
   7 |    -10.04 |  89 |     -9.85 |   2 |##
   8 |     -9.99 |  82 |     -9.59 |   3 |###
   9 |     -9.77 |  74 |     -9.16 |   3 |###
  10 |     -9.67 |  29 |     -9.29 |  10 |##########
  11 |     -9.65 |  97 |     -9.65 |   1 |#
  12 |     -9.47 |  80 |     -9.38 |   2 |##
  13 |     -9.47 |  87 |     -9.47 |   1 |#
  14 |     -9.41 |  77 |     -9.08 |   5 |#####
  15 |     -9.02 |  71 |     -9.02 |   1 |#
  16 |     -8.86 |  61 |     -8.86 |   1 |#
  17 |     -8.83 |  92 |     -8.83 |   1 |#
  18 |     -8.47 |  83 |     -8.47 |   1 |#
_____|___________|_____|___________|_____|______________________________________


Number of multi-member conformational clusters found = 11, out of 100 runs.

	RMSD TABLE
	__________

_____________________________________________________________________
     |      |      |           |         |                 |
Rank | Sub- | Run  | Binding   | Cluster | Reference       | Grep
     | Rank |      | Energy    | RMSD    | RMSD            | Pattern
_____|______|______|___________|_________|_________________|___________
   1      1     34      -11.36      0.00     21.42           RANKING
   1      2     16      -11.34      1.29     21.89           RANKING
   1      3     73      -11.28      1.31     21.96           RANKING
   1      4     21      -11.18      0.21     21.36           RANKING
   1      5     54      -11.18      0.49     21.59           RANKING
   1      6     60      -11.17      1.15     21.81           RANKING
   1      7     39      -11.09      0.33     21.36           RANKING
   1      8     40      -11.06      1.15     21.76           RANKING
   1      9     46      -11.05      1.17     21.75           RANKING
   1     10     19      -11.04      0.52     21.28           RANKING
   1     11      1      -10.97      1.27     21.72           RANKING
   1     12      3      -10.95      1.26     21.85           RANKING
   1     13     51      -10.93      1.43     21.63           RANKING
   1     14     86      -10.89      1.25     21.75           RANKING
   1     15     75      -10.88      1.32     21.90           RANKING
   1     16     14      -10.81      1.18     21.72           RANKING
   1     17     10      -10.75      1.22     21.73           RANKING
   1     18      4      -10.70      1.34     21.04           RANKING
   1     19      5      -10.63      0.62     21.65           RANKING
   1     20     72      -10.59      1.35     21.03           RANKING
   1     21     53      -10.55      0.80     21.67           RANKING
   1     22     25      -10.50      1.32     21.77           RANKING
   1     23     50      -10.29      1.66     21.95           RANKING
   1     24     63      -10.27      1.31     21.10           RANKING
   1     25     58      -10.22      0.97     21.79           RANKING
   1     26     18       -9.24      1.59     20.47           RANKING
   2      1     30      -11.23      0.00     17.48           RANKING
   2      2     96      -11.17      0.68     17.56           RANKING
   2      3     70      -11.15      0.85     17.50           RANKING
   2      4    100      -11.01      0.47     17.41           RANKING
   2      5     11      -11.00      0.52     17.40           RANKING
   2      6     35      -10.96      0.48     17.41           RANKING
   2      7     52      -10.93      0.95     17.52           RANKING
   2      8     91      -10.78      0.58     17.56           RANKING
   2      9     59      -10.36      1.73     16.97           RANKING
   3      1     27      -11.13      0.00     20.07           RANKING
   3      2     12      -11.05      0.28     19.98           RANKING
   3      3     44      -10.84      1.11     19.90           RANKING
   3      4     68      -10.79      0.53     19.97           RANKING
   3      5     22      -10.74      1.14     20.08           RANKING
   3      6     88      -10.56      0.89     19.96           RANKING
   3      7     78      -10.52      0.93     20.10           RANKING
   3      8     41      -10.49      0.60     19.91           RANKING
   3      9     56      -10.42      0.49     19.99           RANKING
   3     10     26      -10.37      1.04     20.20           RANKING
   3     11      2      -10.36      1.13     20.37           RANKING
   3     12     76      -10.15      1.40     19.56           RANKING
   3     13     66      -10.03      1.12     20.04           RANKING
   3     14     85       -9.70      1.66     20.48           RANKING
   4      1     98      -10.64      0.00     19.34           RANKING
   4      2     23      -10.60      0.25     19.36           RANKING
   4      3     33      -10.52      0.33     19.38           RANKING
   4      4      9      -10.51      0.41     19.36           RANKING
   4      5     45      -10.34      0.31     19.38           RANKING
   4      6     62      -10.34      0.38     19.38           RANKING
   4      7     84      -10.33      0.36     19.36           RANKING
   4      8     95      -10.26      1.51     20.07           RANKING
   4      9     55      -10.20      0.41     19.43           RANKING
   4     10     99      -10.15      1.61     20.17           RANKING
   4     11     94      -10.08      1.55     20.10           RANKING
   4     12      7      -10.00      1.29     19.91           RANKING
   4     13     15       -9.99      0.57     19.35           RANKING
   4     14     36       -9.93      1.58     20.08           RANKING
   5      1     42      -10.39      0.00     19.91           RANKING
   5      2     49      -10.30      0.68     20.15           RANKING
   5      3      8      -10.24      0.69     20.19           RANKING
   5      4     38      -10.18      1.09     19.58           RANKING
   5      5      6      -10.14      1.10     19.62           RANKING
   6      1     81      -10.33      0.00     22.87           RANKING
   7      1     89      -10.04      0.00     15.78           RANKING
   7      2     28       -9.65      0.66     15.72           RANKING
   8      1     82       -9.99      0.00     19.19           RANKING
   8      2     20       -9.43      0.52     19.12           RANKING
   8      3     57       -9.36      0.52     19.11           RANKING
   9      1     74       -9.77      0.00     18.98           RANKING
   9      2     93       -8.86      1.56     19.08           RANKING
   9      3     17       -8.84      1.62     19.10           RANKING
  10      1     29       -9.67      0.00     19.29           RANKING
  10      2     24       -9.55      0.63     19.20           RANKING
  10      3     65       -9.50      1.62     19.09           RANKING
  10      4     90       -9.47      0.85     19.34           RANKING
  10      5     69       -9.47      1.44     19.12           RANKING
  10      6     31       -9.37      0.59     19.19           RANKING
  10      7     67       -9.21      0.82     19.10           RANKING
  10      8     48       -8.91      1.77     18.39           RANKING
  10      9     43       -8.90      1.97     18.32           RANKING
  10     10     47       -8.84      1.91     18.35           RANKING
  11      1     97       -9.65      0.00     22.34           RANKING
  12      1     80       -9.47      0.00     16.11           RANKING
  12      2     79       -9.28      1.86     16.04           RANKING
  13      1     87       -9.47      0.00     16.47           RANKING
  14      1     77       -9.41      0.00     18.53           RANKING
  14      2     37       -9.10      1.24     18.15           RANKING
  14      3     64       -8.99      1.35     18.22           RANKING
  14      4     32       -8.97      1.90     18.98           RANKING
  14      5     13       -8.91      1.01     18.01           RANKING
  15      1     71       -9.02      0.00     16.10           RANKING
  16      1     61       -8.86      0.00     18.12           RANKING
  17      1     92       -8.83      0.00     17.22           RANKING
  18      1     83       -8.47      0.00     18.28           RANKING
_______________________________________________________________________



	INFORMATION ENTROPY ANALYSIS FOR THIS CLUSTERING
	________________________________________________


Information entropy for this clustering = 0.51  (rmstol = 2.00 Angstrom)

_______________________________________________________________________


	STATISTICAL MECHANICAL ANALYSIS
	_______________________________


Partition function, Q =   101.74            at Temperature, T = 298.15 K
Free energy,        A ~ -2738.67 kcal/mol   at Temperature, T = 298.15 K
Internal energy,    U =   -10.20 kcal/mol   at Temperature, T = 298.15 K
Entropy,            S =     9.15 kcal/mol/K at Temperature, T = 298.15 K

_______________________________________________________________________


	LOWEST ENERGY DOCKED CONFORMATION from EACH CLUSTER
	___________________________________________________



Keeping original residue number (specified in the input PDBQ file) for outputting.

MODEL       34
USER    Run = 34
USER    Cluster Rank = 1
USER    Number of conformations in this cluster = 26
USER  
USER    RMSD from reference structure       = 21.416 A
USER  
USER    Estimated Free Energy of Binding    =  -11.36 kcal/mol  [=(1)+(2)+(3)-(4)]
USER    Estimated Inhibition Constant, Ki   =    4.74 nM (nanomolar)  [Temperature = 298.15 K]
USER    
USER    (1) Final Intermolecular Energy     =  -13.15 kcal/mol
USER        vdW + Hbond + desolv Energy     =  -13.15 kcal/mol
USER        Electrostatic Energy            =   +0.00 kcal/mol
USER    (2) Final Total Internal Energy     =   -1.51 kcal/mol
USER    (3) Torsional Free Energy           =   +1.79 kcal/mol
USER    (4) Unbound System's Energy  [=(2)] =   -1.51 kcal/mol
USER    
USER    
USER  
USER    DPF = ligand_dock.biased.dpf
USER    NEWDPF move	ligand.pdbqt
USER    NEWDPF about	0.320000 0.169000 0.303000
USER    NEWDPF tran0	21.558621 -11.243658 -1.920147
USER    NEWDPF axisangle0	-0.329721 0.297018 -0.896138 136.422675
USER    NEWDPF quaternion0	-0.306166 0.275799 -0.832118 0.371184
USER    NEWDPF dihe0	29.80 34.07 72.97 -17.42 100.40 -56.68 
USER  
USER                              x       y       z    vdW   Elec        q     RMS 
ATOM      1  C   UNL     1      20.747 -10.165  -3.847 -0.42 -0.00    +0.000    21.416
ATOM      2  C   UNL     1      20.794 -10.604  -2.517 -0.45 -0.00    +0.000    21.416
ATOM      3  C   UNL     1      21.109  -9.713  -1.477 -0.56 -0.00    +0.000    21.416
ATOM      4  C   UNL     1      21.394  -8.369  -1.796 -0.45 -0.00    +0.000    21.416
ATOM      5  C   UNL     1      21.339  -7.932  -3.122 -0.37 -0.00    +0.000    21.416
ATOM      6  C   UNL     1      21.011  -8.824  -4.145 -0.33 -0.00    +0.000    21.416
ATOM      7  O   UNL     1      19.628 -10.610  -6.252 -0.33 -0.00    +0.000    21.416
ATOM      8  S   UNL     1      20.359 -11.302  -5.136 -0.62 -0.00    +0.000    21.416
ATOM      9  O   UNL     1      19.486 -12.387  -4.576 -0.56 -0.00    +0.000    21.416
ATOM     10  N   UNL     1      21.815 -12.009  -5.767 -0.48 -0.00    +0.000    21.416
ATOM     11  H   UNL     1      21.989 -12.958  -5.573 -0.44 -0.00    +0.000    21.416
ATOM     12  C   UNL     1      22.780 -11.290  -6.555 -0.39 -0.00    +0.000    21.416
ATOM     13  C   UNL     1      22.891  -9.886  -6.503 -0.24 -0.00    +0.000    21.416
ATOM     14  C   UNL     1      23.848  -9.223  -7.278 -0.23 -0.00    +0.000    21.416
ATOM     15  C   UNL     1      24.698  -9.949  -8.114 -0.26 -0.00    +0.000    21.416
ATOM     16  C   UNL     1      24.593 -11.340  -8.180 -0.38 -0.00    +0.000    21.416
ATOM     17  C   UNL     1      23.639 -12.008  -7.406 -0.48 -0.00    +0.000    21.416
ATOM     18  C   UNL     1      21.167 -10.236  -0.090 -0.71 -0.00    +0.000    21.416
ATOM     19  C   UNL     1      20.135 -10.835   0.523 -0.66 -0.00    +0.000    21.416
ATOM     20  C   UNL     1      20.198 -11.354   1.905 -0.76 -0.00    +0.000    21.416
ATOM     21  N   UNL     1      20.591 -10.537   3.016 -0.64 -0.00    +0.000    21.416
ATOM     22  O   UNL     1      19.922 -12.568   2.103 -1.60 -0.00    +0.000    21.416
ATOM     23  H   UNL     1      20.919  -9.622   2.860 -0.59 -0.00    +0.000    21.416
ATOM     24  O   UNL     1      20.510 -11.020   4.279 -0.71 -0.00    +0.000    21.416
ATOM     25  H   UNL     1      20.637 -11.981   4.266 -0.48 -0.00    +0.000    21.416
TER
ENDMDL
MODEL       30
USER    Run = 30
USER    Cluster Rank = 2
USER    Number of conformations in this cluster = 9
USER  
USER    RMSD from reference structure       = 17.476 A
USER  
USER    Estimated Free Energy of Binding    =  -11.23 kcal/mol  [=(1)+(2)+(3)-(4)]
USER    Estimated Inhibition Constant, Ki   =    5.87 nM (nanomolar)  [Temperature = 298.15 K]
USER    
USER    (1) Final Intermolecular Energy     =  -13.02 kcal/mol
USER        vdW + Hbond + desolv Energy     =  -13.02 kcal/mol
USER        Electrostatic Energy            =   +0.00 kcal/mol
USER    (2) Final Total Internal Energy     =   -1.59 kcal/mol
USER    (3) Torsional Free Energy           =   +1.79 kcal/mol
USER    (4) Unbound System's Energy  [=(2)] =   -1.59 kcal/mol
USER    
USER    
USER  
USER    DPF = ligand_dock.biased.dpf
USER    NEWDPF move	ligand.pdbqt
USER    NEWDPF about	0.320000 0.169000 0.303000
USER    NEWDPF tran0	17.288684 -9.112496 3.217549
USER    NEWDPF axisangle0	-0.132925 -0.452997 -0.881547 -149.788586
USER    NEWDPF quaternion0	-0.128332 -0.437345 -0.851086 -0.260601
USER    NEWDPF dihe0	1.55 12.22 -180.00 -9.36 -129.23 -62.30 
USER  
USER                              x       y       z    vdW   Elec        q     RMS 
ATOM      1  C   UNL     1      17.949 -11.020   2.010 -0.45 -0.00    +0.000    17.476
ATOM      2  C   UNL     1      17.281 -10.247   2.969 -0.41 +0.00    +0.000    17.476
ATOM      3  C   UNL     1      15.915  -9.950   2.827 -0.38 +0.00    +0.000    17.476
ATOM      4  C   UNL     1      15.229 -10.430   1.692 -0.30 +0.00    +0.000    17.476
ATOM      5  C   UNL     1      15.896 -11.207   0.740 -0.34 +0.00    +0.000    17.476
ATOM      6  C   UNL     1      17.250 -11.507   0.900 -0.42 +0.00    +0.000    17.476
ATOM      7  O   UNL     1      19.975 -12.770   1.744 -1.53 -0.00    +0.000    17.476
ATOM      8  S   UNL     1      19.665 -11.372   2.203 -0.90 -0.00    +0.000    17.476
ATOM      9  O   UNL     1      20.024 -11.243   3.655 -0.85 -0.00    +0.000    17.476
ATOM     10  N   UNL     1      20.613 -10.250   1.278 -0.57 -0.00    +0.000    17.476
ATOM     11  H   UNL     1      21.232  -9.658   1.763 -0.55 -0.00    +0.000    17.476
ATOM     12  C   UNL     1      20.548 -10.134  -0.155 -0.58 -0.00    +0.000    17.476
ATOM     13  C   UNL     1      19.678 -10.926  -0.930 -0.45 -0.00    +0.000    17.476
ATOM     14  C   UNL     1      19.636 -10.779  -2.320 -0.39 -0.00    +0.000    17.476
ATOM     15  C   UNL     1      20.462  -9.846  -2.951 -0.43 -0.00    +0.000    17.476
ATOM     16  C   UNL     1      21.334  -9.061  -2.194 -0.46 -0.00    +0.000    17.476
ATOM     17  C   UNL     1      21.378  -9.204  -0.804 -0.54 -0.00    +0.000    17.476
ATOM     18  C   UNL     1      15.262  -9.109   3.860 -0.41 +0.00    +0.000    17.476
ATOM     19  C   UNL     1      15.484  -7.792   3.996 -0.38 +0.00    +0.000    17.476
ATOM     20  C   UNL     1      14.831  -6.959   5.027 -0.46 +0.00    +0.000    17.476
ATOM     21  N   UNL     1      15.340  -5.675   5.412 -0.45 +0.00    +0.000    17.476
ATOM     22  O   UNL     1      13.806  -7.411   5.604 -0.47 +0.00    +0.000    17.476
ATOM     23  H   UNL     1      16.201  -5.360   5.053 -0.38 -0.00    +0.000    17.476
ATOM     24  O   UNL     1      14.638  -4.892   6.267 -0.88 +0.00    +0.000    17.476
ATOM     25  H   UNL     1      13.832  -5.356   6.541 -0.04 +0.00    +0.000    17.476
TER
ENDMDL
MODEL       27
USER    Run = 27
USER    Cluster Rank = 3
USER    Number of conformations in this cluster = 14
USER  
USER    RMSD from reference structure       = 20.067 A
USER  
USER    Estimated Free Energy of Binding    =  -11.13 kcal/mol  [=(1)+(2)+(3)-(4)]
USER    Estimated Inhibition Constant, Ki   =    6.97 nM (nanomolar)  [Temperature = 298.15 K]
USER    
USER    (1) Final Intermolecular Energy     =  -12.92 kcal/mol
USER        vdW + Hbond + desolv Energy     =  -12.92 kcal/mol
USER        Electrostatic Energy            =   +0.00 kcal/mol
USER    (2) Final Total Internal Energy     =   -1.75 kcal/mol
USER    (3) Torsional Free Energy           =   +1.79 kcal/mol
USER    (4) Unbound System's Energy  [=(2)] =   -1.75 kcal/mol
USER    
USER    
USER  
USER    DPF = ligand_dock.biased.dpf
USER    NEWDPF move	ligand.pdbqt
USER    NEWDPF about	0.320000 0.169000 0.303000
USER    NEWDPF tran0	22.156851 -10.910142 -1.889322
USER    NEWDPF axisangle0	0.289167 -0.279262 0.915639 -150.261615
USER    NEWDPF quaternion0	0.279484 -0.269911 0.884978 -0.256613
USER    NEWDPF dihe0	25.46 -52.12 63.14 101.79 97.71 105.13 
USER  
USER                              x       y       z    vdW   Elec        q     RMS 
ATOM      1  C   UNL     1      21.393  -9.983  -3.912 -0.43 -0.00    +0.000    20.067
ATOM      2  C   UNL     1      21.358 -10.436  -2.587 -0.49 -0.00    +0.000    20.067
ATOM      3  C   UNL     1      21.330  -9.525  -1.517 -0.53 -0.00    +0.000    20.067
ATOM      4  C   UNL     1      21.355  -8.144  -1.799 -0.44 -0.00    +0.000    20.067
ATOM      5  C   UNL     1      21.383  -7.694  -3.122 -0.37 -0.00    +0.000    20.067
ATOM      6  C   UNL     1      21.397  -8.608  -4.176 -0.32 -0.00    +0.000    20.067
ATOM      7  O   UNL     1      22.515 -12.167  -5.011 -0.66 -0.00    +0.000    20.067
ATOM      8  S   UNL     1      21.438 -11.142  -5.238 -0.66 -0.00    +0.000    20.067
ATOM      9  O   UNL     1      21.724 -10.406  -6.514 -0.34 -0.00    +0.000    20.067
ATOM     10  N   UNL     1      19.908 -11.952  -5.375 -0.45 -0.00    +0.000    20.067
ATOM     11  H   UNL     1      19.909 -12.934  -5.442 -0.53 -0.00    +0.000    20.067
ATOM     12  C   UNL     1      18.639 -11.273  -5.397 -0.35 -0.00    +0.000    20.067
ATOM     13  C   UNL     1      18.174 -10.523  -4.299 -0.26 -0.00    +0.000    20.067
ATOM     14  C   UNL     1      16.940  -9.870  -4.361 -0.21 -0.00    +0.000    20.067
ATOM     15  C   UNL     1      16.156  -9.960  -5.513 -0.17 -0.00    +0.000    20.067
ATOM     16  C   UNL     1      16.603 -10.706  -6.605 -0.24 -0.00    +0.000    20.067
ATOM     17  C   UNL     1      17.838 -11.361  -6.548 -0.33 -0.00    +0.000    20.067
ATOM     18  C   UNL     1      21.315 -10.059  -0.132 -0.71 -0.00    +0.000    20.067
ATOM     19  C   UNL     1      20.339 -10.841   0.353 -0.67 -0.00    +0.000    20.067
ATOM     20  C   UNL     1      20.329 -11.370   1.732 -0.76 -0.00    +0.000    20.067
ATOM     21  N   UNL     1      20.644 -10.556   2.870 -0.62 -0.00    +0.000    20.067
ATOM     22  O   UNL     1      20.060 -12.590   1.905 -1.58 -0.00    +0.000    20.067
ATOM     23  H   UNL     1      20.966  -9.635   2.740 -0.58 -0.00    +0.000    20.067
ATOM     24  O   UNL     1      20.497 -11.051   4.123 -0.74 -0.00    +0.000    20.067
ATOM     25  H   UNL     1      20.571 -12.017   4.100 -0.47 -0.00    +0.000    20.067
TER
ENDMDL
MODEL       98
USER    Run = 98
USER    Cluster Rank = 4
USER    Number of conformations in this cluster = 14
USER  
USER    RMSD from reference structure       = 19.342 A
USER  
USER    Estimated Free Energy of Binding    =  -10.64 kcal/mol  [=(1)+(2)+(3)-(4)]
USER    Estimated Inhibition Constant, Ki   =   15.82 nM (nanomolar)  [Temperature = 298.15 K]
USER    
USER    (1) Final Intermolecular Energy     =  -12.43 kcal/mol
USER        vdW + Hbond + desolv Energy     =  -12.43 kcal/mol
USER        Electrostatic Energy            =   +0.00 kcal/mol
USER    (2) Final Total Internal Energy     =   -1.36 kcal/mol
USER    (3) Torsional Free Energy           =   +1.79 kcal/mol
USER    (4) Unbound System's Energy  [=(2)] =   -1.36 kcal/mol
USER    
USER    
USER  
USER    DPF = ligand_dock.biased.dpf
USER    NEWDPF move	ligand.pdbqt
USER    NEWDPF about	0.320000 0.169000 0.303000
USER    NEWDPF tran0	20.699084 -8.121067 -0.527104
USER    NEWDPF axisangle0	-0.264489 0.125455 0.956194 58.786303
USER    NEWDPF quaternion0	-0.129811 0.061573 0.469300 0.871272
USER    NEWDPF dihe0	29.65 25.85 136.61 -161.85 -128.35 -36.92 
USER  
USER                              x       y       z    vdW   Elec        q     RMS 
ATOM      1  C   UNL     1      21.340  -7.114  -2.554 -0.40 -0.00    +0.000    19.342
ATOM      2  C   UNL     1      21.393  -7.971  -1.447 -0.33 -0.00    +0.000    19.342
ATOM      3  C   UNL     1      21.090  -9.337  -1.581 -0.53 -0.00    +0.000    19.342
ATOM      4  C   UNL     1      20.716  -9.829  -2.848 -0.46 -0.00    +0.000    19.342
ATOM      5  C   UNL     1      20.671  -8.975  -3.953 -0.33 -0.00    +0.000    19.342
ATOM      6  C   UNL     1      20.987  -7.622  -3.810 -0.30 -0.00    +0.000    19.342
ATOM      7  O   UNL     1      21.881  -4.742  -3.701 -0.20 -0.00    +0.000    19.342
ATOM      8  S   UNL     1      21.714  -5.403  -2.362 -0.51 -0.00    +0.000    19.342
ATOM      9  O   UNL     1      22.994  -5.273  -1.587 -0.63 +0.00    +0.000    19.342
ATOM     10  N   UNL     1      20.438  -4.607  -1.494 -0.41 -0.00    +0.000    19.342
ATOM     11  H   UNL     1      19.515  -4.914  -1.644 -0.04 -0.00    +0.000    19.342
ATOM     12  C   UNL     1      20.649  -3.525  -0.568 -0.40 +0.00    +0.000    19.342
ATOM     13  C   UNL     1      21.868  -2.821  -0.508 -0.32 +0.00    +0.000    19.342
ATOM     14  C   UNL     1      22.033  -1.770   0.399 -0.29 -0.00    +0.000    19.342
ATOM     15  C   UNL     1      20.990  -1.413   1.256 -0.37 -0.00    +0.000    19.342
ATOM     16  C   UNL     1      19.780  -2.109   1.211 -0.38 -0.00    +0.000    19.342
ATOM     17  C   UNL     1      19.610  -3.160   0.305 -0.24 -0.00    +0.000    19.342
ATOM     18  C   UNL     1      21.140 -10.195  -0.371 -0.71 -0.00    +0.000    19.342
ATOM     19  C   UNL     1      20.223 -10.153   0.608 -0.61 -0.00    +0.000    19.342
ATOM     20  C   UNL     1      20.277 -11.010   1.811 -0.74 -0.00    +0.000    19.342
ATOM     21  N   UNL     1      20.393 -10.470   3.134 -0.64 -0.00    +0.000    19.342
ATOM     22  O   UNL     1      20.247 -12.260   1.658 -1.69 -0.00    +0.000    19.342
ATOM     23  H   UNL     1      20.532  -9.504   3.260 -0.59 -0.00    +0.000    19.342
ATOM     24  O   UNL     1      20.309 -11.286   4.213 -0.77 -0.00    +0.000    19.342
ATOM     25  H   UNL     1      20.634 -12.168   3.976 -0.53 -0.00    +0.000    19.342
TER
ENDMDL
MODEL       42
USER    Run = 42
USER    Cluster Rank = 5
USER    Number of conformations in this cluster = 5
USER  
USER    RMSD from reference structure       = 19.912 A
USER  
USER    Estimated Free Energy of Binding    =  -10.39 kcal/mol  [=(1)+(2)+(3)-(4)]
USER    Estimated Inhibition Constant, Ki   =   24.08 nM (nanomolar)  [Temperature = 298.15 K]
USER    
USER    (1) Final Intermolecular Energy     =  -12.18 kcal/mol
USER        vdW + Hbond + desolv Energy     =  -12.18 kcal/mol
USER        Electrostatic Energy            =   +0.00 kcal/mol
USER    (2) Final Total Internal Energy     =   -0.97 kcal/mol
USER    (3) Torsional Free Energy           =   +1.79 kcal/mol
USER    (4) Unbound System's Energy  [=(2)] =   -0.97 kcal/mol
USER    
USER    
USER  
USER    DPF = ligand_dock.biased.dpf
USER    NEWDPF move	ligand.pdbqt
USER    NEWDPF about	0.320000 0.169000 0.303000
USER    NEWDPF tran0	20.406447 -11.549866 -2.293635
USER    NEWDPF axisangle0	0.542236 0.839540 0.033941 -122.844855
USER    NEWDPF quaternion0	0.476176 0.737259 0.029806 -0.478348
USER    NEWDPF dihe0	-117.47 35.61 -90.24 104.90 179.08 -172.62 
USER  
USER                              x       y       z    vdW   Elec        q     RMS 
ATOM      1  C   UNL     1      19.104 -10.698  -0.529 -0.41 -0.00    +0.000    19.912
ATOM      2  C   UNL     1      19.852 -10.709  -1.714 -0.41 -0.00    +0.000    19.912
ATOM      3  C   UNL     1      19.218 -10.612  -2.965 -0.37 -0.00    +0.000    19.912
ATOM      4  C   UNL     1      17.812 -10.520  -3.009 -0.18 -0.00    +0.000    19.912
ATOM      5  C   UNL     1      17.068 -10.501  -1.826 -0.22 -0.00    +0.000    19.912
ATOM      6  C   UNL     1      17.710 -10.585  -0.589 -0.23 -0.00    +0.000    19.912
ATOM      7  O   UNL     1      21.275 -10.185   0.973 -0.66 -0.00    +0.000    19.912
ATOM      8  S   UNL     1      19.919 -10.831   1.027 -0.82 -0.00    +0.000    19.912
ATOM      9  O   UNL     1      20.080 -12.285   1.365 -1.61 -0.00    +0.000    19.912
ATOM     10  N   UNL     1      18.975 -10.058   2.264 -0.54 -0.00    +0.000    19.912
ATOM     11  H   UNL     1      19.420  -9.394   2.837 -0.51 -0.00    +0.000    19.912
ATOM     12  C   UNL     1      17.582 -10.332   2.499 -0.45 -0.00    +0.000    19.912
ATOM     13  C   UNL     1      16.986 -11.552   2.123 -0.30 +0.00    +0.000    19.912
ATOM     14  C   UNL     1      15.631 -11.785   2.376 -0.40 +0.00    +0.000    19.912
ATOM     15  C   UNL     1      14.856 -10.805   3.001 -0.41 +0.00    +0.000    19.912
ATOM     16  C   UNL     1      15.433  -9.589   3.370 -0.38 +0.00    +0.000    19.912
ATOM     17  C   UNL     1      16.789  -9.352   3.121 -0.30 +0.00    +0.000    19.912
ATOM     18  C   UNL     1      20.057 -10.652  -4.189 -0.45 -0.00    +0.000    19.912
ATOM     19  C   UNL     1      21.301 -11.152  -4.221 -0.46 -0.00    +0.000    19.912
ATOM     20  C   UNL     1      22.132 -11.189  -5.443 -0.49 -0.00    +0.000    19.912
ATOM     21  N   UNL     1      22.425 -12.410  -6.136 -0.43 -0.00    +0.000    19.912
ATOM     22  O   UNL     1      22.620 -10.108  -5.869 -0.35 -0.00    +0.000    19.912
ATOM     23  H   UNL     1      22.147 -13.272  -5.751 -0.54 -0.00    +0.000    19.912
ATOM     24  O   UNL     1      23.083 -12.379  -7.321 -0.65 -0.00    +0.000    19.912
ATOM     25  H   UNL     1      22.512 -12.740  -8.016 -0.61 -0.00    +0.000    19.912
TER
ENDMDL
MODEL       81
USER    Run = 81
USER    Cluster Rank = 6
USER    Number of conformations in this cluster = 1
USER  
USER    RMSD from reference structure       = 22.872 A
USER  
USER    Estimated Free Energy of Binding    =  -10.33 kcal/mol  [=(1)+(2)+(3)-(4)]
USER    Estimated Inhibition Constant, Ki   =   26.76 nM (nanomolar)  [Temperature = 298.15 K]
USER    
USER    (1) Final Intermolecular Energy     =  -12.12 kcal/mol
USER        vdW + Hbond + desolv Energy     =  -12.12 kcal/mol
USER        Electrostatic Energy            =   +0.00 kcal/mol
USER    (2) Final Total Internal Energy     =   -0.96 kcal/mol
USER    (3) Torsional Free Energy           =   +1.79 kcal/mol
USER    (4) Unbound System's Energy  [=(2)] =   -0.96 kcal/mol
USER    
USER    
USER  
USER    DPF = ligand_dock.biased.dpf
USER    NEWDPF move	ligand.pdbqt
USER    NEWDPF about	0.320000 0.169000 0.303000
USER    NEWDPF tran0	22.199152 -10.869444 -3.730258
USER    NEWDPF axisangle0	-0.188429 0.100178 -0.976964 -164.851746
USER    NEWDPF quaternion0	-0.186785 0.099304 -0.968440 -0.131809
USER    NEWDPF dihe0	-111.65 -41.86 26.05 -131.03 -111.63 165.07 
USER  
USER                              x       y       z    vdW   Elec        q     RMS 
ATOM      1  C   UNL     1      21.833 -10.855  -6.054 -0.41 -0.00    +0.000    22.872
ATOM      2  C   UNL     1      21.625 -11.150  -4.700 -0.47 -0.00    +0.000    22.872
ATOM      3  C   UNL     1      20.601 -10.514  -3.976 -0.43 -0.00    +0.000    22.872
ATOM      4  C   UNL     1      19.796  -9.561  -4.632 -0.26 -0.00    +0.000    22.872
ATOM      5  C   UNL     1      20.000  -9.274  -5.985 -0.17 -0.00    +0.000    22.872
ATOM      6  C   UNL     1      21.011  -9.921  -6.696 -0.24 -0.00    +0.000    22.872
ATOM      7  O   UNL     1      23.715 -12.776  -6.125 -1.13 +0.00    +0.000    22.872
ATOM      8  S   UNL     1      23.128 -11.656  -6.940 -0.63 -0.00    +0.000    22.872
ATOM      9  O   UNL     1      24.203 -10.651  -7.237 -0.42 -0.00    +0.000    22.872
ATOM     10  N   UNL     1      22.521 -12.302  -8.433 -0.28 -0.00    +0.000    22.872
ATOM     11  H   UNL     1      21.556 -12.225  -8.611 -0.51 -0.00    +0.000    22.872
ATOM     12  C   UNL     1      23.344 -12.943  -9.425 -0.36 -0.00    +0.000    22.872
ATOM     13  C   UNL     1      24.494 -12.325  -9.953 -0.29 -0.00    +0.000    22.872
ATOM     14  C   UNL     1      25.274 -12.983 -10.909 -0.16 -0.00    +0.000    22.872
ATOM     15  C   UNL     1      24.914 -14.258 -11.350 -0.28 -0.00    +0.000    22.872
ATOM     16  C   UNL     1      23.772 -14.877 -10.839 -0.39 +0.00    +0.000    22.872
ATOM     17  C   UNL     1      22.990 -14.224  -9.882 -0.36 +0.00    +0.000    22.872
ATOM     18  C   UNL     1      20.438 -10.847  -2.539 -0.44 -0.00    +0.000    22.872
ATOM     19  C   UNL     1      21.068 -10.196  -1.550 -0.63 -0.00    +0.000    22.872
ATOM     20  C   UNL     1      20.903 -10.531  -0.120 -0.70 -0.00    +0.000    22.872
ATOM     21  N   UNL     1      20.179 -11.688   0.319 -0.53 -0.00    +0.000    22.872
ATOM     22  O   UNL     1      21.395  -9.752   0.740 -0.68 -0.00    +0.000    22.872
ATOM     23  H   UNL     1      19.693 -12.241  -0.335 -0.08 -0.00    +0.000    22.872
ATOM     24  O   UNL     1      20.163 -12.025   1.632 -1.68 -0.00    +0.000    22.872
ATOM     25  H   UNL     1      20.659 -12.848   1.761 -0.59 -0.00    +0.000    22.872
TER
ENDMDL
MODEL       89
USER    Run = 89
USER    Cluster Rank = 7
USER    Number of conformations in this cluster = 2
USER  
USER    RMSD from reference structure       = 15.779 A
USER  
USER    Estimated Free Energy of Binding    =  -10.04 kcal/mol  [=(1)+(2)+(3)-(4)]
USER    Estimated Inhibition Constant, Ki   =   43.37 nM (nanomolar)  [Temperature = 298.15 K]
USER    
USER    (1) Final Intermolecular Energy     =  -11.83 kcal/mol
USER        vdW + Hbond + desolv Energy     =  -11.83 kcal/mol
USER        Electrostatic Energy            =   +0.00 kcal/mol
USER    (2) Final Total Internal Energy     =   -1.38 kcal/mol
USER    (3) Torsional Free Energy           =   +1.79 kcal/mol
USER    (4) Unbound System's Energy  [=(2)] =   -1.38 kcal/mol
USER    
USER    
USER  
USER    DPF = ligand_dock.biased.dpf
USER    NEWDPF move	ligand.pdbqt
USER    NEWDPF about	0.320000 0.169000 0.303000
USER    NEWDPF tran0	16.568758 -8.094374 4.137429
USER    NEWDPF axisangle0	0.296251 -0.909451 0.291777 111.688330
USER    NEWDPF quaternion0	0.245152 -0.752583 0.241449 0.561446
USER    NEWDPF dihe0	-4.93 -10.90 49.18 -170.74 -6.51 9.57 
USER  
USER                              x       y       z    vdW   Elec        q     RMS 
ATOM      1  C   UNL     1      14.459  -7.246   4.742 -0.36 +0.00    +0.000    15.779
ATOM      2  C   UNL     1      15.438  -7.888   3.971 -0.34 +0.00    +0.000    15.779
ATOM      3  C   UNL     1      15.457  -9.289   3.858 -0.35 +0.00    +0.000    15.779
ATOM      4  C   UNL     1      14.484 -10.041   4.549 -0.36 +0.00    +0.000    15.779
ATOM      5  C   UNL     1      13.505  -9.398   5.310 -0.40 +0.00    +0.000    15.779
ATOM      6  C   UNL     1      13.487  -8.005   5.404 -0.38 +0.00    +0.000    15.779
ATOM      7  O   UNL     1      13.996  -5.062   6.242 -1.00 +0.00    +0.000    15.779
ATOM      8  S   UNL     1      14.459  -5.490   4.877 -0.53 +0.00    +0.000    15.779
ATOM      9  O   UNL     1      13.527  -4.926   3.844 -0.23 +0.00    +0.000    15.779
ATOM     10  N   UNL     1      16.059  -4.869   4.603 -0.41 -0.00    +0.000    15.779
ATOM     11  H   UNL     1      16.814  -5.334   5.030 -0.63 -0.00    +0.000    15.779
ATOM     12  C   UNL     1      16.344  -3.717   3.790 -0.38 -0.00    +0.000    15.779
ATOM     13  C   UNL     1      15.455  -3.265   2.795 -0.30 -0.00    +0.000    15.779
ATOM     14  C   UNL     1      15.763  -2.136   2.031 -0.28 -0.00    +0.000    15.779
ATOM     15  C   UNL     1      16.960  -1.450   2.245 -0.33 -0.00    +0.000    15.779
ATOM     16  C   UNL     1      17.853  -1.892   3.223 -0.40 -0.00    +0.000    15.779
ATOM     17  C   UNL     1      17.548  -3.020   3.991 -0.34 -0.00    +0.000    15.779
ATOM     18  C   UNL     1      16.529  -9.919   3.048 -0.46 +0.00    +0.000    15.779
ATOM     19  C   UNL     1      16.496 -11.196   2.635 -0.46 +0.00    +0.000    15.779
ATOM     20  C   UNL     1      17.566 -11.818   1.828 -0.31 +0.00    +0.000    15.779
ATOM     21  N   UNL     1      18.940 -11.423   1.938 -0.54 -0.00    +0.000    15.779
ATOM     22  O   UNL     1      17.248 -12.709   0.995 -1.05 +0.00    +0.000    15.779
ATOM     23  H   UNL     1      19.186 -10.653   2.499 -0.02 -0.00    +0.000    15.779
ATOM     24  O   UNL     1      19.901 -12.109   1.273 -1.56 -0.00    +0.000    15.779
ATOM     25  H   UNL     1      19.505 -12.878   0.836 -0.41 -0.00    +0.000    15.779
TER
ENDMDL
MODEL       82
USER    Run = 82
USER    Cluster Rank = 8
USER    Number of conformations in this cluster = 3
USER  
USER    RMSD from reference structure       = 19.195 A
USER  
USER    Estimated Free Energy of Binding    =   -9.99 kcal/mol  [=(1)+(2)+(3)-(4)]
USER    Estimated Inhibition Constant, Ki   =   47.71 nM (nanomolar)  [Temperature = 298.15 K]
USER    
USER    (1) Final Intermolecular Energy     =  -11.78 kcal/mol
USER        vdW + Hbond + desolv Energy     =  -11.78 kcal/mol
USER        Electrostatic Energy            =   +0.00 kcal/mol
USER    (2) Final Total Internal Energy     =   -1.15 kcal/mol
USER    (3) Torsional Free Energy           =   +1.79 kcal/mol
USER    (4) Unbound System's Energy  [=(2)] =   -1.15 kcal/mol
USER    
USER    
USER  
USER    DPF = ligand_dock.biased.dpf
USER    NEWDPF move	ligand.pdbqt
USER    NEWDPF about	0.320000 0.169000 0.303000
USER    NEWDPF tran0	18.867109 -10.335810 -1.512534
USER    NEWDPF axisangle0	-0.976705 0.209319 0.047246 -158.235298
USER    NEWDPF quaternion0	-0.959141 0.205554 0.046396 -0.188793
USER    NEWDPF dihe0	164.19 15.32 -179.96 121.73 134.04 -134.50 
USER  
USER                              x       y       z    vdW   Elec        q     RMS 
ATOM      1  C   UNL     1      18.285 -11.421   0.492 -0.46 -0.00    +0.000    19.195
ATOM      2  C   UNL     1      18.972 -11.160  -0.701 -0.43 -0.00    +0.000    19.195
ATOM      3  C   UNL     1      20.269 -10.618  -0.678 -0.53 -0.00    +0.000    19.195
ATOM      4  C   UNL     1      20.862 -10.325   0.567 -0.60 -0.00    +0.000    19.195
ATOM      5  C   UNL     1      20.177 -10.593   1.756 -0.58 -0.00    +0.000    19.195
ATOM      6  C   UNL     1      18.895 -11.143   1.721 -0.53 -0.00    +0.000    19.195
ATOM      7  O   UNL     1      16.684 -13.520  -0.024 -1.19 +0.00    +0.000    19.195
ATOM      8  S   UNL     1      16.656 -12.091   0.440 -0.62 +0.00    +0.000    19.195
ATOM      9  O   UNL     1      15.831 -11.280  -0.517 -0.34 +0.00    +0.000    19.195
ATOM     10  N   UNL     1      15.932 -12.023   2.018 -0.44 +0.00    +0.000    19.195
ATOM     11  H   UNL     1      15.773 -12.872   2.490 -0.03 +0.00    +0.000    19.195
ATOM     12  C   UNL     1      15.550 -10.801   2.674 -0.42 +0.00    +0.000    19.195
ATOM     13  C   UNL     1      15.661  -9.547   2.042 -0.31 +0.00    +0.000    19.195
ATOM     14  C   UNL     1      15.271  -8.381   2.709 -0.29 +0.00    +0.000    19.195
ATOM     15  C   UNL     1      14.772  -8.453   4.011 -0.33 +0.00    +0.000    19.195
ATOM     16  C   UNL     1      14.664  -9.689   4.651 -0.39 +0.00    +0.000    19.195
ATOM     17  C   UNL     1      15.051 -10.858   3.987 -0.42 +0.00    +0.000    19.195
ATOM     18  C   UNL     1      20.943 -10.341  -1.971 -0.58 -0.00    +0.000    19.195
ATOM     19  C   UNL     1      20.648 -10.977  -3.115 -0.36 -0.00    +0.000    19.195
ATOM     20  C   UNL     1      21.322 -10.698  -4.400 -0.52 -0.00    +0.000    19.195
ATOM     21  N   UNL     1      21.283 -11.612  -5.503 -0.50 -0.00    +0.000    19.195
ATOM     22  O   UNL     1      21.976  -9.627  -4.513 -0.42 -0.00    +0.000    19.195
ATOM     23  H   UNL     1      20.874 -12.501  -5.390 -0.49 -0.00    +0.000    19.195
ATOM     24  O   UNL     1      21.806 -11.257  -6.702 -0.43 -0.00    +0.000    19.195
ATOM     25  H   UNL     1      21.926 -12.049  -7.249 -0.56 -0.00    +0.000    19.195
TER
ENDMDL
MODEL       74
USER    Run = 74
USER    Cluster Rank = 9
USER    Number of conformations in this cluster = 3
USER  
USER    RMSD from reference structure       = 18.975 A
USER  
USER    Estimated Free Energy of Binding    =   -9.77 kcal/mol  [=(1)+(2)+(3)-(4)]
USER    Estimated Inhibition Constant, Ki   =   69.39 nM (nanomolar)  [Temperature = 298.15 K]
USER    
USER    (1) Final Intermolecular Energy     =  -11.56 kcal/mol
USER        vdW + Hbond + desolv Energy     =  -11.56 kcal/mol
USER        Electrostatic Energy            =   +0.00 kcal/mol
USER    (2) Final Total Internal Energy     =   -0.93 kcal/mol
USER    (3) Torsional Free Energy           =   +1.79 kcal/mol
USER    (4) Unbound System's Energy  [=(2)] =   -0.93 kcal/mol
USER    
USER    
USER  
USER    DPF = ligand_dock.biased.dpf
USER    NEWDPF move	ligand.pdbqt
USER    NEWDPF about	0.320000 0.169000 0.303000
USER    NEWDPF tran0	18.965729 -10.763443 -1.691861
USER    NEWDPF axisangle0	-0.983770 0.179117 0.010661 -163.256560
USER    NEWDPF quaternion0	-0.973287 0.177208 0.010547 -0.145595
USER    NEWDPF dihe0	174.59 -7.55 138.61 -84.12 169.56 -19.18 
USER  
USER                              x       y       z    vdW   Elec        q     RMS 
ATOM      1  C   UNL     1      18.305 -11.675   0.374 -0.47 -0.00    +0.000    18.975
ATOM      2  C   UNL     1      19.056 -11.497  -0.795 -0.39 -0.00    +0.000    18.975
ATOM      3  C   UNL     1      20.322 -10.887  -0.750 -0.49 -0.00    +0.000    18.975
ATOM      4  C   UNL     1      20.817 -10.441   0.492 -0.61 -0.00    +0.000    18.975
ATOM      5  C   UNL     1      20.070 -10.626   1.659 -0.59 -0.00    +0.000    18.975
ATOM      6  C   UNL     1      18.820 -11.246   1.602 -0.52 -0.00    +0.000    18.975
ATOM      7  O   UNL     1      16.041 -12.395   1.634 -0.83 +0.00    +0.000    18.975
ATOM      8  S   UNL     1      16.717 -12.434   0.292 -0.66 +0.00    +0.000    18.975
ATOM      9  O   UNL     1      16.887 -13.864  -0.130 -1.03 +0.00    +0.000    18.975
ATOM     10  N   UNL     1      15.720 -11.609  -0.867 -0.33 +0.00    +0.000    18.975
ATOM     11  H   UNL     1      16.128 -11.350  -1.725 -0.01 -0.00    +0.000    18.975
ATOM     12  C   UNL     1      14.336 -11.284  -0.648 -0.32 +0.00    +0.000    18.975
ATOM     13  C   UNL     1      13.564 -11.929   0.338 -0.39 +0.00    +0.000    18.975
ATOM     14  C   UNL     1      12.223 -11.580   0.527 -0.36 +0.00    +0.000    18.975
ATOM     15  C   UNL     1      11.638 -10.590  -0.266 -0.25 +0.00    +0.000    18.975
ATOM     16  C   UNL     1      12.391  -9.949  -1.251 -0.21 -0.00    +0.000    18.975
ATOM     17  C   UNL     1      13.733 -10.294  -1.443 -0.25 -0.00    +0.000    18.975
ATOM     18  C   UNL     1      21.065 -10.703  -2.021 -0.48 -0.00    +0.000    18.975
ATOM     19  C   UNL     1      20.523 -10.893  -3.234 -0.48 -0.00    +0.000    18.975
ATOM     20  C   UNL     1      21.268 -10.709  -4.497 -0.51 -0.00    +0.000    18.975
ATOM     21  N   UNL     1      21.449 -11.769  -5.444 -0.52 -0.00    +0.000    18.975
ATOM     22  O   UNL     1      21.783  -9.582  -4.730 -0.41 -0.00    +0.000    18.975
ATOM     23  H   UNL     1      21.152 -12.681  -5.223 -0.42 -0.00    +0.000    18.975
ATOM     24  O   UNL     1      22.026 -11.520  -6.644 -0.44 -0.00    +0.000    18.975
ATOM     25  H   UNL     1      22.149 -12.354  -7.124 -0.59 -0.00    +0.000    18.975
TER
ENDMDL
MODEL       29
USER    Run = 29
USER    Cluster Rank = 10
USER    Number of conformations in this cluster = 10
USER  
USER    RMSD from reference structure       = 19.288 A
USER  
USER    Estimated Free Energy of Binding    =   -9.67 kcal/mol  [=(1)+(2)+(3)-(4)]
USER    Estimated Inhibition Constant, Ki   =   81.34 nM (nanomolar)  [Temperature = 298.15 K]
USER    
USER    (1) Final Intermolecular Energy     =  -11.46 kcal/mol
USER        vdW + Hbond + desolv Energy     =  -11.46 kcal/mol
USER        Electrostatic Energy            =   +0.00 kcal/mol
USER    (2) Final Total Internal Energy     =   -1.80 kcal/mol
USER    (3) Torsional Free Energy           =   +1.79 kcal/mol
USER    (4) Unbound System's Energy  [=(2)] =   -1.80 kcal/mol
USER    
USER    
USER  
USER    DPF = ligand_dock.biased.dpf
USER    NEWDPF move	ligand.pdbqt
USER    NEWDPF about	0.320000 0.169000 0.303000
USER    NEWDPF tran0	18.457011 -10.949796 -1.599326
USER    NEWDPF axisangle0	-0.877131 0.069702 0.475165 158.490669
USER    NEWDPF quaternion0	-0.861725 0.068477 0.466819 0.186604
USER    NEWDPF dihe0	7.25 -42.10 -18.94 -20.70 -89.09 35.15 
USER  
USER                              x       y       z    vdW   Elec        q     RMS 
ATOM      1  C   UNL     1      20.106 -10.665   0.054 -0.56 -0.00    +0.000    19.288
ATOM      2  C   UNL     1      19.513 -11.099  -1.139 -0.38 -0.00    +0.000    19.288
ATOM      3  C   UNL     1      19.856 -10.507  -2.368 -0.42 -0.00    +0.000    19.288
ATOM      4  C   UNL     1      20.795  -9.456  -2.378 -0.47 -0.00    +0.000    19.288
ATOM      5  C   UNL     1      21.391  -9.030  -1.187 -0.51 -0.00    +0.000    19.288
ATOM      6  C   UNL     1      21.053  -9.635   0.025 -0.56 -0.00    +0.000    19.288
ATOM      7  O   UNL     1      19.079 -10.393   2.525 -0.69 -0.00    +0.000    19.288
ATOM      8  S   UNL     1      19.655 -11.414   1.584 -0.87 -0.00    +0.000    19.288
ATOM      9  O   UNL     1      20.881 -12.018   2.206 -1.30 -0.00    +0.000    19.288
ATOM     10  N   UNL     1      18.478 -12.662   1.314 -0.51 -0.00    +0.000    19.288
ATOM     11  H   UNL     1      18.772 -13.598   1.389 -0.41 -0.00    +0.000    19.288
ATOM     12  C   UNL     1      17.099 -12.409   0.987 -0.43 +0.00    +0.000    19.288
ATOM     13  C   UNL     1      16.287 -11.571   1.775 -0.40 +0.00    +0.000    19.288
ATOM     14  C   UNL     1      14.954 -11.341   1.421 -0.38 +0.00    +0.000    19.288
ATOM     15  C   UNL     1      14.417 -11.946   0.283 -0.41 +0.00    +0.000    19.288
ATOM     16  C   UNL     1      15.211 -12.785  -0.502 -0.48 +0.00    +0.000    19.288
ATOM     17  C   UNL     1      16.545 -13.017  -0.152 -0.47 +0.00    +0.000    19.288
ATOM     18  C   UNL     1      19.181 -10.990  -3.598 -0.38 -0.00    +0.000    19.288
ATOM     19  C   UNL     1      18.316 -10.251  -4.310 -0.30 -0.00    +0.000    19.288
ATOM     20  C   UNL     1      17.646 -10.736  -5.535 -0.31 -0.00    +0.000    19.288
ATOM     21  N   UNL     1      18.307 -11.576  -6.490 -0.39 -0.00    +0.000    19.288
ATOM     22  O   UNL     1      16.460 -10.372  -5.754 -0.22 -0.00    +0.000    19.288
ATOM     23  H   UNL     1      19.266 -11.774  -6.390 -0.17 -0.00    +0.000    19.288
ATOM     24  O   UNL     1      17.615 -12.100  -7.531 -0.41 -0.00    +0.000    19.288
ATOM     25  H   UNL     1      16.722 -11.722  -7.548 -0.03 -0.00    +0.000    19.288
TER
ENDMDL
MODEL       97
USER    Run = 97
USER    Cluster Rank = 11
USER    Number of conformations in this cluster = 1
USER  
USER    RMSD from reference structure       = 22.341 A
USER  
USER    Estimated Free Energy of Binding    =   -9.65 kcal/mol  [=(1)+(2)+(3)-(4)]
USER    Estimated Inhibition Constant, Ki   =   83.73 nM (nanomolar)  [Temperature = 298.15 K]
USER    
USER    (1) Final Intermolecular Energy     =  -11.44 kcal/mol
USER        vdW + Hbond + desolv Energy     =  -11.44 kcal/mol
USER        Electrostatic Energy            =   +0.00 kcal/mol
USER    (2) Final Total Internal Energy     =   -1.35 kcal/mol
USER    (3) Torsional Free Energy           =   +1.79 kcal/mol
USER    (4) Unbound System's Energy  [=(2)] =   -1.35 kcal/mol
USER    
USER    
USER  
USER    DPF = ligand_dock.biased.dpf
USER    NEWDPF move	ligand.pdbqt
USER    NEWDPF about	0.320000 0.169000 0.303000
USER    NEWDPF tran0	22.488236 -11.748885 -4.309986
USER    NEWDPF axisangle0	0.534795 0.844982 0.000595 -96.039260
USER    NEWDPF quaternion0	0.397552 0.628138 0.000442 -0.668876
USER    NEWDPF dihe0	17.69 156.47 -176.27 -151.00 -36.54 -114.79 
USER  
USER                              x       y       z    vdW   Elec        q     RMS 
ATOM      1  C   UNL     1      20.726 -10.456  -3.440 -0.46 -0.00    +0.000    22.341
ATOM      2  C   UNL     1      21.836 -10.791  -4.226 -0.37 -0.00    +0.000    22.341
ATOM      3  C   UNL     1      21.687 -11.078  -5.594 -0.46 -0.00    +0.000    22.341
ATOM      4  C   UNL     1      20.396 -11.040  -6.160 -0.29 -0.00    +0.000    22.341
ATOM      5  C   UNL     1      19.291 -10.698  -5.376 -0.34 -0.00    +0.000    22.341
ATOM      6  C   UNL     1      19.454 -10.402  -4.021 -0.34 -0.00    +0.000    22.341
ATOM      7  O   UNL     1      21.193  -8.645  -1.507 -0.60 -0.00    +0.000    22.341
ATOM      8  S   UNL     1      20.934 -10.110  -1.725 -0.75 -0.00    +0.000    22.341
ATOM      9  O   UNL     1      22.106 -10.896  -1.213 -0.65 -0.00    +0.000    22.341
ATOM     10  N   UNL     1      19.509 -10.569  -0.845 -0.45 -0.00    +0.000    22.341
ATOM     11  H   UNL     1      18.657 -10.611  -1.335 -0.01 -0.00    +0.000    22.341
ATOM     12  C   UNL     1      19.501 -10.891   0.557 -0.54 -0.00    +0.000    22.341
ATOM     13  C   UNL     1      18.413 -10.569   1.392 -0.42 -0.00    +0.000    22.341
ATOM     14  C   UNL     1      18.437 -10.906   2.748 -0.51 -0.00    +0.000    22.341
ATOM     15  C   UNL     1      19.545 -11.563   3.287 -0.61 -0.00    +0.000    22.341
ATOM     16  C   UNL     1      20.633 -11.881   2.472 -0.63 -0.00    +0.000    22.341
ATOM     17  C   UNL     1      20.612 -11.547   1.114 -0.64 -0.00    +0.000    22.341
ATOM     18  C   UNL     1      22.893 -11.449  -6.375 -0.37 -0.00    +0.000    22.341
ATOM     19  C   UNL     1      22.846 -12.026  -7.586 -0.37 -0.00    +0.000    22.341
ATOM     20  C   UNL     1      24.050 -12.393  -8.360 -0.47 -0.00    +0.000    22.341
ATOM     21  N   UNL     1      23.997 -13.270  -9.494 -0.39 -0.00    +0.000    22.341
ATOM     22  O   UNL     1      25.165 -11.938  -7.987 -0.75 -0.00    +0.000    22.341
ATOM     23  H   UNL     1      23.154 -13.722  -9.725 -0.04 -0.00    +0.000    22.341
ATOM     24  O   UNL     1      25.104 -13.476 -10.248 -0.40 -0.00    +0.000    22.341
ATOM     25  H   UNL     1      25.889 -13.200  -9.751 -0.59 -0.00    +0.000    22.341
TER
ENDMDL
MODEL       80
USER    Run = 80
USER    Cluster Rank = 12
USER    Number of conformations in this cluster = 2
USER  
USER    RMSD from reference structure       = 16.106 A
USER  
USER    Estimated Free Energy of Binding    =   -9.47 kcal/mol  [=(1)+(2)+(3)-(4)]
USER    Estimated Inhibition Constant, Ki   =  113.60 nM (nanomolar)  [Temperature = 298.15 K]
USER    
USER    (1) Final Intermolecular Energy     =  -11.26 kcal/mol
USER        vdW + Hbond + desolv Energy     =  -11.26 kcal/mol
USER        Electrostatic Energy            =   +0.00 kcal/mol
USER    (2) Final Total Internal Energy     =   -1.58 kcal/mol
USER    (3) Torsional Free Energy           =   +1.79 kcal/mol
USER    (4) Unbound System's Energy  [=(2)] =   -1.58 kcal/mol
USER    
USER    
USER  
USER    DPF = ligand_dock.biased.dpf
USER    NEWDPF move	ligand.pdbqt
USER    NEWDPF about	0.320000 0.169000 0.303000
USER    NEWDPF tran0	16.468132 -10.237536 3.641580
USER    NEWDPF axisangle0	0.130677 0.983268 -0.126916 -81.222886
USER    NEWDPF quaternion0	0.085061 0.640035 -0.082613 -0.759141
USER    NEWDPF dihe0	1.29 -57.91 117.49 171.19 168.53 61.62 
USER  
USER                              x       y       z    vdW   Elec        q     RMS 
ATOM      1  C   UNL     1      14.337  -9.244   3.726 -0.32 +0.00    +0.000    16.106
ATOM      2  C   UNL     1      15.580  -9.628   3.206 -0.38 +0.00    +0.000    16.106
ATOM      3  C   UNL     1      15.673 -10.655   2.251 -0.37 +0.00    +0.000    16.106
ATOM      4  C   UNL     1      14.493 -11.306   1.837 -0.39 +0.00    +0.000    16.106
ATOM      5  C   UNL     1      13.253 -10.917   2.351 -0.29 +0.00    +0.000    16.106
ATOM      6  C   UNL     1      13.173  -9.886   3.289 -0.20 +0.00    +0.000    16.106
ATOM      7  O   UNL     1      14.269  -8.534   6.320 -0.60 +0.00    +0.000    16.106
ATOM      8  S   UNL     1      14.246  -7.961   4.930 -0.53 +0.00    +0.000    16.106
ATOM      9  O   UNL     1      12.964  -7.205   4.732 -0.27 +0.00    +0.000    16.106
ATOM     10  N   UNL     1      15.586  -6.872   4.745 -0.46 +0.00    +0.000    16.106
ATOM     11  H   UNL     1      16.494  -7.232   4.867 -0.16 +0.00    +0.000    16.106
ATOM     12  C   UNL     1      15.448  -5.476   4.426 -0.37 +0.00    +0.000    16.106
ATOM     13  C   UNL     1      15.004  -5.039   3.162 -0.26 -0.00    +0.000    16.106
ATOM     14  C   UNL     1      14.874  -3.673   2.891 -0.27 -0.00    +0.000    16.106
ATOM     15  C   UNL     1      15.189  -2.731   3.873 -0.38 -0.00    +0.000    16.106
ATOM     16  C   UNL     1      15.638  -3.152   5.126 -0.43 -0.00    +0.000    16.106
ATOM     17  C   UNL     1      15.768  -4.517   5.402 -0.46 +0.00    +0.000    16.106
ATOM     18  C   UNL     1      17.016 -11.037   1.749 -0.45 +0.00    +0.000    16.106
ATOM     19  C   UNL     1      18.163 -10.593   2.285 -0.55 -0.00    +0.000    16.106
ATOM     20  C   UNL     1      19.499 -10.976   1.781 -0.67 -0.00    +0.000    16.106
ATOM     21  N   UNL     1      20.263 -10.132   0.910 -0.57 -0.00    +0.000    16.106
ATOM     22  O   UNL     1      19.965 -12.099   2.113 -1.68 -0.00    +0.000    16.106
ATOM     23  H   UNL     1      19.864  -9.306   0.552 -0.08 -0.00    +0.000    16.106
ATOM     24  O   UNL     1      21.534 -10.467   0.578 -0.64 -0.00    +0.000    16.106
ATOM     25  H   UNL     1      21.764 -11.311   0.996 -0.49 -0.00    +0.000    16.106
TER
ENDMDL
MODEL       87
USER    Run = 87
USER    Cluster Rank = 13
USER    Number of conformations in this cluster = 1
USER  
USER    RMSD from reference structure       = 16.469 A
USER  
USER    Estimated Free Energy of Binding    =   -9.47 kcal/mol  [=(1)+(2)+(3)-(4)]
USER    Estimated Inhibition Constant, Ki   =  113.96 nM (nanomolar)  [Temperature = 298.15 K]
USER    
USER    (1) Final Intermolecular Energy     =  -11.26 kcal/mol
USER        vdW + Hbond + desolv Energy     =  -11.26 kcal/mol
USER        Electrostatic Energy            =   +0.00 kcal/mol
USER    (2) Final Total Internal Energy     =   -1.73 kcal/mol
USER    (3) Torsional Free Energy           =   +1.79 kcal/mol
USER    (4) Unbound System's Energy  [=(2)] =   -1.73 kcal/mol
USER    
USER    
USER  
USER    DPF = ligand_dock.biased.dpf
USER    NEWDPF move	ligand.pdbqt
USER    NEWDPF about	0.320000 0.169000 0.303000
USER    NEWDPF tran0	14.470865 -8.408988 1.938035
USER    NEWDPF axisangle0	-0.796661 -0.592237 -0.120776 -95.157273
USER    NEWDPF quaternion0	-0.588098 -0.437192 -0.089157 -0.674578
USER    NEWDPF dihe0	0.71 91.58 -47.82 32.46 -22.13 157.41 
USER  
USER                              x       y       z    vdW   Elec        q     RMS 
ATOM      1  C   UNL     1      15.589 -10.421   1.454 -0.30 +0.00    +0.000    16.469
ATOM      2  C   UNL     1      15.388  -9.122   1.938 -0.28 +0.00    +0.000    16.469
ATOM      3  C   UNL     1      15.258  -8.881   3.316 -0.34 +0.00    +0.000    16.469
ATOM      4  C   UNL     1      15.315  -9.974   4.205 -0.39 +0.00    +0.000    16.469
ATOM      5  C   UNL     1      15.524 -11.268   3.721 -0.47 +0.00    +0.000    16.469
ATOM      6  C   UNL     1      15.665 -11.493   2.351 -0.43 +0.00    +0.000    16.469
ATOM      7  O   UNL     1      15.679  -9.402  -1.034 -0.28 -0.00    +0.000    16.469
ATOM      8  S   UNL     1      15.741 -10.701  -0.279 -0.41 +0.00    +0.000    16.469
ATOM      9  O   UNL     1      14.610 -11.582  -0.726 -0.38 +0.00    +0.000    16.469
ATOM     10  N   UNL     1      17.250 -11.487  -0.628 -0.36 -0.00    +0.000    16.469
ATOM     11  H   UNL     1      17.332 -11.971  -1.481 +0.01 -0.00    +0.000    16.469
ATOM     12  C   UNL     1      18.386 -11.472   0.255 -0.46 -0.00    +0.000    16.469
ATOM     13  C   UNL     1      18.480 -12.335   1.365 -0.48 -0.00    +0.000    16.469
ATOM     14  C   UNL     1      19.604 -12.298   2.196 -0.60 -0.00    +0.000    16.469
ATOM     15  C   UNL     1      20.641 -11.399   1.933 -0.67 -0.00    +0.000    16.469
ATOM     16  C   UNL     1      20.555 -10.534   0.841 -0.61 -0.00    +0.000    16.469
ATOM     17  C   UNL     1      19.433 -10.569   0.006 -0.46 -0.00    +0.000    16.469
ATOM     18  C   UNL     1      15.024  -7.489   3.773 -0.38 +0.00    +0.000    16.469
ATOM     19  C   UNL     1      14.864  -7.145   5.060 -0.45 +0.00    +0.000    16.469
ATOM     20  C   UNL     1      14.631  -5.757   5.510 -0.47 +0.00    +0.000    16.469
ATOM     21  N   UNL     1      15.621  -4.729   5.373 -0.50 +0.00    +0.000    16.469
ATOM     22  O   UNL     1      13.530  -5.481   6.058 -1.00 +0.00    +0.000    16.469
ATOM     23  H   UNL     1      16.524  -4.956   5.053 -0.59 -0.00    +0.000    16.469
ATOM     24  O   UNL     1      15.317  -3.445   5.681 -0.56 +0.00    +0.000    16.469
ATOM     25  H   UNL     1      14.398  -3.395   5.987 -0.41 +0.00    +0.000    16.469
TER
ENDMDL
MODEL       77
USER    Run = 77
USER    Cluster Rank = 14
USER    Number of conformations in this cluster = 5
USER  
USER    RMSD from reference structure       = 18.528 A
USER  
USER    Estimated Free Energy of Binding    =   -9.41 kcal/mol  [=(1)+(2)+(3)-(4)]
USER    Estimated Inhibition Constant, Ki   =  126.14 nM (nanomolar)  [Temperature = 298.15 K]
USER    
USER    (1) Final Intermolecular Energy     =  -11.20 kcal/mol
USER        vdW + Hbond + desolv Energy     =  -11.20 kcal/mol
USER        Electrostatic Energy            =   +0.00 kcal/mol
USER    (2) Final Total Internal Energy     =   -1.96 kcal/mol
USER    (3) Torsional Free Energy           =   +1.79 kcal/mol
USER    (4) Unbound System's Energy  [=(2)] =   -1.96 kcal/mol
USER    
USER    
USER  
USER    DPF = ligand_dock.biased.dpf
USER    NEWDPF move	ligand.pdbqt
USER    NEWDPF about	0.320000 0.169000 0.303000
USER    NEWDPF tran0	19.016199 -11.253617 -1.718090
USER    NEWDPF axisangle0	0.440639 -0.426220 0.790047 -56.014305
USER    NEWDPF quaternion0	0.206916 -0.200145 0.370992 -0.882889
USER    NEWDPF dihe0	22.82 -71.10 74.35 -15.37 179.86 51.19 
USER  
USER                              x       y       z    vdW   Elec        q     RMS 
ATOM      1  C   UNL     1      18.829 -10.054  -3.733 -0.29 -0.00    +0.000    18.528
ATOM      2  C   UNL     1      19.128 -10.312  -2.389 -0.32 -0.00    +0.000    18.528
ATOM      3  C   UNL     1      20.459 -10.481  -1.969 -0.48 -0.00    +0.000    18.528
ATOM      4  C   UNL     1      21.489 -10.403  -2.929 -0.44 -0.00    +0.000    18.528
ATOM      5  C   UNL     1      21.189 -10.139  -4.268 -0.41 -0.00    +0.000    18.528
ATOM      6  C   UNL     1      19.864  -9.960  -4.670 -0.29 -0.00    +0.000    18.528
ATOM      7  O   UNL     1      16.662 -11.087  -4.947 -0.25 -0.00    +0.000    18.528
ATOM      8  S   UNL     1      17.153  -9.855  -4.239 -0.30 -0.00    +0.000    18.528
ATOM      9  O   UNL     1      17.067  -8.685  -5.175 -0.15 -0.00    +0.000    18.528
ATOM     10  N   UNL     1      16.143  -9.558  -2.857 -0.22 -0.00    +0.000    18.528
ATOM     11  H   UNL     1      15.738  -8.666  -2.765 -0.02 -0.00    +0.000    18.528
ATOM     12  C   UNL     1      15.864 -10.538  -1.841 -0.26 -0.00    +0.000    18.528
ATOM     13  C   UNL     1      14.864 -11.517  -2.001 -0.28 -0.00    +0.000    18.528
ATOM     14  C   UNL     1      14.628 -12.459  -0.995 -0.40 +0.00    +0.000    18.528
ATOM     15  C   UNL     1      15.381 -12.431   0.181 -0.47 +0.00    +0.000    18.528
ATOM     16  C   UNL     1      16.369 -11.460   0.355 -0.37 +0.00    +0.000    18.528
ATOM     17  C   UNL     1      16.610 -10.517  -0.650 -0.27 -0.00    +0.000    18.528
ATOM     18  C   UNL     1      20.718 -10.774  -0.538 -0.62 -0.00    +0.000    18.528
ATOM     19  C   UNL     1      19.797 -11.281   0.296 -0.63 -0.00    +0.000    18.528
ATOM     20  C   UNL     1      20.060 -11.571   1.721 -0.76 -0.00    +0.000    18.528
ATOM     21  N   UNL     1      20.540 -10.573   2.632 -0.62 -0.00    +0.000    18.528
ATOM     22  O   UNL     1      19.880 -12.747   2.137 -1.51 -0.00    +0.000    18.528
ATOM     23  H   UNL     1      20.793  -9.683   2.297 -0.55 -0.00    +0.000    18.528
ATOM     24  O   UNL     1      20.644 -10.852   3.954 -0.80 -0.00    +0.000    18.528
ATOM     25  H   UNL     1      20.712 -11.811   4.078 -0.49 -0.00    +0.000    18.528
TER
ENDMDL
MODEL       71
USER    Run = 71
USER    Cluster Rank = 15
USER    Number of conformations in this cluster = 1
USER  
USER    RMSD from reference structure       = 16.103 A
USER  
USER    Estimated Free Energy of Binding    =   -9.02 kcal/mol  [=(1)+(2)+(3)-(4)]
USER    Estimated Inhibition Constant, Ki   =  244.81 nM (nanomolar)  [Temperature = 298.15 K]
USER    
USER    (1) Final Intermolecular Energy     =  -10.81 kcal/mol
USER        vdW + Hbond + desolv Energy     =  -10.81 kcal/mol
USER        Electrostatic Energy            =   +0.00 kcal/mol
USER    (2) Final Total Internal Energy     =   -1.51 kcal/mol
USER    (3) Torsional Free Energy           =   +1.79 kcal/mol
USER    (4) Unbound System's Energy  [=(2)] =   -1.51 kcal/mol
USER    
USER    
USER  
USER    DPF = ligand_dock.biased.dpf
USER    NEWDPF move	ligand.pdbqt
USER    NEWDPF about	0.320000 0.169000 0.303000
USER    NEWDPF tran0	14.467101 -7.007747 3.022817
USER    NEWDPF axisangle0	0.846931 0.496286 0.190810 134.068993
USER    NEWDPF quaternion0	0.779803 0.456951 0.175686 0.390177
USER    NEWDPF dihe0	3.45 -45.17 -87.79 -66.30 54.65 144.22 
USER  
USER                              x       y       z    vdW   Elec        q     RMS 
ATOM      1  C   UNL     1      14.814  -9.138   3.958 -0.35 +0.00    +0.000    16.103
ATOM      2  C   UNL     1      15.014  -7.776   3.702 -0.33 +0.00    +0.000    16.103
ATOM      3  C   UNL     1      14.658  -6.806   4.655 -0.37 +0.00    +0.000    16.103
ATOM      4  C   UNL     1      14.079  -7.227   5.870 -0.42 +0.00    +0.000    16.103
ATOM      5  C   UNL     1      13.887  -8.587   6.126 -0.45 +0.00    +0.000    16.103
ATOM      6  C   UNL     1      14.258  -9.542   5.177 -0.40 +0.00    +0.000    16.103
ATOM      7  O   UNL     1      15.578  -9.672   1.435 -0.33 +0.00    +0.000    16.103
ATOM      8  S   UNL     1      15.258 -10.336   2.745 -0.53 +0.00    +0.000    16.103
ATOM      9  O   UNL     1      14.104 -11.276   2.549 -0.46 +0.00    +0.000    16.103
ATOM     10  N   UNL     1      16.646 -11.237   3.275 -0.45 +0.00    +0.000    16.103
ATOM     11  H   UNL     1      16.570 -11.755   4.108 -0.12 +0.00    +0.000    16.103
ATOM     12  C   UNL     1      17.899 -11.270   2.568 -0.38 +0.00    +0.000    16.103
ATOM     13  C   UNL     1      17.987 -11.674   1.222 -0.47 -0.00    +0.000    16.103
ATOM     14  C   UNL     1      19.222 -11.685   0.566 -0.55 -0.00    +0.000    16.103
ATOM     15  C   UNL     1      20.380 -11.298   1.245 -0.66 -0.00    +0.000    16.103
ATOM     16  C   UNL     1      20.306 -10.903   2.581 -0.64 -0.00    +0.000    16.103
ATOM     17  C   UNL     1      19.073 -10.889   3.241 -0.53 -0.00    +0.000    16.103
ATOM     18  C   UNL     1      14.871  -5.375   4.323 -0.40 +0.00    +0.000    16.103
ATOM     19  C   UNL     1      15.872  -4.636   4.825 -0.45 -0.00    +0.000    16.103
ATOM     20  C   UNL     1      16.080  -3.212   4.492 -0.52 -0.00    +0.000    16.103
ATOM     21  N   UNL     1      17.132  -2.772   3.623 -0.49 -0.00    +0.000    16.103
ATOM     22  O   UNL     1      15.317  -2.356   5.015 -0.45 -0.00    +0.000    16.103
ATOM     23  H   UNL     1      17.804  -3.415   3.300 -0.03 -0.00    +0.000    16.103
ATOM     24  O   UNL     1      17.205  -1.473   3.245 -0.47 -0.00    +0.000    16.103
ATOM     25  H   UNL     1      16.507  -0.967   3.690 -0.54 -0.00    +0.000    16.103
TER
ENDMDL
MODEL       61
USER    Run = 61
USER    Cluster Rank = 16
USER    Number of conformations in this cluster = 1
USER  
USER    RMSD from reference structure       = 18.120 A
USER  
USER    Estimated Free Energy of Binding    =   -8.86 kcal/mol  [=(1)+(2)+(3)-(4)]
USER    Estimated Inhibition Constant, Ki   =  321.62 nM (nanomolar)  [Temperature = 298.15 K]
USER    
USER    (1) Final Intermolecular Energy     =  -10.65 kcal/mol
USER        vdW + Hbond + desolv Energy     =  -10.65 kcal/mol
USER        Electrostatic Energy            =   +0.00 kcal/mol
USER    (2) Final Total Internal Energy     =   -1.88 kcal/mol
USER    (3) Torsional Free Energy           =   +1.79 kcal/mol
USER    (4) Unbound System's Energy  [=(2)] =   -1.88 kcal/mol
USER    
USER    
USER  
USER    DPF = ligand_dock.biased.dpf
USER    NEWDPF move	ligand.pdbqt
USER    NEWDPF about	0.320000 0.169000 0.303000
USER    NEWDPF tran0	17.996256 -10.059013 -0.683192
USER    NEWDPF axisangle0	0.686175 -0.322785 -0.651900 -171.920836
USER    NEWDPF quaternion0	0.684470 -0.321983 -0.650281 -0.070446
USER    NEWDPF dihe0	-1.51 -14.67 79.92 133.92 -177.92 -8.78 
USER  
USER                              x       y       z    vdW   Elec        q     RMS 
ATOM      1  C   UNL     1      19.971 -10.911   0.269 -0.57 -0.00    +0.000    18.120
ATOM      2  C   UNL     1      18.849 -10.840  -0.566 -0.41 -0.00    +0.000    18.120
ATOM      3  C   UNL     1      18.986 -10.521  -1.928 -0.35 -0.00    +0.000    18.120
ATOM      4  C   UNL     1      20.273 -10.257  -2.438 -0.45 -0.00    +0.000    18.120
ATOM      5  C   UNL     1      21.393 -10.336  -1.605 -0.55 -0.00    +0.000    18.120
ATOM      6  C   UNL     1      21.245 -10.667  -0.257 -0.60 -0.00    +0.000    18.120
ATOM      7  O   UNL     1      21.015 -10.947   2.748 -0.73 -0.00    +0.000    18.120
ATOM      8  S   UNL     1      19.775 -11.302   1.976 -0.90 -0.00    +0.000    18.120
ATOM      9  O   UNL     1      19.522 -12.776   2.107 -1.42 -0.00    +0.000    18.120
ATOM     10  N   UNL     1      18.427 -10.430   2.638 -0.53 -0.00    +0.000    18.120
ATOM     11  H   UNL     1      18.614  -9.607   3.145 -0.09 -0.00    +0.000    18.120
ATOM     12  C   UNL     1      17.055 -10.837   2.489 -0.43 +0.00    +0.000    18.120
ATOM     13  C   UNL     1      16.624 -11.624   1.403 -0.40 +0.00    +0.000    18.120
ATOM     14  C   UNL     1      15.283 -12.009   1.297 -0.43 +0.00    +0.000    18.120
ATOM     15  C   UNL     1      14.361 -11.610   2.267 -0.43 +0.00    +0.000    18.120
ATOM     16  C   UNL     1      14.776 -10.824   3.344 -0.42 +0.00    +0.000    18.120
ATOM     17  C   UNL     1      16.116 -10.438   3.455 -0.45 +0.00    +0.000    18.120
ATOM     18  C   UNL     1      17.761 -10.437  -2.762 -0.23 -0.00    +0.000    18.120
ATOM     19  C   UNL     1      16.538 -10.201  -2.265 -0.25 -0.00    +0.000    18.120
ATOM     20  C   UNL     1      15.321 -10.118  -3.100 -0.26 -0.00    +0.000    18.120
ATOM     21  N   UNL     1      14.851 -11.223  -3.884 -0.29 -0.00    +0.000    18.120
ATOM     22  O   UNL     1      14.695  -9.025  -3.141 -0.18 -0.00    +0.000    18.120
ATOM     23  H   UNL     1      15.392 -12.043  -3.951 -0.00 -0.00    +0.000    18.120
ATOM     24  O   UNL     1      13.663 -11.142  -4.532 -0.29 -0.00    +0.000    18.120
ATOM     25  H   UNL     1      13.250 -10.285  -4.343 -0.01 -0.00    +0.000    18.120
TER
ENDMDL
MODEL       92
USER    Run = 92
USER    Cluster Rank = 17
USER    Number of conformations in this cluster = 1
USER  
USER    RMSD from reference structure       = 17.222 A
USER  
USER    Estimated Free Energy of Binding    =   -8.83 kcal/mol  [=(1)+(2)+(3)-(4)]
USER    Estimated Inhibition Constant, Ki   =  334.38 nM (nanomolar)  [Temperature = 298.15 K]
USER    
USER    (1) Final Intermolecular Energy     =  -10.62 kcal/mol
USER        vdW + Hbond + desolv Energy     =  -10.62 kcal/mol
USER        Electrostatic Energy            =   +0.00 kcal/mol
USER    (2) Final Total Internal Energy     =   -2.23 kcal/mol
USER    (3) Torsional Free Energy           =   +1.79 kcal/mol
USER    (4) Unbound System's Energy  [=(2)] =   -2.23 kcal/mol
USER    
USER    
USER  
USER    DPF = ligand_dock.biased.dpf
USER    NEWDPF move	ligand.pdbqt
USER    NEWDPF about	0.320000 0.169000 0.303000
USER    NEWDPF tran0	15.994425 -10.695760 1.812972
USER    NEWDPF axisangle0	-0.805074 0.184713 -0.563682 -173.705514
USER    NEWDPF quaternion0	-0.803860 0.184434 -0.562832 -0.054902
USER    NEWDPF dihe0	5.23 -49.64 173.73 14.74 -170.08 31.72 
USER  
USER                              x       y       z    vdW   Elec        q     RMS 
ATOM      1  C   UNL     1      13.658 -10.696   2.086 -0.31 +0.00    +0.000    17.222
ATOM      2  C   UNL     1      15.001 -11.012   2.326 -0.40 +0.00    +0.000    17.222
ATOM      3  C   UNL     1      15.685 -10.456   3.422 -0.44 +0.00    +0.000    17.222
ATOM      4  C   UNL     1      14.999  -9.560   4.267 -0.37 +0.00    +0.000    17.222
ATOM      5  C   UNL     1      13.657  -9.252   4.030 -0.30 +0.00    +0.000    17.222
ATOM      6  C   UNL     1      12.985  -9.821   2.946 -0.20 +0.00    +0.000    17.222
ATOM      7  O   UNL     1      12.260 -10.317  -0.181 -0.25 +0.00    +0.000    17.222
ATOM      8  S   UNL     1      12.824 -11.396   0.701 -0.51 +0.00    +0.000    17.222
ATOM      9  O   UNL     1      11.700 -12.259   1.200 -0.52 +0.00    +0.000    17.222
ATOM     10  N   UNL     1      13.922 -12.369  -0.229 -0.43 +0.00    +0.000    17.222
ATOM     11  H   UNL     1      13.581 -13.207  -0.617 +0.06 +0.00    +0.000    17.222
ATOM     12  C   UNL     1      15.299 -12.024  -0.465 -0.41 +0.00    +0.000    17.222
ATOM     13  C   UNL     1      15.667 -10.845  -1.142 -0.28 -0.00    +0.000    17.222
ATOM     14  C   UNL     1      17.016 -10.538  -1.344 -0.24 -0.00    +0.000    17.222
ATOM     15  C   UNL     1      18.009 -11.403  -0.879 -0.37 -0.00    +0.000    17.222
ATOM     16  C   UNL     1      17.656 -12.578  -0.213 -0.41 -0.00    +0.000    17.222
ATOM     17  C   UNL     1      16.308 -12.888  -0.007 -0.47 +0.00    +0.000    17.222
ATOM     18  C   UNL     1      17.113 -10.807   3.617 -0.35 +0.00    +0.000    17.222
ATOM     19  C   UNL     1      17.954 -11.088   2.610 -0.50 +0.00    +0.000    17.222
ATOM     20  C   UNL     1      19.376 -11.437   2.810 -0.69 -0.00    +0.000    17.222
ATOM     21  N   UNL     1      20.120 -12.208   1.857 -0.71 -0.00    +0.000    17.222
ATOM     22  O   UNL     1      19.942 -11.063   3.873 -0.80 -0.00    +0.000    17.222
ATOM     23  H   UNL     1      19.661 -12.603   1.081 -0.21 -0.00    +0.000    17.222
ATOM     24  O   UNL     1      21.452 -12.394   2.021 -0.97 -0.00    +0.000    17.222
ATOM     25  H   UNL     1      21.729 -12.014   2.869 -0.54 -0.00    +0.000    17.222
TER
ENDMDL
MODEL       83
USER    Run = 83
USER    Cluster Rank = 18
USER    Number of conformations in this cluster = 1
USER  
USER    RMSD from reference structure       = 18.279 A
USER  
USER    Estimated Free Energy of Binding    =   -8.47 kcal/mol  [=(1)+(2)+(3)-(4)]
USER    Estimated Inhibition Constant, Ki   =  620.01 nM (nanomolar)  [Temperature = 298.15 K]
USER    
USER    (1) Final Intermolecular Energy     =  -10.26 kcal/mol
USER        vdW + Hbond + desolv Energy     =  -10.26 kcal/mol
USER        Electrostatic Energy            =   +0.00 kcal/mol
USER    (2) Final Total Internal Energy     =   -1.90 kcal/mol
USER    (3) Torsional Free Energy           =   +1.79 kcal/mol
USER    (4) Unbound System's Energy  [=(2)] =   -1.90 kcal/mol
USER    
USER    
USER  
USER    DPF = ligand_dock.biased.dpf
USER    NEWDPF move	ligand.pdbqt
USER    NEWDPF about	0.320000 0.169000 0.303000
USER    NEWDPF tran0	18.337426 -10.156182 0.398720
USER    NEWDPF axisangle0	-0.868966 0.468092 0.160588 -159.340352
USER    NEWDPF quaternion0	-0.854881 0.460505 0.157985 -0.179314
USER    NEWDPF dihe0	8.24 -82.62 90.27 -35.76 168.19 87.78 
USER  
USER                              x       y       z    vdW   Elec        q     RMS 
ATOM      1  C   UNL     1      17.940 -11.084   2.524 -0.44 +0.00    +0.000    18.279
ATOM      2  C   UNL     1      18.276 -11.027   1.165 -0.45 -0.00    +0.000    18.279
ATOM      3  C   UNL     1      19.614 -11.151   0.750 -0.57 -0.00    +0.000    18.279
ATOM      4  C   UNL     1      20.616 -11.316   1.728 -0.66 -0.00    +0.000    18.279
ATOM      5  C   UNL     1      20.278 -11.379   3.083 -0.65 -0.00    +0.000    18.279
ATOM      6  C   UNL     1      18.944 -11.269   3.481 -0.43 -0.00    +0.000    18.279
ATOM      7  O   UNL     1      15.758  -9.527   2.744 -0.40 +0.00    +0.000    18.279
ATOM      8  S   UNL     1      16.258 -10.917   3.021 -0.64 +0.00    +0.000    18.279
ATOM      9  O   UNL     1      16.162 -11.189   4.495 -0.65 +0.00    +0.000    18.279
ATOM     10  N   UNL     1      15.265 -12.057   2.164 -0.49 +0.00    +0.000    18.279
ATOM     11  H   UNL     1      15.115 -12.938   2.575 -0.15 +0.00    +0.000    18.279
ATOM     12  C   UNL     1      14.651 -11.788   0.891 -0.40 +0.00    +0.000    18.279
ATOM     13  C   UNL     1      13.334 -11.300   0.785 -0.35 +0.00    +0.000    18.279
ATOM     14  C   UNL     1      12.774 -11.042  -0.470 -0.29 +0.00    +0.000    18.279
ATOM     15  C   UNL     1      13.517 -11.272  -1.629 -0.29 -0.00    +0.000    18.279
ATOM     16  C   UNL     1      14.821 -11.763  -1.537 -0.33 +0.00    +0.000    18.279
ATOM     17  C   UNL     1      15.386 -12.021  -0.284 -0.41 +0.00    +0.000    18.279
ATOM     18  C   UNL     1      19.917 -11.061  -0.700 -0.49 -0.00    +0.000    18.279
ATOM     19  C   UNL     1      19.019 -10.692  -1.626 -0.43 -0.00    +0.000    18.279
ATOM     20  C   UNL     1      19.325 -10.605  -3.068 -0.42 -0.00    +0.000    18.279
ATOM     21  N   UNL     1      19.522 -11.767  -3.884 -0.41 -0.00    +0.000    18.279
ATOM     22  O   UNL     1      19.444  -9.462  -3.588 -0.31 -0.00    +0.000    18.279
ATOM     23  H   UNL     1      19.545 -12.660  -3.469 -0.07 -0.00    +0.000    18.279
ATOM     24  O   UNL     1      19.673 -11.641  -5.225 -0.54 -0.00    +0.000    18.279
ATOM     25  H   UNL     1      19.755 -10.702  -5.454 -0.01 -0.00    +0.000    18.279
TER
ENDMDL


AVSFLD: # AVS field file
AVSFLD: #
AVSFLD: # Created by AutoDock
AVSFLD: #
AVSFLD: ndim=2           # number of dimensions in the field
AVSFLD: nspace=1         # number of physical coordinates
AVSFLD: veclen=7         # vector size
AVSFLD: dim1=25          # atoms
AVSFLD: dim2=18          # conformations
AVSFLD: data=Real       # data type (byte,integer,Real,double)
AVSFLD: field=uniform    # field coordinate layout
AVSFLD: label= x y z vdW Elec q RMS
AVSFLD: variable 1 file = ligand_dock.biased.dlg.pdb filetype = ascii offset = 5 stride = 12
AVSFLD: variable 2 file = ligand_dock.biased.dlg.pdb filetype = ascii offset = 6 stride = 12
AVSFLD: variable 3 file = ligand_dock.biased.dlg.pdb filetype = ascii offset = 7 stride = 12
AVSFLD: variable 4 file = ligand_dock.biased.dlg.pdb filetype = ascii offset = 8 stride = 12
AVSFLD: variable 5 file = ligand_dock.biased.dlg.pdb filetype = ascii offset = 9 stride = 12
AVSFLD: variable 6 file = ligand_dock.biased.dlg.pdb filetype = ascii offset = 10 stride = 12
AVSFLD: variable 7 file = ligand_dock.biased.dlg.pdb filetype = ascii offset = 11 stride = 12
AVSFLD: # end of file

>>> Closing the docking parameter file (DPF)...
This docking finished at:			5:42 50" p.m., 11/03/2024


________________________________________________________________________________

autodock4: Successful Completion on "ThinkStation-P620"

Real= 11m 35.67s,  CPU= 11m 35.44s,  System= 0.18s
________________________________________________________________________________

