REMARK  Name = 
REMARK  7 active torsions:
REMARK  status: ('A' for Active; 'I' for Inactive)
REMARK    1  A    between atoms: C_2  and  C_5
REMARK    2  A    between atoms: N_3  and  O_4
REMARK    3  A    between atoms: C_5  and  C_6
REMARK    4  A    between atoms: C_6  and  C_7
REMARK    5  A    between atoms: C_7  and  C_8
REMARK    6  A    between atoms: C_8  and  C_9
REMARK    7  A    between atoms: C_9  and  N_10
REMARK                            x       y       z     vdW  Elec       q    Type
REMARK                         _______ _______ _______ _____ _____    ______ ____
ROOT
ATOM      1  N   UNL     1      -0.462  -0.610  -1.306  0.00  0.00    +0.000 N 
ATOM      2  C   UNL     1      -1.172   0.455  -1.967  0.00  0.00    +0.000 C 
ATOM      3  C   UNL     1      -2.510   0.867  -1.484  0.00  0.00    +0.000 A 
ATOM      4  C   UNL     1      -3.200   1.922  -2.107  0.00  0.00    +0.000 A 
ATOM      5  C   UNL     1      -4.460   2.313  -1.651  0.00  0.00    +0.000 A 
ATOM      6  C   UNL     1      -5.051   1.659  -0.570  0.00  0.00    +0.000 A 
ATOM      7  C   UNL     1      -4.383   0.604   0.067  0.00  0.00    +0.000 A 
ATOM      8  C   UNL     1      -4.978  -0.054   1.153  0.00  0.00    +0.000 A 
ATOM      9  C   UNL     1      -4.315  -1.105   1.785  0.00  0.00    +0.000 A 
ATOM     10  C   UNL     1      -3.055  -1.511   1.344  0.00  0.00    +0.000 A 
ATOM     11  C   UNL     1      -2.437  -0.867   0.257  0.00  0.00    +0.000 A 
ATOM     12  C   UNL     1      -3.102   0.199  -0.389  0.00  0.00    +0.000 A 
ATOM     13  O   UNL     1      -0.655   1.038  -2.960  0.00  0.00    +0.000 OA
ATOM     14  C   UNL     1      -1.099  -1.297  -0.210  0.00  0.00    +0.000 C 
ATOM     15  O   UNL     1      -0.521  -2.266   0.354  0.00  0.00    +0.000 OA
ENDROOT
BRANCH   1  16
ATOM     16  C   UNL     1       0.905  -0.960  -1.727  0.00  0.00    +0.000 C 
BRANCH  16  17
ATOM     17  C   UNL     1       1.933   0.065  -1.218  0.00  0.00    +0.000 C 
BRANCH  17  18
ATOM     18  C   UNL     1       2.051   0.132   0.317  0.00  0.00    +0.000 C 
BRANCH  18  19
ATOM     19  C   UNL     1       2.681  -1.115   0.971  0.00  0.00    +0.000 C 
BRANCH  19  20
ATOM     20  C   UNL     1       4.160  -1.342   0.620  0.00  0.00    +0.000 C 
BRANCH  20  22
ATOM     21  O   UNL     1       5.352  -0.136   2.304  0.00  0.00    +0.000 OA
ATOM     22  C   UNL     1       5.030  -0.211   1.088  0.00  0.00    +0.000 C 
ATOM     23  N   UNL     1       5.465   0.796   0.171  0.00  0.00    +0.000 N 
ATOM     24  H   UNL     1       5.205   0.739  -0.776  0.00  0.00    +0.000 HD
BRANCH  23  25
ATOM     25  O   UNL     1       6.231   1.829   0.596  0.00  0.00    +0.000 OA
ATOM     26  H   UNL     1       6.397   1.739   1.548  0.00  0.00    +0.000 HD
ENDBRANCH  23  25
ENDBRANCH  20  22
ENDBRANCH  19  20
ENDBRANCH  18  19
ENDBRANCH  17  18
ENDBRANCH  16  17
ENDBRANCH   1  16
TORSDOF 7
