          AutoDock 4.2 Release 4.2.6   
         (C) 1989-2012 The Scripps Research Institute
        AutoDock comes with ABSOLUTELY NO WARRANTY.
        AutoDock is free software, and you are welcome
        to redistribute it under certain conditions;
        for details type 'autodock4 -C'

                     main.cc  $Revision: 1.213 $

                   Compiled on Feb 20 2022 at 09:48:33


This file was created at:			5:31 15" p.m., 11/03/2024
                   on host:		"ThinkStation-P620"
Current Working Directory = "/home/antonio/Documenti/buccheri/IDROSSAMICO HDAC/HDAC 4/P/Ligand_6"

      ________________________________________________________________

                   SETTING UP DEFAULT PARAMETER LIBRARY
      ________________________________________________________________


Random number generator was seeded with values 26994, 1730651475.
Docking parameter file (DPF) used for this docking:		ligand_dock.biased.dpf
DPF> autodock_parameter_version 4.2       # used by autodock to validate parameter set

	Autodock parameter version 4.2.
DPF> outlev 1                             # diagnostic output level

Output Level = 1  ADT-COMPATIBLE OUTPUT DURING DOCKING.
DPF> intelec                              # calculate internal electrostatics

Electrostatic energies will be calculated for all non-bonds between moving atoms.
DPF> seed pid time                        # seeds for random generator

Random number generator was seeded with values 26994, 1730651475.
DPF> ligand_types A C HD OA N             # atoms types in ligand

DPF> fld receptor.maps.fld                # grid_data_file

Opening Grid Map Dimensions file:		receptor.maps.fld
Grid Point Spacing =				0.375 Angstroms

Even Number of User-specified Grid Points =	70 x-points
						70 y-points
						70 z-points

Coordinates of Central Grid Point of Maps =	(19.141, -8.645, -3.505)
Macromolecule file used to create Grid Maps =	receptor.pdbqt
Grid Parameter file used to create Grid Maps =	receptor.gpf
Minimum coordinates in grid = (6.016, -21.770, -16.630)
Maximum coordinates in grid = (32.266, 4.480, 9.620)

DPF> map receptor.A.map                   # atom-specific affinity map

DPF> map receptor.C.map                   # atom-specific affinity map

DPF> map receptor.HD.map                  # atom-specific affinity map

DPF> map receptor.OA.biased.map

DPF> map receptor.N.map                   # atom-specific affinity map

DPF> elecmap receptor.e.map               # electrostatics map

DPF> desolvmap receptor.d.map             # desolvation map

DPF> move ligand.pdbqt                    # small molecule

1,4-interactions will be _ignored_ in the non-bonded internal energy calculation.

Ligand PDBQT file = "ligand.pdbqt"

INPUT LIGAND PDBQT FILE:
________________________

INPUT-LIGAND-PDBQT: REMARK  Name = 
INPUT-LIGAND-PDBQT: REMARK  7 active torsions:
INPUT-LIGAND-PDBQT: REMARK  status: ('A' for Active; 'I' for Inactive)
INPUT-LIGAND-PDBQT: REMARK    1  A    between atoms: C_2  and  C_5
INPUT-LIGAND-PDBQT: REMARK    2  A    between atoms: N_3  and  O_4
INPUT-LIGAND-PDBQT: REMARK    3  A    between atoms: C_5  and  C_6
INPUT-LIGAND-PDBQT: REMARK    4  A    between atoms: C_6  and  C_7
INPUT-LIGAND-PDBQT: REMARK    5  A    between atoms: C_7  and  C_8
INPUT-LIGAND-PDBQT: REMARK    6  A    between atoms: C_8  and  C_9
INPUT-LIGAND-PDBQT: REMARK    7  A    between atoms: C_9  and  N_10
INPUT-LIGAND-PDBQT: REMARK                            x       y       z     vdW  Elec       q    Type
INPUT-LIGAND-PDBQT: REMARK                         _______ _______ _______ _____ _____    ______ ____
INPUT-LIGAND-PDBQT: ROOT
INPUT-LIGAND-PDBQT: ATOM      1  N   UNL     1      -0.462  -0.610  -1.306  0.00  0.00    +0.000 N 
INPUT-LIGAND-PDBQT: ATOM      2  C   UNL     1      -1.172   0.455  -1.967  0.00  0.00    +0.000 C 
INPUT-LIGAND-PDBQT: ATOM      3  C   UNL     1      -2.510   0.867  -1.484  0.00  0.00    +0.000 A 
INPUT-LIGAND-PDBQT: ATOM      4  C   UNL     1      -3.200   1.922  -2.107  0.00  0.00    +0.000 A 
INPUT-LIGAND-PDBQT: ATOM      5  C   UNL     1      -4.460   2.313  -1.651  0.00  0.00    +0.000 A 
INPUT-LIGAND-PDBQT: ATOM      6  C   UNL     1      -5.051   1.659  -0.570  0.00  0.00    +0.000 A 
INPUT-LIGAND-PDBQT: ATOM      7  C   UNL     1      -4.383   0.604   0.067  0.00  0.00    +0.000 A 
INPUT-LIGAND-PDBQT: ATOM      8  C   UNL     1      -4.978  -0.054   1.153  0.00  0.00    +0.000 A 
INPUT-LIGAND-PDBQT: ATOM      9  C   UNL     1      -4.315  -1.105   1.785  0.00  0.00    +0.000 A 
INPUT-LIGAND-PDBQT: ATOM     10  C   UNL     1      -3.055  -1.511   1.344  0.00  0.00    +0.000 A 
INPUT-LIGAND-PDBQT: ATOM     11  C   UNL     1      -2.437  -0.867   0.257  0.00  0.00    +0.000 A 
INPUT-LIGAND-PDBQT: ATOM     12  C   UNL     1      -3.102   0.199  -0.389  0.00  0.00    +0.000 A 
INPUT-LIGAND-PDBQT: ATOM     13  O   UNL     1      -0.655   1.038  -2.960  0.00  0.00    +0.000 OA
INPUT-LIGAND-PDBQT: ATOM     14  C   UNL     1      -1.099  -1.297  -0.210  0.00  0.00    +0.000 C 
INPUT-LIGAND-PDBQT: ATOM     15  O   UNL     1      -0.521  -2.266   0.354  0.00  0.00    +0.000 OA
INPUT-LIGAND-PDBQT: ENDROOT
INPUT-LIGAND-PDBQT: BRANCH   1  16
INPUT-LIGAND-PDBQT: ATOM     16  C   UNL     1       0.905  -0.960  -1.727  0.00  0.00    +0.000 C 
INPUT-LIGAND-PDBQT: BRANCH  16  17
INPUT-LIGAND-PDBQT: ATOM     17  C   UNL     1       1.933   0.065  -1.218  0.00  0.00    +0.000 C 
INPUT-LIGAND-PDBQT: BRANCH  17  18
INPUT-LIGAND-PDBQT: ATOM     18  C   UNL     1       2.051   0.132   0.317  0.00  0.00    +0.000 C 
INPUT-LIGAND-PDBQT: BRANCH  18  19
INPUT-LIGAND-PDBQT: ATOM     19  C   UNL     1       2.681  -1.115   0.971  0.00  0.00    +0.000 C 
INPUT-LIGAND-PDBQT: BRANCH  19  20
INPUT-LIGAND-PDBQT: ATOM     20  C   UNL     1       4.160  -1.342   0.620  0.00  0.00    +0.000 C 
INPUT-LIGAND-PDBQT: BRANCH  20  22
INPUT-LIGAND-PDBQT: ATOM     21  O   UNL     1       5.352  -0.136   2.304  0.00  0.00    +0.000 OA
INPUT-LIGAND-PDBQT: ATOM     22  C   UNL     1       5.030  -0.211   1.088  0.00  0.00    +0.000 C 
INPUT-LIGAND-PDBQT: ATOM     23  N   UNL     1       5.465   0.796   0.171  0.00  0.00    +0.000 N 
INPUT-LIGAND-PDBQT: ATOM     24  H   UNL     1       5.205   0.739  -0.776  0.00  0.00    +0.000 HD
INPUT-LIGAND-PDBQT: BRANCH  23  25
INPUT-LIGAND-PDBQT: ATOM     25  O   UNL     1       6.231   1.829   0.596  0.00  0.00    +0.000 OA
INPUT-LIGAND-PDBQT: ATOM     26  H   UNL     1       6.397   1.739   1.548  0.00  0.00    +0.000 HD
INPUT-LIGAND-PDBQT: ENDBRANCH  23  25
INPUT-LIGAND-PDBQT: ENDBRANCH  20  22
INPUT-LIGAND-PDBQT: ENDBRANCH  19  20
INPUT-LIGAND-PDBQT: ENDBRANCH  18  19
INPUT-LIGAND-PDBQT: ENDBRANCH  17  18
INPUT-LIGAND-PDBQT: ENDBRANCH  16  17
INPUT-LIGAND-PDBQT: ENDBRANCH   1  16
INPUT-LIGAND-PDBQT: TORSDOF 7
________________________________________________________________________________

Total charge on ligand                               =	+0.000 e
REMARK  Name = 
REMARK  7 active torsions:
REMARK  status: ('A' for Active; 'I' for Inactive)
REMARK    1  A    between atoms: C_2  and  C_5
REMARK    2  A    between atoms: N_3  and  O_4
REMARK    3  A    between atoms: C_5  and  C_6
REMARK    4  A    between atoms: C_6  and  C_7
REMARK    5  A    between atoms: C_7  and  C_8
REMARK    6  A    between atoms: C_8  and  C_9
REMARK    7  A    between atoms: C_9  and  N_10
REMARK                            x       y       z     vdW  Elec       q    Type
REMARK                         _______ _______ _______ _____ _____    ______ ____


Number of Rotatable Bonds in Small Molecule =	7 torsions
Number of atoms in ligand:  26

Number of non-hydrogen atoms in ligand:  24

Number of vibrational degrees of freedom of ligand:  72


Number of torsional degrees of freedom = 7
Estimated loss of torsional free energy upon binding = +2.0881 kcal/mol


DPF> about 0.154 0.111 -0.146            # small molecule center

Small molecule center of rotation =	(+0.154, +0.111, -0.146)

DPF> tran0 random                         # initial coordinates/A or random

Initial translation =			(30.230, -8.176, 2.558) Angstroms
DPF> quaternion0 random                   # initial orientation

Each run will begin with a new, random initial orientation.
Initial quaternion,  (x,y,z,w) =	( 0.515, -0.625, 0.536, 0.238 ),
DPF> dihe0 random                         # initial dihedrals (relative) or random

DPF> torsdof 7                            # torsional degrees of freedom

Number of torsional degrees of freedom = 7
Free energy coefficient for torsional degrees of freedom = 0.2983, the factory default value.

Estimated loss of torsional free energy upon binding = +2.0881 kcal/mol

DPF> rmstol 2.0                           # cluster_tolerance/A

Maximum RMS tolerance for conformational cluster analysis = 2.00 Angstroms
DPF> extnrg 1000.0                        # external grid energy

External grid energy (beyond grid map walls) = 1000.00

DPF> e0max 0.0 10000                      # max initial energy; max number of retries

Using user-specified maximum number of retries for simanneal initialization, 10000 retries.
If the simanneal initial energy is greater than e0max, 0.000,
then a new, random initial state will be created.

DPF> ga_pop_size 150                      # number of individuals in population

A population of 150 individuals will be used
DPF> ga_num_evals 2500000                 # maximum number of energy evaluations

There will be at most 2500000 function evaluations used.
DPF> ga_num_generations 27000             # maximum number of generations

The GA will run for at most 27000 generations.
DPF> ga_elitism 1                         # number of top individuals to survive to next generation

The 1 best will be preserved each GA generation.
DPF> ga_mutation_rate 0.02                # rate of gene mutation

The mutation rate is 0.020000.
DPF> ga_crossover_rate 0.8                # rate of crossover

The crossover rate is 0.800000.
DPF> ga_window_size 10                    # 

The GA's selection window is 10 generations.
DPF> ga_cauchy_alpha 0.0                  # Alpha parameter of Cauchy distribution

The alpha parameter (for the Cauchy distribution) is being set to 0.000000.
DPF> ga_cauchy_beta 1.0                   # Beta parameter Cauchy distribution

The beta parameter (for the Cauchy distribution) is being set to 1.000000.
DPF> set_ga                               # set the above parameters for GA or LGA

DPF> sw_max_its 300                       # iterations of Solis & Wets local search

Solis & Wets algorithms will perform at most 300 iterations.
DPF> sw_max_succ 4                        # consecutive successes before changing rho

Solis & Wets algorithms expand rho every 4 in a row successes.
DPF> sw_max_fail 4                        # consecutive failures before changing rho

Solis & Wets algorithms contract rho every 4 in a row failures.
DPF> sw_rho 1.0                           # size of local search space to sample

rho is set to 1.000000.
DPF> sw_lb_rho 0.01                       # lower bound on rho

rho will never get smaller than 0.010000.
DPF> ls_search_freq 0.06                  # probability of performing local search on individual

Local search will be performed with frequency 0.060000.
DPF> set_psw1                             # set the above pseudo-Solis & Wets parameters

Creating a new Local Search object using the pseudo-Solis-Wets algorithm (pSW1) with the current settings.

DPF> unbound_model bound                  # state of unbound ligand

DPF> ga_run 100

centering ligand on specified point: 0.154 0.111 -0.146
Furthest true ligand atom from "about" center is 6.670 Angstroms (maxrad).
Number of requested GA dockings = 100 runs
Unbound model to be used is 'same as bound' [AutoDock 4.2 default].

	BEGINNING GENETIC ALGORITHM DOCKING 1 of 100
Run: 1 Seed: 1620867620 1668023552 [ Run 1 of 100 GA/GALS ]
Beginning LAMARCKIAN GENETIC ALGORITHM (LGA), with a maximum of 2500000 energy evaluations.

Final-Value: -13.690


	FINAL GENETIC ALGORITHM DOCKED STATE
	_______________________________________________


Detailed state:  trans 16.876 -11.050 1.525 quatxyzw -0.109989 0.243772 -0.330603 -0.905085 center 0.154 0.111 -0.146 ntor 7 35.7669 -35.1144 -30.2044 162.9452 103.4364 -41.9601 -19.9132
State:	 16.876 -11.050   1.525  -0.259  0.573 -0.777 -50.330     35.77  -35.11  -30.20  162.95  103.44  -41.96  -19.91

DOCKED: MODEL        1
DOCKED: USER    Run = 1
DOCKED: USER    DPF = ligand_dock.biased.dpf
DOCKED: USER  
DOCKED: USER    Estimated Free Energy of Binding    =  -10.19 kcal/mol  [=(1)+(2)+(3)-(4)]
DOCKED: USER    Estimated Inhibition Constant, Ki   =   33.95 nM (nanomolar)  [Temperature = 298.15 K]
DOCKED: USER    
DOCKED: USER    (1) Final Intermolecular Energy     =  -12.28 kcal/mol
DOCKED: USER        vdW + Hbond + desolv Energy     =  -12.28 kcal/mol
DOCKED: USER        Electrostatic Energy            =   +0.00 kcal/mol
DOCKED: USER    (2) Final Total Internal Energy     =   -1.41 kcal/mol
DOCKED: USER    (3) Torsional Free Energy           =   +2.09 kcal/mol
DOCKED: USER    (4) Unbound System's Energy  [=(2)] =   -1.41 kcal/mol
DOCKED: USER    
DOCKED: USER    
DOCKED: USER    NEWDPF move ligand.pdbqt
DOCKED: USER    NEWDPF about 0.154000 0.111000 -0.146000
DOCKED: USER    NEWDPF tran0 16.875564 -11.049660 1.524553
DOCKED: USER    NEWDPF quaternion0 -0.109989 0.243772 -0.330603 -0.905085
DOCKED: USER    NEWDPF axisangle0 -0.258656 0.573271 -0.777468 -50.330476
DOCKED: USER    NEWDPF quat0 -0.258656 0.573271 -0.777468 -50.330476
DOCKED: USER    NEWDPF dihe0 35.77 -35.11 -30.20 162.95 103.44 -41.96 -19.91 
DOCKED: USER  keepresnum = 1 
DOCKED: USER  
DOCKED: REMARK  Name = 
DOCKED: REMARK  7 active torsions:
DOCKED: REMARK  status: ('A' for Active; 'I' for Inactive)
DOCKED: REMARK    1  A    between atoms: C_2  and  C_5
DOCKED: REMARK    2  A    between atoms: N_3  and  O_4
DOCKED: REMARK    3  A    between atoms: C_5  and  C_6
DOCKED: REMARK    4  A    between atoms: C_6  and  C_7
DOCKED: REMARK    5  A    between atoms: C_7  and  C_8
DOCKED: REMARK    6  A    between atoms: C_8  and  C_9
DOCKED: REMARK    7  A    between atoms: C_9  and  N_10
DOCKED: REMARK                            x       y       z     vdW  Elec       q    Type
DOCKED: REMARK                         _______ _______ _______ _____ _____    ______ ____
DOCKED: USER                              x       y       z     vdW  Elec       q    Type
DOCKED: USER                           _______ _______ _______ _____ _____    ______ ____
DOCKED: ROOT
DOCKED: ATOM      1  N   UNL     1      15.478 -11.238   1.017 -0.33 +0.00    +0.000 N 
DOCKED: ATOM      2  C   UNL     1      15.248  -9.994   0.329 -0.29 +0.00    +0.000 C 
DOCKED: ATOM      3  C   UNL     1      14.835  -8.791   1.087 -0.24 +0.00    +0.000 A 
DOCKED: ATOM      4  C   UNL     1      14.632  -7.566   0.428 -0.20 -0.00    +0.000 A 
DOCKED: ATOM      5  C   UNL     1      14.245  -6.431   1.142 -0.18 -0.00    +0.000 A 
DOCKED: ATOM      6  C   UNL     1      14.052  -6.500   2.522 -0.20 +0.00    +0.000 A 
DOCKED: ATOM      7  C   UNL     1      14.248  -7.710   3.202 -0.24 +0.00    +0.000 A 
DOCKED: ATOM      8  C   UNL     1      14.053  -7.779   4.589 -0.32 +0.00    +0.000 A 
DOCKED: ATOM      9  C   UNL     1      14.245  -8.983   5.264 -0.41 +0.00    +0.000 A 
DOCKED: ATOM     10  C   UNL     1      14.632 -10.129   4.568 -0.38 +0.00    +0.000 A 
DOCKED: ATOM     11  C   UNL     1      14.833 -10.085   3.177 -0.37 +0.00    +0.000 A 
DOCKED: ATOM     12  C   UNL     1      14.641  -8.869   2.485 -0.26 +0.00    +0.000 A 
DOCKED: ATOM     13  O   UNL     1      15.398  -9.927  -0.923 -0.29 -0.00    +0.000 OA
DOCKED: ATOM     14  C   UNL     1      15.245 -11.301   2.439 -0.49 +0.00    +0.000 C 
DOCKED: ATOM     15  O   UNL     1      15.390 -12.390   3.058 -0.52 +0.00    +0.000 OA
DOCKED: ENDROOT
DOCKED: BRANCH   1  16
DOCKED: ATOM     16  C   UNL     1      15.977 -12.410   0.279 -0.53 +0.00    +0.000 C 
DOCKED: BRANCH  16  17
DOCKED: ATOM     17  C   UNL     1      17.294 -12.099  -0.453 -0.44 +0.00    +0.000 C 
DOCKED: BRANCH  17  18
DOCKED: ATOM     18  C   UNL     1      18.071 -10.901   0.127 -0.44 -0.00    +0.000 C 
DOCKED: BRANCH  18  19
DOCKED: ATOM     19  C   UNL     1      19.475 -10.690  -0.475 -0.52 -0.00    +0.000 C 
DOCKED: BRANCH  19  20
DOCKED: ATOM     20  C   UNL     1      20.593 -10.504   0.562 -0.69 -0.00    +0.000 C 
DOCKED: BRANCH  20  22
DOCKED: ATOM     21  O   UNL     1      19.884 -12.451   1.752 -1.73 -0.00    +0.000 OA
DOCKED: ATOM     22  C   UNL     1      20.325 -11.273   1.824 -0.76 -0.00    +0.000 C 
DOCKED: ATOM     23  N   UNL     1      20.534 -10.665   3.101 -0.67 -0.00    +0.000 N 
DOCKED: ATOM     24  H   UNL     1      20.870  -9.742   3.154 -0.60 -0.00    +0.000 HD
DOCKED: BRANCH  23  25
DOCKED: ATOM     25  O   UNL     1      20.271 -11.350   4.240 -0.79 -0.00    +0.000 OA
DOCKED: ATOM     26  H   UNL     1      20.500 -12.285   4.116 -0.42 -0.00    +0.000 HD
DOCKED: ENDBRANCH  23  25
DOCKED: ENDBRANCH  20  22
DOCKED: ENDBRANCH  19  20
DOCKED: ENDBRANCH  18  19
DOCKED: ENDBRANCH  17  18
DOCKED: ENDBRANCH  16  17
DOCKED: ENDBRANCH   1  16
DOCKED: TORSDOF 7
DOCKED: TER
DOCKED: ENDMDL
________________________________________________________________________________


	BEGINNING GENETIC ALGORITHM DOCKING 2 of 100
Run: 2 Seed: 1980904185 1112113269 [ Run 2 of 100 GA/GALS ]
Beginning LAMARCKIAN GENETIC ALGORITHM (LGA), with a maximum of 2500000 energy evaluations.

Final-Value: -13.646


	FINAL GENETIC ALGORITHM DOCKED STATE
	_______________________________________________


Detailed state:  trans 16.809 -12.982 -1.099 quatxyzw -0.013572 -0.500458 0.789591 0.354829 center 0.154 0.111 -0.146 ntor 7 19.5762 174.4949 179.7445 80.3747 144.7645 -33.5052 162.4763
State:	 16.809 -12.982  -1.099  -0.015 -0.535  0.845 138.434     19.58  174.49  179.74   80.37  144.76  -33.51  162.48

DOCKED: MODEL        2
DOCKED: USER    Run = 2
DOCKED: USER    DPF = ligand_dock.biased.dpf
DOCKED: USER  
DOCKED: USER    Estimated Free Energy of Binding    =   -8.81 kcal/mol  [=(1)+(2)+(3)-(4)]
DOCKED: USER    Estimated Inhibition Constant, Ki   =  346.83 nM (nanomolar)  [Temperature = 298.15 K]
DOCKED: USER    
DOCKED: USER    (1) Final Intermolecular Energy     =  -10.90 kcal/mol
DOCKED: USER        vdW + Hbond + desolv Energy     =  -10.90 kcal/mol
DOCKED: USER        Electrostatic Energy            =   +0.00 kcal/mol
DOCKED: USER    (2) Final Total Internal Energy     =   -2.74 kcal/mol
DOCKED: USER    (3) Torsional Free Energy           =   +2.09 kcal/mol
DOCKED: USER    (4) Unbound System's Energy  [=(2)] =   -2.74 kcal/mol
DOCKED: USER    
DOCKED: USER    
DOCKED: USER    NEWDPF move ligand.pdbqt
DOCKED: USER    NEWDPF about 0.154000 0.111000 -0.146000
DOCKED: USER    NEWDPF tran0 16.808885 -12.982064 -1.099059
DOCKED: USER    NEWDPF quaternion0 -0.013572 -0.500458 0.789591 0.354829
DOCKED: USER    NEWDPF axisangle0 -0.014517 -0.535288 0.844545 138.434040
DOCKED: USER    NEWDPF quat0 -0.014517 -0.535288 0.844545 138.434040
DOCKED: USER    NEWDPF dihe0 19.58 174.49 179.74 80.37 144.76 -33.51 162.48 
DOCKED: USER  keepresnum = 1 
DOCKED: USER  
DOCKED: REMARK  Name = 
DOCKED: REMARK  7 active torsions:
DOCKED: REMARK  status: ('A' for Active; 'I' for Inactive)
DOCKED: REMARK    1  A    between atoms: C_2  and  C_5
DOCKED: REMARK    2  A    between atoms: N_3  and  O_4
DOCKED: REMARK    3  A    between atoms: C_5  and  C_6
DOCKED: REMARK    4  A    between atoms: C_6  and  C_7
DOCKED: REMARK    5  A    between atoms: C_7  and  C_8
DOCKED: REMARK    6  A    between atoms: C_8  and  C_9
DOCKED: REMARK    7  A    between atoms: C_9  and  N_10
DOCKED: REMARK                            x       y       z     vdW  Elec       q    Type
DOCKED: REMARK                         _______ _______ _______ _____ _____    ______ ____
DOCKED: USER                              x       y       z     vdW  Elec       q    Type
DOCKED: USER                           _______ _______ _______ _____ _____    ______ ____
DOCKED: ROOT
DOCKED: ATOM      1  N   UNL     1      16.469 -11.539  -0.883 -0.32 +0.00    +0.000 N 
DOCKED: ATOM      2  C   UNL     1      17.390 -10.885  -1.776 -0.21 -0.00    +0.000 C 
DOCKED: ATOM      3  C   UNL     1      18.788 -10.642  -1.353 -0.34 -0.00    +0.000 A 
DOCKED: ATOM      4  C   UNL     1      19.702 -10.027  -2.228 -0.35 -0.00    +0.000 A 
DOCKED: ATOM      5  C   UNL     1      21.021  -9.800  -1.831 -0.54 -0.00    +0.000 A 
DOCKED: ATOM      6  C   UNL     1      21.448 -10.180  -0.559 -0.63 -0.00    +0.000 A 
DOCKED: ATOM      7  C   UNL     1      20.556 -10.794   0.331 -0.61 -0.00    +0.000 A 
DOCKED: ATOM      8  C   UNL     1      20.986 -11.174   1.610 -0.37 -0.00    +0.000 A 
DOCKED: ATOM      9  C   UNL     1      20.097 -11.783   2.496 -0.70 -0.00    +0.000 A 
DOCKED: ATOM     10  C   UNL     1      18.775 -12.018   2.119 -0.39 -0.00    +0.000 A 
DOCKED: ATOM     11  C   UNL     1      18.320 -11.646   0.841 -0.49 -0.00    +0.000 A 
DOCKED: ATOM     12  C   UNL     1      19.213 -11.029  -0.063 -0.48 -0.00    +0.000 A 
DOCKED: ATOM     13  O   UNL     1      17.007 -10.518  -2.921 -0.28 -0.00    +0.000 OA
DOCKED: ATOM     14  C   UNL     1      16.916 -11.898   0.440 -0.49 +0.00    +0.000 C 
DOCKED: ATOM     15  O   UNL     1      16.116 -12.425   1.260 -0.94 +0.00    +0.000 OA
DOCKED: ENDROOT
DOCKED: BRANCH   1  16
DOCKED: ATOM     16  C   UNL     1      15.105 -11.863  -1.334 -0.36 +0.00    +0.000 C 
DOCKED: BRANCH  16  17
DOCKED: ATOM     17  C   UNL     1      14.042 -11.199  -0.442 -0.36 +0.00    +0.000 C 
DOCKED: BRANCH  17  18
DOCKED: ATOM     18  C   UNL     1      14.486  -9.862   0.181 -0.26 +0.00    +0.000 C 
DOCKED: BRANCH  18  19
DOCKED: ATOM     19  C   UNL     1      13.919  -9.587   1.589 -0.24 +0.00    +0.000 C 
DOCKED: BRANCH  19  20
DOCKED: ATOM     20  C   UNL     1      14.863  -8.804   2.516 -0.32 +0.00    +0.000 C 
DOCKED: BRANCH  20  22
DOCKED: ATOM     21  O   UNL     1      14.756  -9.279   4.855 -0.46 +0.00    +0.000 OA
DOCKED: ATOM     22  C   UNL     1      15.239  -9.595   3.735 -0.44 +0.00    +0.000 C 
DOCKED: ATOM     23  N   UNL     1      16.165 -10.680   3.638 -0.50 +0.00    +0.000 N 
DOCKED: ATOM     24  H   UNL     1      16.546 -10.920   2.764 -0.01 +0.00    +0.000 HD
DOCKED: BRANCH  23  25
DOCKED: ATOM     25  O   UNL     1      16.522 -11.381   4.741 -0.52 +0.00    +0.000 OA
DOCKED: ATOM     26  H   UNL     1      15.861 -11.246   5.439 -0.30 +0.00    +0.000 HD
DOCKED: ENDBRANCH  23  25
DOCKED: ENDBRANCH  20  22
DOCKED: ENDBRANCH  19  20
DOCKED: ENDBRANCH  18  19
DOCKED: ENDBRANCH  17  18
DOCKED: ENDBRANCH  16  17
DOCKED: ENDBRANCH   1  16
DOCKED: TORSDOF 7
DOCKED: TER
DOCKED: ENDMDL
________________________________________________________________________________


	BEGINNING GENETIC ALGORITHM DOCKING 3 of 100
Run: 3 Seed: 1569723790 837900183 [ Run 3 of 100 GA/GALS ]
Beginning LAMARCKIAN GENETIC ALGORITHM (LGA), with a maximum of 2500000 energy evaluations.

Final-Value: -14.090


	FINAL GENETIC ALGORITHM DOCKED STATE
	_______________________________________________


Detailed state:  trans 19.321 -9.713 1.268 quatxyzw 0.432544 0.057797 -0.221284 0.872123 center 0.154 0.111 -0.146 ntor 7 4.5831 179.4065 -134.2732 177.8550 92.4987 -155.4810 -16.0574
State:	 19.321  -9.713   1.268   0.884  0.118 -0.452 58.587      4.58  179.41 -134.27  177.86   92.50 -155.48  -16.06

DOCKED: MODEL        3
DOCKED: USER    Run = 3
DOCKED: USER    DPF = ligand_dock.biased.dpf
DOCKED: USER  
DOCKED: USER    Estimated Free Energy of Binding    =   -9.90 kcal/mol  [=(1)+(2)+(3)-(4)]
DOCKED: USER    Estimated Inhibition Constant, Ki   =   55.62 nM (nanomolar)  [Temperature = 298.15 K]
DOCKED: USER    
DOCKED: USER    (1) Final Intermolecular Energy     =  -11.99 kcal/mol
DOCKED: USER        vdW + Hbond + desolv Energy     =  -11.99 kcal/mol
DOCKED: USER        Electrostatic Energy            =   +0.00 kcal/mol
DOCKED: USER    (2) Final Total Internal Energy     =   -2.10 kcal/mol
DOCKED: USER    (3) Torsional Free Energy           =   +2.09 kcal/mol
DOCKED: USER    (4) Unbound System's Energy  [=(2)] =   -2.10 kcal/mol
DOCKED: USER    
DOCKED: USER    
DOCKED: USER    NEWDPF move ligand.pdbqt
DOCKED: USER    NEWDPF about 0.154000 0.111000 -0.146000
DOCKED: USER    NEWDPF tran0 19.321095 -9.713030 1.267862
DOCKED: USER    NEWDPF quaternion0 0.432544 0.057797 -0.221284 0.872123
DOCKED: USER    NEWDPF axisangle0 0.884030 0.118126 -0.452258 58.587384
DOCKED: USER    NEWDPF quat0 0.884030 0.118126 -0.452258 58.587384
DOCKED: USER    NEWDPF dihe0 4.58 179.41 -134.27 177.86 92.50 -155.48 -16.06 
DOCKED: USER  keepresnum = 1 
DOCKED: USER  
DOCKED: REMARK  Name = 
DOCKED: REMARK  7 active torsions:
DOCKED: REMARK  status: ('A' for Active; 'I' for Inactive)
DOCKED: REMARK    1  A    between atoms: C_2  and  C_5
DOCKED: REMARK    2  A    between atoms: N_3  and  O_4
DOCKED: REMARK    3  A    between atoms: C_5  and  C_6
DOCKED: REMARK    4  A    between atoms: C_6  and  C_7
DOCKED: REMARK    5  A    between atoms: C_7  and  C_8
DOCKED: REMARK    6  A    between atoms: C_8  and  C_9
DOCKED: REMARK    7  A    between atoms: C_9  and  N_10
DOCKED: REMARK                            x       y       z     vdW  Elec       q    Type
DOCKED: REMARK                         _______ _______ _______ _____ _____    ______ ____
DOCKED: USER                              x       y       z     vdW  Elec       q    Type
DOCKED: USER                           _______ _______ _______ _____ _____    ______ ____
DOCKED: ROOT
DOCKED: ATOM      1  N   UNL     1      19.351 -11.208   1.168 -0.54 -0.00    +0.000 N 
DOCKED: ATOM      2  C   UNL     1      18.550 -11.437  -0.008 -0.52 -0.00    +0.000 C 
DOCKED: ATOM      3  C   UNL     1      17.073 -11.451   0.091 -0.38 +0.00    +0.000 A 
DOCKED: ATOM      4  C   UNL     1      16.283 -11.649  -1.055 -0.18 +0.00    +0.000 A 
DOCKED: ATOM      5  C   UNL     1      14.890 -11.659  -0.963 -0.35 +0.00    +0.000 A 
DOCKED: ATOM      6  C   UNL     1      14.264 -11.474   0.270 -0.35 +0.00    +0.000 A 
DOCKED: ATOM      7  C   UNL     1      15.031 -11.276   1.426 -0.37 +0.00    +0.000 A 
DOCKED: ATOM      8  C   UNL     1      14.402 -11.091   2.666 -0.40 +0.00    +0.000 A 
DOCKED: ATOM      9  C   UNL     1      15.164 -10.896   3.817 -0.45 +0.00    +0.000 A 
DOCKED: ATOM     10  C   UNL     1      16.557 -10.882   3.746 -0.40 +0.00    +0.000 A 
DOCKED: ATOM     11  C   UNL     1      17.212 -11.065   2.515 -0.40 +0.00    +0.000 A 
DOCKED: ATOM     12  C   UNL     1      16.447 -11.263   1.344 -0.38 +0.00    +0.000 A 
DOCKED: ATOM     13  O   UNL     1      19.108 -11.627  -1.124 -0.50 -0.00    +0.000 OA
DOCKED: ATOM     14  C   UNL     1      18.691 -11.049   2.440 -0.60 -0.00    +0.000 C 
DOCKED: ATOM     15  O   UNL     1      19.369 -10.898   3.493 -0.74 -0.00    +0.000 OA
DOCKED: ENDROOT
DOCKED: BRANCH   1  16
DOCKED: ATOM     16  C   UNL     1      20.815 -11.103   1.056 -0.67 -0.00    +0.000 C 
DOCKED: BRANCH  16  17
DOCKED: ATOM     17  C   UNL     1      21.231  -9.945   0.134 -0.68 -0.00    +0.000 C 
DOCKED: BRANCH  17  18
DOCKED: ATOM     18  C   UNL     1      21.419 -10.348  -1.341 -0.63 -0.00    +0.000 C 
DOCKED: BRANCH  18  19
DOCKED: ATOM     19  C   UNL     1      21.390  -9.174  -2.341 -0.52 -0.00    +0.000 C 
DOCKED: BRANCH  19  20
DOCKED: ATOM     20  C   UNL     1      20.223  -9.213  -3.340 -0.39 -0.00    +0.000 C 
DOCKED: BRANCH  20  22
DOCKED: ATOM     21  O   UNL     1      20.784  -9.976  -5.534 -0.30 -0.00    +0.000 OA
DOCKED: ATOM     22  C   UNL     1      20.402 -10.287  -4.374 -0.43 -0.00    +0.000 C 
DOCKED: ATOM     23  N   UNL     1      20.111 -11.651  -4.060 -0.45 -0.00    +0.000 N 
DOCKED: ATOM     24  H   UNL     1      19.805 -11.889  -3.156 -0.03 -0.00    +0.000 HD
DOCKED: BRANCH  23  25
DOCKED: ATOM     25  O   UNL     1      20.250 -12.618  -4.998 -0.79 -0.00    +0.000 OA
DOCKED: ATOM     26  H   UNL     1      20.626 -12.233  -5.806 -0.52 -0.00    +0.000 HD
DOCKED: ENDBRANCH  23  25
DOCKED: ENDBRANCH  20  22
DOCKED: ENDBRANCH  19  20
DOCKED: ENDBRANCH  18  19
DOCKED: ENDBRANCH  17  18
DOCKED: ENDBRANCH  16  17
DOCKED: ENDBRANCH   1  16
DOCKED: TORSDOF 7
DOCKED: TER
DOCKED: ENDMDL
________________________________________________________________________________


	BEGINNING GENETIC ALGORITHM DOCKING 4 of 100
Run: 4 Seed: 739351139 393903753 [ Run 4 of 100 GA/GALS ]
Beginning LAMARCKIAN GENETIC ALGORITHM (LGA), with a maximum of 2500000 energy evaluations.

Final-Value: -13.467


	FINAL GENETIC ALGORITHM DOCKED STATE
	_______________________________________________


Detailed state:  trans 19.264 -12.178 -1.992 quatxyzw 0.722763 0.058241 -0.583905 -0.365071 center 0.154 0.111 -0.146 ntor 7 -1.9775 47.1027 151.1358 -175.2141 171.4678 3.6280 -170.9852
State:	 19.264 -12.178  -1.992   0.776  0.063 -0.627 -137.176     -1.98   47.10  151.14 -175.21  171.47    3.63 -170.99

DOCKED: MODEL        4
DOCKED: USER    Run = 4
DOCKED: USER    DPF = ligand_dock.biased.dpf
DOCKED: USER  
DOCKED: USER    Estimated Free Energy of Binding    =   -9.91 kcal/mol  [=(1)+(2)+(3)-(4)]
DOCKED: USER    Estimated Inhibition Constant, Ki   =   54.48 nM (nanomolar)  [Temperature = 298.15 K]
DOCKED: USER    
DOCKED: USER    (1) Final Intermolecular Energy     =  -12.00 kcal/mol
DOCKED: USER        vdW + Hbond + desolv Energy     =  -12.00 kcal/mol
DOCKED: USER        Electrostatic Energy            =   +0.00 kcal/mol
DOCKED: USER    (2) Final Total Internal Energy     =   -1.47 kcal/mol
DOCKED: USER    (3) Torsional Free Energy           =   +2.09 kcal/mol
DOCKED: USER    (4) Unbound System's Energy  [=(2)] =   -1.47 kcal/mol
DOCKED: USER    
DOCKED: USER    
DOCKED: USER    NEWDPF move ligand.pdbqt
DOCKED: USER    NEWDPF about 0.154000 0.111000 -0.146000
DOCKED: USER    NEWDPF tran0 19.263965 -12.177549 -1.991938
DOCKED: USER    NEWDPF quaternion0 0.722763 0.058241 -0.583905 -0.365071
DOCKED: USER    NEWDPF axisangle0 0.776347 0.062559 -0.627194 -137.176118
DOCKED: USER    NEWDPF quat0 0.776347 0.062559 -0.627194 -137.176118
DOCKED: USER    NEWDPF dihe0 -1.98 47.10 151.14 -175.21 171.47 3.63 -170.99 
DOCKED: USER  keepresnum = 1 
DOCKED: USER  
DOCKED: REMARK  Name = 
DOCKED: REMARK  7 active torsions:
DOCKED: REMARK  status: ('A' for Active; 'I' for Inactive)
DOCKED: REMARK    1  A    between atoms: C_2  and  C_5
DOCKED: REMARK    2  A    between atoms: N_3  and  O_4
DOCKED: REMARK    3  A    between atoms: C_5  and  C_6
DOCKED: REMARK    4  A    between atoms: C_6  and  C_7
DOCKED: REMARK    5  A    between atoms: C_7  and  C_8
DOCKED: REMARK    6  A    between atoms: C_8  and  C_9
DOCKED: REMARK    7  A    between atoms: C_9  and  N_10
DOCKED: REMARK                            x       y       z     vdW  Elec       q    Type
DOCKED: REMARK                         _______ _______ _______ _____ _____    ______ ____
DOCKED: USER                              x       y       z     vdW  Elec       q    Type
DOCKED: USER                           _______ _______ _______ _____ _____    ______ ____
DOCKED: ROOT
DOCKED: ATOM      1  N   UNL     1      19.634 -10.752  -1.717 -0.44 -0.00    +0.000 N 
DOCKED: ATOM      2  C   UNL     1      20.486 -10.889  -0.564 -0.59 -0.00    +0.000 C 
DOCKED: ATOM      3  C   UNL     1      19.893 -11.018   0.786 -0.59 -0.00    +0.000 A 
DOCKED: ATOM      4  C   UNL     1      20.716 -11.178   1.915 -0.56 -0.00    +0.000 A 
DOCKED: ATOM      5  C   UNL     1      20.158 -11.302   3.189 -0.65 -0.00    +0.000 A 
DOCKED: ATOM      6  C   UNL     1      18.774 -11.269   3.356 -0.42 -0.00    +0.000 A 
DOCKED: ATOM      7  C   UNL     1      17.932 -11.110   2.246 -0.45 -0.00    +0.000 A 
DOCKED: ATOM      8  C   UNL     1      16.541 -11.076   2.415 -0.41 +0.00    +0.000 A 
DOCKED: ATOM      9  C   UNL     1      15.704 -10.915   1.312 -0.33 +0.00    +0.000 A 
DOCKED: ATOM     10  C   UNL     1      16.243 -10.789   0.031 -0.30 +0.00    +0.000 A 
DOCKED: ATOM     11  C   UNL     1      17.635 -10.820  -0.165 -0.32 -0.00    +0.000 A 
DOCKED: ATOM     12  C   UNL     1      18.490 -10.983   0.948 -0.46 -0.00    +0.000 A 
DOCKED: ATOM     13  O   UNL     1      21.741 -10.898  -0.703 -0.74 -0.00    +0.000 OA
DOCKED: ATOM     14  C   UNL     1      18.206 -10.688  -1.525 -0.33 -0.00    +0.000 C 
DOCKED: ATOM     15  O   UNL     1      17.440 -10.517  -2.512 -0.32 -0.00    +0.000 OA
DOCKED: ENDROOT
DOCKED: BRANCH   1  16
DOCKED: ATOM     16  C   UNL     1      20.218 -10.714  -3.069 -0.48 -0.00    +0.000 C 
DOCKED: BRANCH  16  17
DOCKED: ATOM     17  C   UNL     1      20.437  -9.270  -3.550 -0.40 -0.00    +0.000 C 
DOCKED: BRANCH  17  18
DOCKED: ATOM     18  C   UNL     1      21.519  -8.500  -2.767 -0.42 -0.00    +0.000 C 
DOCKED: BRANCH  18  19
DOCKED: ATOM     19  C   UNL     1      21.015  -7.232  -2.047 -0.44 -0.00    +0.000 C 
DOCKED: BRANCH  19  20
DOCKED: ATOM     20  C   UNL     1      21.497  -5.912  -2.669 -0.41 -0.00    +0.000 C 
DOCKED: BRANCH  20  22
DOCKED: ATOM     21  O   UNL     1      22.816  -4.262  -1.551 -0.88 +0.00    +0.000 OA
DOCKED: ATOM     22  C   UNL     1      21.702  -4.843  -1.633 -0.43 +0.00    +0.000 C 
DOCKED: ATOM     23  N   UNL     1      20.653  -4.509  -0.721 -0.47 +0.00    +0.000 N 
DOCKED: ATOM     24  H   UNL     1      19.787  -4.971  -0.782 -0.07 -0.00    +0.000 HD
DOCKED: BRANCH  23  25
DOCKED: ATOM     25  O   UNL     1      20.843  -3.561   0.229 -1.06 +0.00    +0.000 OA
DOCKED: ATOM     26  H   UNL     1      21.753  -3.228   0.176 -0.04 +0.00    +0.000 HD
DOCKED: ENDBRANCH  23  25
DOCKED: ENDBRANCH  20  22
DOCKED: ENDBRANCH  19  20
DOCKED: ENDBRANCH  18  19
DOCKED: ENDBRANCH  17  18
DOCKED: ENDBRANCH  16  17
DOCKED: ENDBRANCH   1  16
DOCKED: TORSDOF 7
DOCKED: TER
DOCKED: ENDMDL
________________________________________________________________________________


	BEGINNING GENETIC ALGORITHM DOCKING 5 of 100
Run: 5 Seed: 750735174 1744032566 [ Run 5 of 100 GA/GALS ]
Beginning LAMARCKIAN GENETIC ALGORITHM (LGA), with a maximum of 2500000 energy evaluations.

Final-Value: -13.683


	FINAL GENETIC ALGORITHM DOCKED STATE
	_______________________________________________


Detailed state:  trans 20.322 -9.061 -1.265 quatxyzw -0.250494 0.276923 0.434532 -0.819603 center 0.154 0.111 -0.146 ntor 7 0.8204 22.0467 26.7452 180.0000 -34.7339 -179.0302 24.4749
State:	 20.322  -9.061  -1.265  -0.437  0.483  0.758 -69.910      0.82   22.05   26.75  180.00  -34.73 -179.03   24.47

DOCKED: MODEL        5
DOCKED: USER    Run = 5
DOCKED: USER    DPF = ligand_dock.biased.dpf
DOCKED: USER  
DOCKED: USER    Estimated Free Energy of Binding    =   -9.61 kcal/mol  [=(1)+(2)+(3)-(4)]
DOCKED: USER    Estimated Inhibition Constant, Ki   =   89.68 nM (nanomolar)  [Temperature = 298.15 K]
DOCKED: USER    
DOCKED: USER    (1) Final Intermolecular Energy     =  -11.70 kcal/mol
DOCKED: USER        vdW + Hbond + desolv Energy     =  -11.70 kcal/mol
DOCKED: USER        Electrostatic Energy            =   +0.00 kcal/mol
DOCKED: USER    (2) Final Total Internal Energy     =   -1.98 kcal/mol
DOCKED: USER    (3) Torsional Free Energy           =   +2.09 kcal/mol
DOCKED: USER    (4) Unbound System's Energy  [=(2)] =   -1.98 kcal/mol
DOCKED: USER    
DOCKED: USER    
DOCKED: USER    NEWDPF move ligand.pdbqt
DOCKED: USER    NEWDPF about 0.154000 0.111000 -0.146000
DOCKED: USER    NEWDPF tran0 20.321851 -9.060830 -1.264971
DOCKED: USER    NEWDPF quaternion0 -0.250494 0.276923 0.434532 -0.819603
DOCKED: USER    NEWDPF axisangle0 -0.437214 0.483343 0.758435 -69.909887
DOCKED: USER    NEWDPF quat0 -0.437214 0.483343 0.758435 -69.909887
DOCKED: USER    NEWDPF dihe0 0.82 22.05 26.75 180.00 -34.73 -179.03 24.47 
DOCKED: USER  keepresnum = 1 
DOCKED: USER  
DOCKED: REMARK  Name = 
DOCKED: REMARK  7 active torsions:
DOCKED: REMARK  status: ('A' for Active; 'I' for Inactive)
DOCKED: REMARK    1  A    between atoms: C_2  and  C_5
DOCKED: REMARK    2  A    between atoms: N_3  and  O_4
DOCKED: REMARK    3  A    between atoms: C_5  and  C_6
DOCKED: REMARK    4  A    between atoms: C_6  and  C_7
DOCKED: REMARK    5  A    between atoms: C_7  and  C_8
DOCKED: REMARK    6  A    between atoms: C_8  and  C_9
DOCKED: REMARK    7  A    between atoms: C_9  and  N_10
DOCKED: REMARK                            x       y       z     vdW  Elec       q    Type
DOCKED: REMARK                         _______ _______ _______ _____ _____    ______ ____
DOCKED: USER                              x       y       z     vdW  Elec       q    Type
DOCKED: USER                           _______ _______ _______ _____ _____    ______ ____
DOCKED: ROOT
DOCKED: ATOM      1  N   UNL     1      20.373 -10.528  -1.565 -0.51 -0.00    +0.000 N 
DOCKED: ATOM      2  C   UNL     1      18.977 -10.836  -1.746 -0.44 -0.00    +0.000 C 
DOCKED: ATOM      3  C   UNL     1      18.113 -11.085  -0.569 -0.38 -0.00    +0.000 A 
DOCKED: ATOM      4  C   UNL     1      16.744 -11.362  -0.734 -0.31 -0.00    +0.000 A 
DOCKED: ATOM      5  C   UNL     1      15.928 -11.593   0.374 -0.37 +0.00    +0.000 A 
DOCKED: ATOM      6  C   UNL     1      16.463 -11.553   1.662 -0.39 +0.00    +0.000 A 
DOCKED: ATOM      7  C   UNL     1      17.825 -11.279   1.852 -0.44 +0.00    +0.000 A 
DOCKED: ATOM      8  C   UNL     1      18.362 -11.240   3.147 -0.35 -0.00    +0.000 A 
DOCKED: ATOM      9  C   UNL     1      19.717 -10.971   3.336 -0.62 -0.00    +0.000 A 
DOCKED: ATOM     10  C   UNL     1      20.549 -10.737   2.240 -0.51 -0.00    +0.000 A 
DOCKED: ATOM     11  C   UNL     1      20.034 -10.770   0.932 -0.59 -0.00    +0.000 A 
DOCKED: ATOM     12  C   UNL     1      18.663 -11.043   0.732 -0.47 -0.00    +0.000 A 
DOCKED: ATOM     13  O   UNL     1      18.489 -10.897  -2.908 -0.36 -0.00    +0.000 OA
DOCKED: ATOM     14  C   UNL     1      20.917 -10.521  -0.230 -0.70 -0.00    +0.000 C 
DOCKED: ATOM     15  O   UNL     1      22.146 -10.303  -0.047 -0.67 -0.00    +0.000 OA
DOCKED: ENDROOT
DOCKED: BRANCH   1  16
DOCKED: ATOM     16  C   UNL     1      21.212 -10.192  -2.727 -0.55 -0.00    +0.000 C 
DOCKED: BRANCH  16  17
DOCKED: ATOM     17  C   UNL     1      21.416  -8.673  -2.857 -0.46 -0.00    +0.000 C 
DOCKED: BRANCH  17  18
DOCKED: ATOM     18  C   UNL     1      20.796  -8.058  -4.127 -0.32 -0.00    +0.000 C 
DOCKED: BRANCH  18  19
DOCKED: ATOM     19  C   UNL     1      19.484  -8.724  -4.592 -0.23 -0.00    +0.000 C 
DOCKED: BRANCH  19  20
DOCKED: ATOM     20  C   UNL     1      19.581  -9.455  -5.940 -0.21 -0.00    +0.000 C 
DOCKED: BRANCH  20  22
DOCKED: ATOM     21  O   UNL     1      19.139 -11.800  -5.809 -0.46 -0.00    +0.000 OA
DOCKED: ATOM     22  C   UNL     1      20.006 -10.886  -5.775 -0.41 -0.00    +0.000 C 
DOCKED: ATOM     23  N   UNL     1      21.379 -11.212  -5.548 -0.47 -0.00    +0.000 N 
DOCKED: ATOM     24  H   UNL     1      22.052 -10.496  -5.514 -0.02 -0.00    +0.000 HD
DOCKED: BRANCH  23  25
DOCKED: ATOM     25  O   UNL     1      21.761 -12.501  -5.376 -0.82 -0.00    +0.000 OA
DOCKED: ATOM     26  H   UNL     1      20.986 -13.081  -5.450 -0.66 -0.00    +0.000 HD
DOCKED: ENDBRANCH  23  25
DOCKED: ENDBRANCH  20  22
DOCKED: ENDBRANCH  19  20
DOCKED: ENDBRANCH  18  19
DOCKED: ENDBRANCH  17  18
DOCKED: ENDBRANCH  16  17
DOCKED: ENDBRANCH   1  16
DOCKED: TORSDOF 7
DOCKED: TER
DOCKED: ENDMDL
________________________________________________________________________________


	BEGINNING GENETIC ALGORITHM DOCKING 6 of 100
Run: 6 Seed: 1879401723 1474677685 [ Run 6 of 100 GA/GALS ]
Beginning LAMARCKIAN GENETIC ALGORITHM (LGA), with a maximum of 2500000 energy evaluations.

Final-Value: -13.567


	FINAL GENETIC ALGORITHM DOCKED STATE
	_______________________________________________


Detailed state:  trans 14.798 -10.202 0.598 quatxyzw -0.308460 -0.704869 -0.484729 -0.415993 center 0.154 0.111 -0.146 ntor 7 62.5528 -153.2515 -161.4497 -137.6468 64.5643 -154.9186 -1.3956
State:	 14.798 -10.202   0.598  -0.339 -0.775 -0.533 -130.836     62.55 -153.25 -161.45 -137.65   64.56 -154.92   -1.40

DOCKED: MODEL        6
DOCKED: USER    Run = 6
DOCKED: USER    DPF = ligand_dock.biased.dpf
DOCKED: USER  
DOCKED: USER    Estimated Free Energy of Binding    =   -9.15 kcal/mol  [=(1)+(2)+(3)-(4)]
DOCKED: USER    Estimated Inhibition Constant, Ki   =  196.76 nM (nanomolar)  [Temperature = 298.15 K]
DOCKED: USER    
DOCKED: USER    (1) Final Intermolecular Energy     =  -11.24 kcal/mol
DOCKED: USER        vdW + Hbond + desolv Energy     =  -11.24 kcal/mol
DOCKED: USER        Electrostatic Energy            =   +0.00 kcal/mol
DOCKED: USER    (2) Final Total Internal Energy     =   -2.33 kcal/mol
DOCKED: USER    (3) Torsional Free Energy           =   +2.09 kcal/mol
DOCKED: USER    (4) Unbound System's Energy  [=(2)] =   -2.33 kcal/mol
DOCKED: USER    
DOCKED: USER    
DOCKED: USER    NEWDPF move ligand.pdbqt
DOCKED: USER    NEWDPF about 0.154000 0.111000 -0.146000
DOCKED: USER    NEWDPF tran0 14.798243 -10.201989 0.597587
DOCKED: USER    NEWDPF quaternion0 -0.308460 -0.704869 -0.484729 -0.415993
DOCKED: USER    NEWDPF axisangle0 -0.339203 -0.775120 -0.533040 -130.836264
DOCKED: USER    NEWDPF quat0 -0.339203 -0.775120 -0.533040 -130.836264
DOCKED: USER    NEWDPF dihe0 62.55 -153.25 -161.45 -137.65 64.56 -154.92 -1.40 
DOCKED: USER  keepresnum = 1 
DOCKED: USER  
DOCKED: REMARK  Name = 
DOCKED: REMARK  7 active torsions:
DOCKED: REMARK  status: ('A' for Active; 'I' for Inactive)
DOCKED: REMARK    1  A    between atoms: C_2  and  C_5
DOCKED: REMARK    2  A    between atoms: N_3  and  O_4
DOCKED: REMARK    3  A    between atoms: C_5  and  C_6
DOCKED: REMARK    4  A    between atoms: C_6  and  C_7
DOCKED: REMARK    5  A    between atoms: C_7  and  C_8
DOCKED: REMARK    6  A    between atoms: C_8  and  C_9
DOCKED: REMARK    7  A    between atoms: C_9  and  N_10
DOCKED: REMARK                            x       y       z     vdW  Elec       q    Type
DOCKED: REMARK                         _______ _______ _______ _____ _____    ______ ____
DOCKED: USER                              x       y       z     vdW  Elec       q    Type
DOCKED: USER                           _______ _______ _______ _____ _____    ______ ____
DOCKED: ROOT
DOCKED: ATOM      1  N   UNL     1      14.813 -11.557  -0.042 -0.35 +0.00    +0.000 N 
DOCKED: ATOM      2  C   UNL     1      16.225 -11.839  -0.095 -0.45 +0.00    +0.000 C 
DOCKED: ATOM      3  C   UNL     1      17.051 -11.287  -1.193 -0.21 -0.00    +0.000 A 
DOCKED: ATOM      4  C   UNL     1      18.435 -11.536  -1.239 -0.32 -0.00    +0.000 A 
DOCKED: ATOM      5  C   UNL     1      19.215 -11.014  -2.272 -0.35 -0.00    +0.000 A 
DOCKED: ATOM      6  C   UNL     1      18.631 -10.239  -3.273 -0.30 -0.00    +0.000 A 
DOCKED: ATOM      7  C   UNL     1      17.254  -9.977  -3.249 -0.21 -0.00    +0.000 A 
DOCKED: ATOM      8  C   UNL     1      16.666  -9.199  -4.256 -0.18 -0.00    +0.000 A 
DOCKED: ATOM      9  C   UNL     1      15.296  -8.941  -4.234 -0.15 -0.00    +0.000 A 
DOCKED: ATOM     10  C   UNL     1      14.498  -9.454  -3.210 -0.19 -0.00    +0.000 A 
DOCKED: ATOM     11  C   UNL     1      15.064 -10.237  -2.188 -0.25 -0.00    +0.000 A 
DOCKED: ATOM     12  C   UNL     1      16.451 -10.503  -2.203 -0.22 -0.00    +0.000 A 
DOCKED: ATOM     13  O   UNL     1      16.759 -12.558   0.794 -1.00 +0.00    +0.000 OA
DOCKED: ATOM     14  C   UNL     1      14.217 -10.780  -1.101 -0.32 +0.00    +0.000 C 
DOCKED: ATOM     15  O   UNL     1      12.975 -10.561  -1.106 -0.30 +0.00    +0.000 OA
DOCKED: ENDROOT
DOCKED: BRANCH   1  16
DOCKED: ATOM     16  C   UNL     1      14.007 -12.028   1.096 -0.47 +0.00    +0.000 C 
DOCKED: BRANCH  16  17
DOCKED: ATOM     17  C   UNL     1      14.269 -11.191   2.360 -0.45 +0.00    +0.000 C 
DOCKED: BRANCH  17  18
DOCKED: ATOM     18  C   UNL     1      15.392 -11.740   3.260 -0.46 +0.00    +0.000 C 
DOCKED: BRANCH  18  19
DOCKED: ATOM     19  C   UNL     1      16.407 -10.684   3.744 -0.47 +0.00    +0.000 C 
DOCKED: BRANCH  19  20
DOCKED: ATOM     20  C   UNL     1      17.353 -10.160   2.652 -0.49 +0.00    +0.000 C 
DOCKED: BRANCH  20  22
DOCKED: ATOM     21  O   UNL     1      19.518 -10.507   3.603 -0.68 -0.00    +0.000 OA
DOCKED: ATOM     22  C   UNL     1      18.697 -10.829   2.703 -0.61 -0.00    +0.000 C 
DOCKED: ATOM     23  N   UNL     1      19.060 -11.800   1.718 -0.57 -0.00    +0.000 N 
DOCKED: ATOM     24  H   UNL     1      18.420 -12.043   1.012 -0.02 -0.00    +0.000 HD
DOCKED: BRANCH  23  25
DOCKED: ATOM     25  O   UNL     1      20.281 -12.387   1.749 -1.70 -0.00    +0.000 OA
DOCKED: ATOM     26  H   UNL     1      20.375 -12.894   2.572 -0.52 -0.00    +0.000 HD
DOCKED: ENDBRANCH  23  25
DOCKED: ENDBRANCH  20  22
DOCKED: ENDBRANCH  19  20
DOCKED: ENDBRANCH  18  19
DOCKED: ENDBRANCH  17  18
DOCKED: ENDBRANCH  16  17
DOCKED: ENDBRANCH   1  16
DOCKED: TORSDOF 7
DOCKED: TER
DOCKED: ENDMDL
________________________________________________________________________________


	BEGINNING GENETIC ALGORITHM DOCKING 7 of 100
Run: 7 Seed: 206113793 678873302 [ Run 7 of 100 GA/GALS ]
Beginning LAMARCKIAN GENETIC ALGORITHM (LGA), with a maximum of 2500000 energy evaluations.

Final-Value: -13.969


	FINAL GENETIC ALGORITHM DOCKED STATE
	_______________________________________________


Detailed state:  trans 20.670 -9.084 -1.399 quatxyzw 0.200201 -0.273403 -0.380168 0.860606 center 0.154 0.111 -0.146 ntor 7 -0.4261 174.9875 -124.3876 52.5221 -157.6280 -172.1850 1.9890
State:	 20.670  -9.084  -1.399   0.393 -0.537 -0.746 61.231     -0.43  174.99 -124.39   52.52 -157.63 -172.18    1.99

DOCKED: MODEL        7
DOCKED: USER    Run = 7
DOCKED: USER    DPF = ligand_dock.biased.dpf
DOCKED: USER  
DOCKED: USER    Estimated Free Energy of Binding    =   -9.39 kcal/mol  [=(1)+(2)+(3)-(4)]
DOCKED: USER    Estimated Inhibition Constant, Ki   =  131.02 nM (nanomolar)  [Temperature = 298.15 K]
DOCKED: USER    
DOCKED: USER    (1) Final Intermolecular Energy     =  -11.48 kcal/mol
DOCKED: USER        vdW + Hbond + desolv Energy     =  -11.48 kcal/mol
DOCKED: USER        Electrostatic Energy            =   +0.00 kcal/mol
DOCKED: USER    (2) Final Total Internal Energy     =   -2.49 kcal/mol
DOCKED: USER    (3) Torsional Free Energy           =   +2.09 kcal/mol
DOCKED: USER    (4) Unbound System's Energy  [=(2)] =   -2.49 kcal/mol
DOCKED: USER    
DOCKED: USER    
DOCKED: USER    NEWDPF move ligand.pdbqt
DOCKED: USER    NEWDPF about 0.154000 0.111000 -0.146000
DOCKED: USER    NEWDPF tran0 20.670420 -9.083641 -1.398594
DOCKED: USER    NEWDPF quaternion0 0.200201 -0.273403 -0.380168 0.860606
DOCKED: USER    NEWDPF axisangle0 0.393113 -0.536851 -0.746494 61.230565
DOCKED: USER    NEWDPF quat0 0.393113 -0.536851 -0.746494 61.230565
DOCKED: USER    NEWDPF dihe0 -0.43 174.99 -124.39 52.52 -157.63 -172.18 1.99 
DOCKED: USER  keepresnum = 1 
DOCKED: USER  
DOCKED: REMARK  Name = 
DOCKED: REMARK  7 active torsions:
DOCKED: REMARK  status: ('A' for Active; 'I' for Inactive)
DOCKED: REMARK    1  A    between atoms: C_2  and  C_5
DOCKED: REMARK    2  A    between atoms: N_3  and  O_4
DOCKED: REMARK    3  A    between atoms: C_5  and  C_6
DOCKED: REMARK    4  A    between atoms: C_6  and  C_7
DOCKED: REMARK    5  A    between atoms: C_7  and  C_8
DOCKED: REMARK    6  A    between atoms: C_8  and  C_9
DOCKED: REMARK    7  A    between atoms: C_9  and  N_10
DOCKED: REMARK                            x       y       z     vdW  Elec       q    Type
DOCKED: REMARK                         _______ _______ _______ _____ _____    ______ ____
DOCKED: USER                              x       y       z     vdW  Elec       q    Type
DOCKED: USER                           _______ _______ _______ _____ _____    ______ ____
DOCKED: ROOT
DOCKED: ATOM      1  N   UNL     1      20.506 -10.515  -1.810 -0.51 -0.00    +0.000 N 
DOCKED: ATOM      2  C   UNL     1      19.083 -10.595  -2.023 -0.42 -0.00    +0.000 C 
DOCKED: ATOM      3  C   UNL     1      18.171 -10.798  -0.874 -0.33 -0.00    +0.000 A 
DOCKED: ATOM      4  C   UNL     1      16.780 -10.852  -1.068 -0.28 -0.00    +0.000 A 
DOCKED: ATOM      5  C   UNL     1      15.919 -11.040   0.015 -0.31 +0.00    +0.000 A 
DOCKED: ATOM      6  C   UNL     1      16.431 -11.178   1.305 -0.37 +0.00    +0.000 A 
DOCKED: ATOM      7  C   UNL     1      17.814 -11.127   1.524 -0.43 -0.00    +0.000 A 
DOCKED: ATOM      8  C   UNL     1      18.329 -11.266   2.821 -0.41 -0.00    +0.000 A 
DOCKED: ATOM      9  C   UNL     1      19.705 -11.219   3.038 -0.65 -0.00    +0.000 A 
DOCKED: ATOM     10  C   UNL     1      20.582 -11.032   1.970 -0.62 -0.00    +0.000 A 
DOCKED: ATOM     11  C   UNL     1      20.091 -10.890   0.659 -0.59 -0.00    +0.000 A 
DOCKED: ATOM     12  C   UNL     1      18.698 -10.937   0.430 -0.45 -0.00    +0.000 A 
DOCKED: ATOM     13  O   UNL     1      18.612 -10.494  -3.189 -0.36 -0.00    +0.000 OA
DOCKED: ATOM     14  C   UNL     1      21.022 -10.690  -0.475 -0.65 -0.00    +0.000 C 
DOCKED: ATOM     15  O   UNL     1      22.266 -10.675  -0.268 -0.65 -0.00    +0.000 OA
DOCKED: ENDROOT
DOCKED: BRANCH   1  16
DOCKED: ATOM     16  C   UNL     1      21.407 -10.223  -2.938 -0.54 -0.00    +0.000 C 
DOCKED: BRANCH  16  17
DOCKED: ATOM     17  C   UNL     1      21.400  -8.727  -3.294 -0.43 -0.00    +0.000 C 
DOCKED: BRANCH  17  18
DOCKED: ATOM     18  C   UNL     1      20.687  -8.397  -4.620 -0.28 -0.00    +0.000 C 
DOCKED: BRANCH  18  19
DOCKED: ATOM     19  C   UNL     1      21.590  -8.450  -5.869 -0.23 -0.00    +0.000 C 
DOCKED: BRANCH  19  20
DOCKED: ATOM     20  C   UNL     1      21.167  -9.489  -6.919 -0.22 -0.00    +0.000 C 
DOCKED: BRANCH  20  22
DOCKED: ATOM     21  O   UNL     1      22.145 -11.664  -6.763 -0.45 -0.00    +0.000 OA
DOCKED: ATOM     22  C   UNL     1      21.226 -10.890  -6.381 -0.39 -0.00    +0.000 C 
DOCKED: ATOM     23  N   UNL     1      20.231 -11.359  -5.468 -0.44 -0.00    +0.000 N 
DOCKED: ATOM     24  H   UNL     1      19.511 -10.754  -5.178 -0.01 -0.00    +0.000 HD
DOCKED: BRANCH  23  25
DOCKED: ATOM     25  O   UNL     1      20.271 -12.629  -4.999 -0.80 -0.00    +0.000 OA
DOCKED: ATOM     26  H   UNL     1      21.032 -13.092  -5.383 -0.66 -0.00    +0.000 HD
DOCKED: ENDBRANCH  23  25
DOCKED: ENDBRANCH  20  22
DOCKED: ENDBRANCH  19  20
DOCKED: ENDBRANCH  18  19
DOCKED: ENDBRANCH  17  18
DOCKED: ENDBRANCH  16  17
DOCKED: ENDBRANCH   1  16
DOCKED: TORSDOF 7
DOCKED: TER
DOCKED: ENDMDL
________________________________________________________________________________


	BEGINNING GENETIC ALGORITHM DOCKING 8 of 100
Run: 8 Seed: 2100327630 1539274889 [ Run 8 of 100 GA/GALS ]
Beginning LAMARCKIAN GENETIC ALGORITHM (LGA), with a maximum of 2500000 energy evaluations.

Final-Value: -12.989


	FINAL GENETIC ALGORITHM DOCKED STATE
	_______________________________________________


Detailed state:  trans 18.127 -11.943 -3.205 quatxyzw 0.917508 -0.197020 -0.336527 -0.078182 center 0.154 0.111 -0.146 ntor 7 2.9777 -109.6053 77.8305 -179.9654 27.3885 -49.7262 -172.1613
State:	 18.127 -11.943  -3.205   0.920 -0.198 -0.338 -171.032      2.98 -109.61   77.83 -179.97   27.39  -49.73 -172.16

DOCKED: MODEL        8
DOCKED: USER    Run = 8
DOCKED: USER    DPF = ligand_dock.biased.dpf
DOCKED: USER  
DOCKED: USER    Estimated Free Energy of Binding    =   -8.87 kcal/mol  [=(1)+(2)+(3)-(4)]
DOCKED: USER    Estimated Inhibition Constant, Ki   =  317.27 nM (nanomolar)  [Temperature = 298.15 K]
DOCKED: USER    
DOCKED: USER    (1) Final Intermolecular Energy     =  -10.95 kcal/mol
DOCKED: USER        vdW + Hbond + desolv Energy     =  -10.95 kcal/mol
DOCKED: USER        Electrostatic Energy            =   +0.00 kcal/mol
DOCKED: USER    (2) Final Total Internal Energy     =   -2.03 kcal/mol
DOCKED: USER    (3) Torsional Free Energy           =   +2.09 kcal/mol
DOCKED: USER    (4) Unbound System's Energy  [=(2)] =   -2.03 kcal/mol
DOCKED: USER    
DOCKED: USER    
DOCKED: USER    NEWDPF move ligand.pdbqt
DOCKED: USER    NEWDPF about 0.154000 0.111000 -0.146000
DOCKED: USER    NEWDPF tran0 18.126800 -11.943264 -3.205050
DOCKED: USER    NEWDPF quaternion0 0.917508 -0.197020 -0.336527 -0.078182
DOCKED: USER    NEWDPF axisangle0 0.920325 -0.197625 -0.337560 -171.031801
DOCKED: USER    NEWDPF quat0 0.920325 -0.197625 -0.337560 -171.031801
DOCKED: USER    NEWDPF dihe0 2.98 -109.61 77.83 -179.97 27.39 -49.73 -172.16 
DOCKED: USER  keepresnum = 1 
DOCKED: USER  
DOCKED: REMARK  Name = 
DOCKED: REMARK  7 active torsions:
DOCKED: REMARK  status: ('A' for Active; 'I' for Inactive)
DOCKED: REMARK    1  A    between atoms: C_2  and  C_5
DOCKED: REMARK    2  A    between atoms: N_3  and  O_4
DOCKED: REMARK    3  A    between atoms: C_5  and  C_6
DOCKED: REMARK    4  A    between atoms: C_6  and  C_7
DOCKED: REMARK    5  A    between atoms: C_7  and  C_8
DOCKED: REMARK    6  A    between atoms: C_8  and  C_9
DOCKED: REMARK    7  A    between atoms: C_9  and  N_10
DOCKED: REMARK                            x       y       z     vdW  Elec       q    Type
DOCKED: REMARK                         _______ _______ _______ _____ _____    ______ ____
DOCKED: USER                              x       y       z     vdW  Elec       q    Type
DOCKED: USER                           _______ _______ _______ _____ _____    ______ ____
DOCKED: ROOT
DOCKED: ATOM      1  N   UNL     1      18.673 -11.019  -2.160 -0.35 -0.00    +0.000 N 
DOCKED: ATOM      2  C   UNL     1      18.278 -11.687  -0.946 -0.41 -0.00    +0.000 C 
DOCKED: ATOM      3  C   UNL     1      16.907 -11.513  -0.415 -0.36 -0.00    +0.000 A 
DOCKED: ATOM      4  C   UNL     1      16.505 -12.181   0.756 -0.43 +0.00    +0.000 A 
DOCKED: ATOM      5  C   UNL     1      15.212 -12.020   1.256 -0.43 +0.00    +0.000 A 
DOCKED: ATOM      6  C   UNL     1      14.302 -11.192   0.599 -0.33 +0.00    +0.000 A 
DOCKED: ATOM      7  C   UNL     1      14.679 -10.515  -0.569 -0.26 +0.00    +0.000 A 
DOCKED: ATOM      8  C   UNL     1      13.764  -9.682  -1.228 -0.20 -0.00    +0.000 A 
DOCKED: ATOM      9  C   UNL     1      14.141  -9.007  -2.389 -0.18 -0.00    +0.000 A 
DOCKED: ATOM     10  C   UNL     1      15.429  -9.154  -2.904 -0.19 -0.00    +0.000 A 
DOCKED: ATOM     11  C   UNL     1      16.365  -9.984  -2.262 -0.18 -0.00    +0.000 A 
DOCKED: ATOM     12  C   UNL     1      15.991 -10.672  -1.085 -0.28 -0.00    +0.000 A 
DOCKED: ATOM     13  O   UNL     1      19.102 -12.421  -0.332 -0.51 -0.00    +0.000 OA
DOCKED: ATOM     14  C   UNL     1      17.731 -10.142  -2.810 -0.25 -0.00    +0.000 C 
DOCKED: ATOM     15  O   UNL     1      18.067  -9.506  -3.846 -0.26 -0.00    +0.000 OA
DOCKED: ENDROOT
DOCKED: BRANCH   1  16
DOCKED: ATOM     16  C   UNL     1      20.005 -11.262  -2.738 -0.18 -0.00    +0.000 C 
DOCKED: BRANCH  16  17
DOCKED: ATOM     17  C   UNL     1      21.012 -10.180  -2.312 -0.58 -0.00    +0.000 C 
DOCKED: BRANCH  17  18
DOCKED: ATOM     18  C   UNL     1      20.536  -9.302  -1.138 -0.44 -0.00    +0.000 C 
DOCKED: BRANCH  18  19
DOCKED: ATOM     19  C   UNL     1      21.047  -9.745   0.248 -0.65 -0.00    +0.000 C 
DOCKED: BRANCH  19  20
DOCKED: ATOM     20  C   UNL     1      19.951 -10.245   1.203 -0.57 -0.00    +0.000 C 
DOCKED: BRANCH  20  22
DOCKED: ATOM     21  O   UNL     1      21.209 -12.258   1.482 -1.08 -0.00    +0.000 OA
DOCKED: ATOM     22  C   UNL     1      20.396 -11.442   1.993 -0.77 -0.00    +0.000 C 
DOCKED: ATOM     23  N   UNL     1      19.878 -11.677   3.305 -0.70 -0.00    +0.000 N 
DOCKED: ATOM     24  H   UNL     1      19.237 -11.043   3.698 -0.02 -0.00    +0.000 HD
DOCKED: BRANCH  23  25
DOCKED: ATOM     25  O   UNL     1      20.261 -12.768   4.010 -0.75 -0.00    +0.000 OA
DOCKED: ATOM     26  H   UNL     1      20.926 -13.264   3.505 -0.61 -0.00    +0.000 HD
DOCKED: ENDBRANCH  23  25
DOCKED: ENDBRANCH  20  22
DOCKED: ENDBRANCH  19  20
DOCKED: ENDBRANCH  18  19
DOCKED: ENDBRANCH  17  18
DOCKED: ENDBRANCH  16  17
DOCKED: ENDBRANCH   1  16
DOCKED: TORSDOF 7
DOCKED: TER
DOCKED: ENDMDL
________________________________________________________________________________


	BEGINNING GENETIC ALGORITHM DOCKING 9 of 100
Run: 9 Seed: 1930073506 1625088543 [ Run 9 of 100 GA/GALS ]
Beginning LAMARCKIAN GENETIC ALGORITHM (LGA), with a maximum of 2500000 energy evaluations.

Final-Value: -14.058


	FINAL GENETIC ALGORITHM DOCKED STATE
	_______________________________________________


Detailed state:  trans 19.218 -9.568 0.464 quatxyzw 0.396105 -0.031636 -0.292652 0.869744 center 0.154 0.111 -0.146 ntor 7 -24.4867 84.5431 115.8227 -165.2967 -47.4551 -178.2418 27.7277
State:	 19.218  -9.568   0.464   0.803 -0.064 -0.593 59.142    -24.49   84.54  115.82 -165.30  -47.46 -178.24   27.73

DOCKED: MODEL        9
DOCKED: USER    Run = 9
DOCKED: USER    DPF = ligand_dock.biased.dpf
DOCKED: USER  
DOCKED: USER    Estimated Free Energy of Binding    =   -9.69 kcal/mol  [=(1)+(2)+(3)-(4)]
DOCKED: USER    Estimated Inhibition Constant, Ki   =   78.46 nM (nanomolar)  [Temperature = 298.15 K]
DOCKED: USER    
DOCKED: USER    (1) Final Intermolecular Energy     =  -11.78 kcal/mol
DOCKED: USER        vdW + Hbond + desolv Energy     =  -11.78 kcal/mol
DOCKED: USER        Electrostatic Energy            =   +0.00 kcal/mol
DOCKED: USER    (2) Final Total Internal Energy     =   -2.28 kcal/mol
DOCKED: USER    (3) Torsional Free Energy           =   +2.09 kcal/mol
DOCKED: USER    (4) Unbound System's Energy  [=(2)] =   -2.28 kcal/mol
DOCKED: USER    
DOCKED: USER    
DOCKED: USER    NEWDPF move ligand.pdbqt
DOCKED: USER    NEWDPF about 0.154000 0.111000 -0.146000
DOCKED: USER    NEWDPF tran0 19.217741 -9.567846 0.464296
DOCKED: USER    NEWDPF quaternion0 0.396105 -0.031636 -0.292652 0.869744
DOCKED: USER    NEWDPF axisangle0 0.802640 -0.064105 -0.593009 59.142120
DOCKED: USER    NEWDPF quat0 0.802640 -0.064105 -0.593009 59.142120
DOCKED: USER    NEWDPF dihe0 -24.49 84.54 115.82 -165.30 -47.46 -178.24 27.73 
DOCKED: USER  keepresnum = 1 
DOCKED: USER  
DOCKED: REMARK  Name = 
DOCKED: REMARK  7 active torsions:
DOCKED: REMARK  status: ('A' for Active; 'I' for Inactive)
DOCKED: REMARK    1  A    between atoms: C_2  and  C_5
DOCKED: REMARK    2  A    between atoms: N_3  and  O_4
DOCKED: REMARK    3  A    between atoms: C_5  and  C_6
DOCKED: REMARK    4  A    between atoms: C_6  and  C_7
DOCKED: REMARK    5  A    between atoms: C_7  and  C_8
DOCKED: REMARK    6  A    between atoms: C_8  and  C_9
DOCKED: REMARK    7  A    between atoms: C_9  and  N_10
DOCKED: REMARK                            x       y       z     vdW  Elec       q    Type
DOCKED: REMARK                         _______ _______ _______ _____ _____    ______ ____
DOCKED: USER                              x       y       z     vdW  Elec       q    Type
DOCKED: USER                           _______ _______ _______ _____ _____    ______ ____
DOCKED: ROOT
DOCKED: ATOM      1  N   UNL     1      19.299 -11.058   0.331 -0.50 -0.00    +0.000 N 
DOCKED: ATOM      2  C   UNL     1      18.260 -11.321  -0.632 -0.46 -0.00    +0.000 C 
DOCKED: ATOM      3  C   UNL     1      16.848 -11.415  -0.194 -0.36 +0.00    +0.000 A 
DOCKED: ATOM      4  C   UNL     1      15.824 -11.646  -1.130 -0.25 +0.00    +0.000 A 
DOCKED: ATOM      5  C   UNL     1      14.493 -11.732  -0.718 -0.37 +0.00    +0.000 A 
DOCKED: ATOM      6  C   UNL     1      14.163 -11.590   0.629 -0.37 +0.00    +0.000 A 
DOCKED: ATOM      7  C   UNL     1      15.166 -11.359   1.581 -0.38 +0.00    +0.000 A 
DOCKED: ATOM      8  C   UNL     1      14.834 -11.218   2.936 -0.44 +0.00    +0.000 A 
DOCKED: ATOM      9  C   UNL     1      15.831 -10.991   3.883 -0.48 +0.00    +0.000 A 
DOCKED: ATOM     10  C   UNL     1      17.168 -10.902   3.492 -0.33 +0.00    +0.000 A 
DOCKED: ATOM     11  C   UNL     1      17.527 -11.040   2.139 -0.43 +0.00    +0.000 A 
DOCKED: ATOM     12  C   UNL     1      16.522 -11.270   1.173 -0.37 +0.00    +0.000 A 
DOCKED: ATOM     13  O   UNL     1      18.551 -11.473  -1.851 -0.37 -0.00    +0.000 OA
DOCKED: ATOM     14  C   UNL     1      18.945 -10.945   1.724 -0.60 -0.00    +0.000 C 
DOCKED: ATOM     15  O   UNL     1      19.841 -10.765   2.594 -0.87 -0.00    +0.000 OA
DOCKED: ENDROOT
DOCKED: BRANCH   1  16
DOCKED: ATOM     16  C   UNL     1      20.690 -10.874  -0.115 -0.66 -0.00    +0.000 C 
DOCKED: BRANCH  16  17
DOCKED: ATOM     17  C   UNL     1      21.098  -9.391  -0.099 -0.61 -0.00    +0.000 C 
DOCKED: BRANCH  17  18
DOCKED: ATOM     18  C   UNL     1      21.392  -8.802  -1.492 -0.54 -0.00    +0.000 C 
DOCKED: BRANCH  18  19
DOCKED: ATOM     19  C   UNL     1      20.754  -9.573  -2.666 -0.51 -0.00    +0.000 C 
DOCKED: BRANCH  19  20
DOCKED: ATOM     20  C   UNL     1      21.708 -10.536  -3.391 -0.46 -0.00    +0.000 C 
DOCKED: BRANCH  20  22
DOCKED: ATOM     21  O   UNL     1      21.703 -11.862  -5.379 -0.69 -0.00    +0.000 OA
DOCKED: ATOM     22  C   UNL     1      21.017 -11.293  -4.488 -0.50 -0.00    +0.000 C 
DOCKED: ATOM     23  N   UNL     1      19.589 -11.344  -4.545 -0.45 -0.00    +0.000 N 
DOCKED: ATOM     24  H   UNL     1      19.057 -10.893  -3.853 -0.01 -0.00    +0.000 HD
DOCKED: BRANCH  23  25
DOCKED: ATOM     25  O   UNL     1      18.964 -12.009  -5.547 -0.43 -0.00    +0.000 OA
DOCKED: ATOM     26  H   UNL     1      19.551 -12.058  -6.319 -0.33 -0.00    +0.000 HD
DOCKED: ENDBRANCH  23  25
DOCKED: ENDBRANCH  20  22
DOCKED: ENDBRANCH  19  20
DOCKED: ENDBRANCH  18  19
DOCKED: ENDBRANCH  17  18
DOCKED: ENDBRANCH  16  17
DOCKED: ENDBRANCH   1  16
DOCKED: TORSDOF 7
DOCKED: TER
DOCKED: ENDMDL
________________________________________________________________________________


	BEGINNING GENETIC ALGORITHM DOCKING 10 of 100
Run: 10 Seed: 604754890 127224021 [ Run 10 of 100 GA/GALS ]
Beginning LAMARCKIAN GENETIC ALGORITHM (LGA), with a maximum of 2500000 energy evaluations.

Final-Value: -12.669


	FINAL GENETIC ALGORITHM DOCKED STATE
	_______________________________________________


Detailed state:  trans 18.356 -12.331 -1.685 quatxyzw 0.650617 0.081118 -0.659836 -0.367061 center 0.154 0.111 -0.146 ntor 7 -1.3177 34.0923 -119.1566 11.8699 -179.8777 105.6682 157.3324
State:	 18.356 -12.331  -1.685   0.699  0.087 -0.709 -136.931     -1.32   34.09 -119.16   11.87 -179.88  105.67  157.33

DOCKED: MODEL       10
DOCKED: USER    Run = 10
DOCKED: USER    DPF = ligand_dock.biased.dpf
DOCKED: USER  
DOCKED: USER    Estimated Free Energy of Binding    =   -8.02 kcal/mol  [=(1)+(2)+(3)-(4)]
DOCKED: USER    Estimated Inhibition Constant, Ki   =    1.33 uM (micromolar)  [Temperature = 298.15 K]
DOCKED: USER    
DOCKED: USER    (1) Final Intermolecular Energy     =  -10.10 kcal/mol
DOCKED: USER        vdW + Hbond + desolv Energy     =  -10.10 kcal/mol
DOCKED: USER        Electrostatic Energy            =   +0.00 kcal/mol
DOCKED: USER    (2) Final Total Internal Energy     =   -2.57 kcal/mol
DOCKED: USER    (3) Torsional Free Energy           =   +2.09 kcal/mol
DOCKED: USER    (4) Unbound System's Energy  [=(2)] =   -2.57 kcal/mol
DOCKED: USER    
DOCKED: USER    
DOCKED: USER    NEWDPF move ligand.pdbqt
DOCKED: USER    NEWDPF about 0.154000 0.111000 -0.146000
DOCKED: USER    NEWDPF tran0 18.355755 -12.331417 -1.684610
DOCKED: USER    NEWDPF quaternion0 0.650617 0.081118 -0.659836 -0.367061
DOCKED: USER    NEWDPF axisangle0 0.699440 0.087205 -0.709351 -136.931094
DOCKED: USER    NEWDPF quat0 0.699440 0.087205 -0.709351 -136.931094
DOCKED: USER    NEWDPF dihe0 -1.32 34.09 -119.16 11.87 -179.88 105.67 157.33 
DOCKED: USER  keepresnum = 1 
DOCKED: USER  
DOCKED: REMARK  Name = 
DOCKED: REMARK  7 active torsions:
DOCKED: REMARK  status: ('A' for Active; 'I' for Inactive)
DOCKED: REMARK    1  A    between atoms: C_2  and  C_5
DOCKED: REMARK    2  A    between atoms: N_3  and  O_4
DOCKED: REMARK    3  A    between atoms: C_5  and  C_6
DOCKED: REMARK    4  A    between atoms: C_6  and  C_7
DOCKED: REMARK    5  A    between atoms: C_7  and  C_8
DOCKED: REMARK    6  A    between atoms: C_8  and  C_9
DOCKED: REMARK    7  A    between atoms: C_9  and  N_10
DOCKED: REMARK                            x       y       z     vdW  Elec       q    Type
DOCKED: REMARK                         _______ _______ _______ _____ _____    ______ ____
DOCKED: USER                              x       y       z     vdW  Elec       q    Type
DOCKED: USER                           _______ _______ _______ _____ _____    ______ ____
DOCKED: ROOT
DOCKED: ATOM      1  N   UNL     1      18.786 -10.903  -1.549 -0.39 -0.00    +0.000 N 
DOCKED: ATOM      2  C   UNL     1      19.860 -11.011  -0.595 -0.53 -0.00    +0.000 C 
DOCKED: ATOM      3  C   UNL     1      19.562 -11.082   0.854 -0.57 -0.00    +0.000 A 
DOCKED: ATOM      4  C   UNL     1      20.602 -11.213   1.791 -0.65 -0.00    +0.000 A 
DOCKED: ATOM      5  C   UNL     1      20.322 -11.283   3.157 -0.62 -0.00    +0.000 A 
DOCKED: ATOM      6  C   UNL     1      19.004 -11.222   3.609 -0.39 -0.00    +0.000 A 
DOCKED: ATOM      7  C   UNL     1      17.950 -11.091   2.694 -0.41 +0.00    +0.000 A 
DOCKED: ATOM      8  C   UNL     1      16.625 -11.028   3.148 -0.39 +0.00    +0.000 A 
DOCKED: ATOM      9  C   UNL     1      15.577 -10.895   2.239 -0.39 +0.00    +0.000 A 
DOCKED: ATOM     10  C   UNL     1      15.836 -10.823   0.870 -0.31 +0.00    +0.000 A 
DOCKED: ATOM     11  C   UNL     1      17.156 -10.884   0.388 -0.34 -0.00    +0.000 A 
DOCKED: ATOM     12  C   UNL     1      18.224 -11.019   1.303 -0.45 -0.00    +0.000 A 
DOCKED: ATOM     13  O   UNL     1      21.057 -11.045  -0.993 -0.58 -0.00    +0.000 OA
DOCKED: ATOM     14  C   UNL     1      17.431 -10.809  -1.065 -0.34 -0.00    +0.000 C 
DOCKED: ATOM     15  O   UNL     1      16.476 -10.663  -1.876 -0.31 -0.00    +0.000 OA
DOCKED: ENDROOT
DOCKED: BRANCH   1  16
DOCKED: ATOM     16  C   UNL     1      19.074 -10.923  -2.993 -0.38 -0.00    +0.000 C 
DOCKED: BRANCH  16  17
DOCKED: ATOM     17  C   UNL     1      18.460  -9.709  -3.709 -0.28 -0.00    +0.000 C 
DOCKED: BRANCH  17  18
DOCKED: ATOM     18  C   UNL     1      18.932  -9.529  -5.165 -0.23 -0.00    +0.000 C 
DOCKED: BRANCH  18  19
DOCKED: ATOM     19  C   UNL     1      19.835  -8.301  -5.403 -0.17 -0.00    +0.000 C 
DOCKED: BRANCH  19  20
DOCKED: ATOM     20  C   UNL     1      21.294  -8.484  -4.956 -0.29 -0.00    +0.000 C 
DOCKED: BRANCH  20  22
DOCKED: ATOM     21  O   UNL     1      21.798  -9.993  -3.173 -0.55 -0.00    +0.000 OA
DOCKED: ATOM     22  C   UNL     1      21.396  -8.845  -3.502 -0.42 -0.00    +0.000 C 
DOCKED: ATOM     23  N   UNL     1      21.009  -7.909  -2.494 -0.44 -0.00    +0.000 N 
DOCKED: ATOM     24  H   UNL     1      20.687  -7.016  -2.754 -0.02 -0.00    +0.000 HD
DOCKED: BRANCH  23  25
DOCKED: ATOM     25  O   UNL     1      21.079  -8.241  -1.182 -0.60 -0.00    +0.000 OA
DOCKED: ATOM     26  H   UNL     1      21.393  -9.155  -1.096 -0.04 -0.00    +0.000 HD
DOCKED: ENDBRANCH  23  25
DOCKED: ENDBRANCH  20  22
DOCKED: ENDBRANCH  19  20
DOCKED: ENDBRANCH  18  19
DOCKED: ENDBRANCH  17  18
DOCKED: ENDBRANCH  16  17
DOCKED: ENDBRANCH   1  16
DOCKED: TORSDOF 7
DOCKED: TER
DOCKED: ENDMDL
________________________________________________________________________________


	BEGINNING GENETIC ALGORITHM DOCKING 11 of 100
Run: 11 Seed: 1985326492 1769022007 [ Run 11 of 100 GA/GALS ]
Beginning LAMARCKIAN GENETIC ALGORITHM (LGA), with a maximum of 2500000 energy evaluations.

Final-Value: -12.815


	FINAL GENETIC ALGORITHM DOCKED STATE
	_______________________________________________


Detailed state:  trans 20.710 -10.082 -6.363 quatxyzw -0.087581 -0.605760 0.338411 0.714747 center 0.154 0.111 -0.146 ntor 7 -144.7029 83.3964 -125.6152 102.5875 -155.9675 10.0324 -20.5001
State:	 20.710 -10.082  -6.363  -0.125 -0.866  0.484 88.755   -144.70   83.40 -125.62  102.59 -155.97   10.03  -20.50

DOCKED: MODEL       11
DOCKED: USER    Run = 11
DOCKED: USER    DPF = ligand_dock.biased.dpf
DOCKED: USER  
DOCKED: USER    Estimated Free Energy of Binding    =   -7.65 kcal/mol  [=(1)+(2)+(3)-(4)]
DOCKED: USER    Estimated Inhibition Constant, Ki   =    2.46 uM (micromolar)  [Temperature = 298.15 K]
DOCKED: USER    
DOCKED: USER    (1) Final Intermolecular Energy     =   -9.74 kcal/mol
DOCKED: USER        vdW + Hbond + desolv Energy     =   -9.74 kcal/mol
DOCKED: USER        Electrostatic Energy            =   +0.00 kcal/mol
DOCKED: USER    (2) Final Total Internal Energy     =   -3.08 kcal/mol
DOCKED: USER    (3) Torsional Free Energy           =   +2.09 kcal/mol
DOCKED: USER    (4) Unbound System's Energy  [=(2)] =   -3.08 kcal/mol
DOCKED: USER    
DOCKED: USER    
DOCKED: USER    NEWDPF move ligand.pdbqt
DOCKED: USER    NEWDPF about 0.154000 0.111000 -0.146000
DOCKED: USER    NEWDPF tran0 20.709867 -10.081816 -6.362923
DOCKED: USER    NEWDPF quaternion0 -0.087581 -0.605760 0.338411 0.714747
DOCKED: USER    NEWDPF axisangle0 -0.125226 -0.866134 0.483871 88.755100
DOCKED: USER    NEWDPF quat0 -0.125226 -0.866134 0.483871 88.755100
DOCKED: USER    NEWDPF dihe0 -144.70 83.40 -125.62 102.59 -155.97 10.03 -20.50 
DOCKED: USER  keepresnum = 1 
DOCKED: USER  
DOCKED: REMARK  Name = 
DOCKED: REMARK  7 active torsions:
DOCKED: REMARK  status: ('A' for Active; 'I' for Inactive)
DOCKED: REMARK    1  A    between atoms: C_2  and  C_5
DOCKED: REMARK    2  A    between atoms: N_3  and  O_4
DOCKED: REMARK    3  A    between atoms: C_5  and  C_6
DOCKED: REMARK    4  A    between atoms: C_6  and  C_7
DOCKED: REMARK    5  A    between atoms: C_7  and  C_8
DOCKED: REMARK    6  A    between atoms: C_8  and  C_9
DOCKED: REMARK    7  A    between atoms: C_9  and  N_10
DOCKED: REMARK                            x       y       z     vdW  Elec       q    Type
DOCKED: REMARK                         _______ _______ _______ _____ _____    ______ ____
DOCKED: USER                              x       y       z     vdW  Elec       q    Type
DOCKED: USER                           _______ _______ _______ _____ _____    ______ ____
DOCKED: ROOT
DOCKED: ATOM      1  N   UNL     1      19.326  -9.773  -5.879 -0.19 -0.00    +0.000 N 
DOCKED: ATOM      2  C   UNL     1      19.395  -8.347  -5.691 -0.15 -0.00    +0.000 C 
DOCKED: ATOM      3  C   UNL     1      19.978  -7.788  -4.449 -0.20 -0.00    +0.000 A 
DOCKED: ATOM      4  C   UNL     1      20.072  -6.397  -4.267 -0.18 -0.00    +0.000 A 
DOCKED: ATOM      5  C   UNL     1      20.624  -5.870  -3.099 -0.28 -0.00    +0.000 A 
DOCKED: ATOM      6  C   UNL     1      21.088  -6.720  -2.094 -0.41 -0.00    +0.000 A 
DOCKED: ATOM      7  C   UNL     1      21.004  -8.110  -2.252 -0.41 -0.00    +0.000 A 
DOCKED: ATOM      8  C   UNL     1      21.470  -8.964  -1.242 -0.42 -0.00    +0.000 A 
DOCKED: ATOM      9  C   UNL     1      21.385 -10.346  -1.398 -0.57 -0.00    +0.000 A 
DOCKED: ATOM     10  C   UNL     1      20.836 -10.893  -2.558 -0.34 -0.00    +0.000 A 
DOCKED: ATOM     11  C   UNL     1      20.362 -10.058  -3.586 -0.40 -0.00    +0.000 A 
DOCKED: ATOM     12  C   UNL     1      20.445  -8.656  -3.436 -0.33 -0.00    +0.000 A 
DOCKED: ATOM     13  O   UNL     1      18.957  -7.570  -6.584 -0.08 -0.00    +0.000 OA
DOCKED: ATOM     14  C   UNL     1      19.781 -10.638  -4.819 -0.41 -0.00    +0.000 C 
DOCKED: ATOM     15  O   UNL     1      19.686 -11.891  -4.936 -0.60 -0.00    +0.000 OA
DOCKED: ENDROOT
DOCKED: BRANCH   1  16
DOCKED: ATOM     16  C   UNL     1      18.831 -10.329  -7.149 -0.28 -0.00    +0.000 C 
DOCKED: BRANCH  16  17
DOCKED: ATOM     17  C   UNL     1      19.623  -9.786  -8.351 -0.20 -0.00    +0.000 C 
DOCKED: BRANCH  17  18
DOCKED: ATOM     18  C   UNL     1      21.040 -10.377  -8.491 -0.23 -0.00    +0.000 C 
DOCKED: BRANCH  18  19
DOCKED: ATOM     19  C   UNL     1      22.130  -9.637  -7.689 -0.22 -0.00    +0.000 C 
DOCKED: BRANCH  19  20
DOCKED: ATOM     20  C   UNL     1      23.476 -10.375  -7.610 -0.34 -0.00    +0.000 C 
DOCKED: BRANCH  20  22
DOCKED: ATOM     21  O   UNL     1      24.252 -12.558  -7.024 -1.06 +0.00    +0.000 OA
DOCKED: ATOM     22  C   UNL     1      23.359 -11.682  -6.878 -0.47 -0.00    +0.000 C 
DOCKED: ATOM     23  N   UNL     1      22.227 -11.948  -6.047 -0.51 -0.00    +0.000 N 
DOCKED: ATOM     24  H   UNL     1      21.527 -11.264  -5.942 -0.07 -0.00    +0.000 HD
DOCKED: BRANCH  23  25
DOCKED: ATOM     25  O   UNL     1      22.109 -13.134  -5.404 -0.74 -0.00    +0.000 OA
DOCKED: ATOM     26  H   UNL     1      21.174 -13.394  -5.372 -0.65 -0.00    +0.000 HD
DOCKED: ENDBRANCH  23  25
DOCKED: ENDBRANCH  20  22
DOCKED: ENDBRANCH  19  20
DOCKED: ENDBRANCH  18  19
DOCKED: ENDBRANCH  17  18
DOCKED: ENDBRANCH  16  17
DOCKED: ENDBRANCH   1  16
DOCKED: TORSDOF 7
DOCKED: TER
DOCKED: ENDMDL
________________________________________________________________________________


	BEGINNING GENETIC ALGORITHM DOCKING 12 of 100
Run: 12 Seed: 1935691073 1318216969 [ Run 12 of 100 GA/GALS ]
Beginning LAMARCKIAN GENETIC ALGORITHM (LGA), with a maximum of 2500000 energy evaluations.

Final-Value: -13.428


	FINAL GENETIC ALGORITHM DOCKED STATE
	_______________________________________________


Detailed state:  trans 16.010 -10.164 -0.693 quatxyzw 0.078056 0.792048 0.599113 -0.087347 center 0.154 0.111 -0.146 ntor 7 -51.4776 26.3850 -156.3420 40.0004 -44.3897 157.8195 43.4029
State:	 16.010 -10.164  -0.693   0.078  0.795  0.601 -169.978    -51.48   26.38 -156.34   40.00  -44.39  157.82   43.40

DOCKED: MODEL       12
DOCKED: USER    Run = 12
DOCKED: USER    DPF = ligand_dock.biased.dpf
DOCKED: USER  
DOCKED: USER    Estimated Free Energy of Binding    =   -8.80 kcal/mol  [=(1)+(2)+(3)-(4)]
DOCKED: USER    Estimated Inhibition Constant, Ki   =  354.66 nM (nanomolar)  [Temperature = 298.15 K]
DOCKED: USER    
DOCKED: USER    (1) Final Intermolecular Energy     =  -10.89 kcal/mol
DOCKED: USER        vdW + Hbond + desolv Energy     =  -10.89 kcal/mol
DOCKED: USER        Electrostatic Energy            =   +0.00 kcal/mol
DOCKED: USER    (2) Final Total Internal Energy     =   -2.54 kcal/mol
DOCKED: USER    (3) Torsional Free Energy           =   +2.09 kcal/mol
DOCKED: USER    (4) Unbound System's Energy  [=(2)] =   -2.54 kcal/mol
DOCKED: USER    
DOCKED: USER    
DOCKED: USER    NEWDPF move ligand.pdbqt
DOCKED: USER    NEWDPF about 0.154000 0.111000 -0.146000
DOCKED: USER    NEWDPF tran0 16.010014 -10.164171 -0.693184
DOCKED: USER    NEWDPF quaternion0 0.078056 0.792048 0.599113 -0.087347
DOCKED: USER    NEWDPF axisangle0 0.078356 0.795087 0.601412 -169.977956
DOCKED: USER    NEWDPF quat0 0.078356 0.795087 0.601412 -169.977956
DOCKED: USER    NEWDPF dihe0 -51.48 26.38 -156.34 40.00 -44.39 157.82 43.40 
DOCKED: USER  keepresnum = 1 
DOCKED: USER  
DOCKED: REMARK  Name = 
DOCKED: REMARK  7 active torsions:
DOCKED: REMARK  status: ('A' for Active; 'I' for Inactive)
DOCKED: REMARK    1  A    between atoms: C_2  and  C_5
DOCKED: REMARK    2  A    between atoms: N_3  and  O_4
DOCKED: REMARK    3  A    between atoms: C_5  and  C_6
DOCKED: REMARK    4  A    between atoms: C_6  and  C_7
DOCKED: REMARK    5  A    between atoms: C_7  and  C_8
DOCKED: REMARK    6  A    between atoms: C_8  and  C_9
DOCKED: REMARK    7  A    between atoms: C_9  and  N_10
DOCKED: REMARK                            x       y       z     vdW  Elec       q    Type
DOCKED: REMARK                         _______ _______ _______ _____ _____    ______ ____
DOCKED: USER                              x       y       z     vdW  Elec       q    Type
DOCKED: USER                           _______ _______ _______ _____ _____    ______ ____
DOCKED: ROOT
DOCKED: ATOM      1  N   UNL     1      16.326 -11.585  -1.050 -0.29 +0.00    +0.000 N 
DOCKED: ATOM      2  C   UNL     1      16.884 -12.077   0.183 -0.50 +0.00    +0.000 C 
DOCKED: ATOM      3  C   UNL     1      18.305 -11.820   0.511 -0.49 -0.00    +0.000 A 
DOCKED: ATOM      4  C   UNL     1      18.852 -12.275   1.724 -0.47 -0.00    +0.000 A 
DOCKED: ATOM      5  C   UNL     1      20.190 -12.031   2.035 -0.68 -0.00    +0.000 A 
DOCKED: ATOM      6  C   UNL     1      21.003 -11.331   1.144 -0.52 -0.00    +0.000 A 
DOCKED: ATOM      7  C   UNL     1      20.481 -10.868  -0.072 -0.58 -0.00    +0.000 A 
DOCKED: ATOM      8  C   UNL     1      21.299 -10.165  -0.969 -0.61 -0.00    +0.000 A 
DOCKED: ATOM      9  C   UNL     1      20.781  -9.706  -2.179 -0.50 -0.00    +0.000 A 
DOCKED: ATOM     10  C   UNL     1      19.446  -9.941  -2.508 -0.28 -0.00    +0.000 A 
DOCKED: ATOM     11  C   UNL     1      18.605 -10.643  -1.626 -0.32 -0.00    +0.000 A 
DOCKED: ATOM     12  C   UNL     1      19.122 -11.111  -0.398 -0.46 -0.00    +0.000 A 
DOCKED: ATOM     13  O   UNL     1      16.162 -12.731   0.986 -1.06 +0.00    +0.000 OA
DOCKED: ATOM     14  C   UNL     1      17.187 -10.890  -1.975 -0.11 -0.00    +0.000 C 
DOCKED: ATOM     15  O   UNL     1      16.737 -10.492  -3.085 -0.28 -0.00    +0.000 OA
DOCKED: ENDROOT
DOCKED: BRANCH   1  16
DOCKED: ATOM     16  C   UNL     1      14.893 -11.761  -1.336 -0.39 +0.00    +0.000 C 
DOCKED: BRANCH  16  17
DOCKED: ATOM     17  C   UNL     1      14.181 -10.408  -1.513 -0.29 -0.00    +0.000 C 
DOCKED: BRANCH  17  18
DOCKED: ATOM     18  C   UNL     1      12.796 -10.331  -0.842 -0.27 +0.00    +0.000 C 
DOCKED: BRANCH  18  19
DOCKED: ATOM     19  C   UNL     1      12.596 -11.303   0.339 -0.39 +0.00    +0.000 C 
DOCKED: BRANCH  19  20
DOCKED: ATOM     20  C   UNL     1      12.613 -10.637   1.724 -0.32 +0.00    +0.000 C 
DOCKED: BRANCH  20  22
DOCKED: ATOM     21  O   UNL     1      14.682  -9.635   2.379 -0.29 +0.00    +0.000 OA
DOCKED: ATOM     22  C   UNL     1      13.977 -10.679   2.352 -0.38 +0.00    +0.000 C 
DOCKED: ATOM     23  N   UNL     1      14.491 -11.901   2.887 -0.47 +0.00    +0.000 N 
DOCKED: ATOM     24  H   UNL     1      13.941 -12.717   2.857 -0.42 +0.00    +0.000 HD
DOCKED: BRANCH  23  25
DOCKED: ATOM     25  O   UNL     1      15.729 -11.946   3.433 -0.50 +0.00    +0.000 OA
DOCKED: ATOM     26  H   UNL     1      16.371 -11.565   2.813 -0.02 +0.00    +0.000 HD
DOCKED: ENDBRANCH  23  25
DOCKED: ENDBRANCH  20  22
DOCKED: ENDBRANCH  19  20
DOCKED: ENDBRANCH  18  19
DOCKED: ENDBRANCH  17  18
DOCKED: ENDBRANCH  16  17
DOCKED: ENDBRANCH   1  16
DOCKED: TORSDOF 7
DOCKED: TER
DOCKED: ENDMDL
________________________________________________________________________________


	BEGINNING GENETIC ALGORITHM DOCKING 13 of 100
Run: 13 Seed: 76727414 1270849194 [ Run 13 of 100 GA/GALS ]
Beginning LAMARCKIAN GENETIC ALGORITHM (LGA), with a maximum of 2500000 energy evaluations.

Final-Value: -14.323


	FINAL GENETIC ALGORITHM DOCKED STATE
	_______________________________________________


Detailed state:  trans 19.580 -9.768 0.938 quatxyzw 0.370555 0.000953 -0.192602 0.908621 center 0.154 0.111 -0.146 ntor 7 -7.8740 -152.6165 167.5206 68.0821 -157.8153 -120.2435 12.5876
State:	 19.580  -9.768   0.938   0.887  0.002 -0.461 49.369     -7.87 -152.62  167.52   68.08 -157.82 -120.24   12.59

DOCKED: MODEL       13
DOCKED: USER    Run = 13
DOCKED: USER    DPF = ligand_dock.biased.dpf
DOCKED: USER  
DOCKED: USER    Estimated Free Energy of Binding    =   -9.82 kcal/mol  [=(1)+(2)+(3)-(4)]
DOCKED: USER    Estimated Inhibition Constant, Ki   =   63.09 nM (nanomolar)  [Temperature = 298.15 K]
DOCKED: USER    
DOCKED: USER    (1) Final Intermolecular Energy     =  -11.91 kcal/mol
DOCKED: USER        vdW + Hbond + desolv Energy     =  -11.91 kcal/mol
DOCKED: USER        Electrostatic Energy            =   +0.00 kcal/mol
DOCKED: USER    (2) Final Total Internal Energy     =   -2.41 kcal/mol
DOCKED: USER    (3) Torsional Free Energy           =   +2.09 kcal/mol
DOCKED: USER    (4) Unbound System's Energy  [=(2)] =   -2.41 kcal/mol
DOCKED: USER    
DOCKED: USER    
DOCKED: USER    NEWDPF move ligand.pdbqt
DOCKED: USER    NEWDPF about 0.154000 0.111000 -0.146000
DOCKED: USER    NEWDPF tran0 19.580176 -9.767720 0.937520
DOCKED: USER    NEWDPF quaternion0 0.370555 0.000953 -0.192602 0.908621
DOCKED: USER    NEWDPF axisangle0 0.887300 0.002281 -0.461188 49.369014
DOCKED: USER    NEWDPF quat0 0.887300 0.002281 -0.461188 49.369014
DOCKED: USER    NEWDPF dihe0 -7.87 -152.62 167.52 68.08 -157.82 -120.24 12.59 
DOCKED: USER  keepresnum = 1 
DOCKED: USER  
DOCKED: REMARK  Name = 
DOCKED: REMARK  7 active torsions:
DOCKED: REMARK  status: ('A' for Active; 'I' for Inactive)
DOCKED: REMARK    1  A    between atoms: C_2  and  C_5
DOCKED: REMARK    2  A    between atoms: N_3  and  O_4
DOCKED: REMARK    3  A    between atoms: C_5  and  C_6
DOCKED: REMARK    4  A    between atoms: C_6  and  C_7
DOCKED: REMARK    5  A    between atoms: C_7  and  C_8
DOCKED: REMARK    6  A    between atoms: C_8  and  C_9
DOCKED: REMARK    7  A    between atoms: C_9  and  N_10
DOCKED: REMARK                            x       y       z     vdW  Elec       q    Type
DOCKED: REMARK                         _______ _______ _______ _____ _____    ______ ____
DOCKED: USER                              x       y       z     vdW  Elec       q    Type
DOCKED: USER                           _______ _______ _______ _____ _____    ______ ____
DOCKED: ROOT
DOCKED: ATOM      1  N   UNL     1      19.429 -11.234   0.669 -0.53 -0.00    +0.000 N 
DOCKED: ATOM      2  C   UNL     1      18.495 -11.234  -0.428 -0.48 -0.00    +0.000 C 
DOCKED: ATOM      3  C   UNL     1      17.043 -11.110  -0.167 -0.34 -0.00    +0.000 A 
DOCKED: ATOM      4  C   UNL     1      16.126 -11.084  -1.232 -0.27 -0.00    +0.000 A 
DOCKED: ATOM      5  C   UNL     1      14.757 -10.965  -0.987 -0.29 +0.00    +0.000 A 
DOCKED: ATOM      6  C   UNL     1      14.282 -10.870   0.321 -0.28 +0.00    +0.000 A 
DOCKED: ATOM      7  C   UNL     1      15.177 -10.895   1.400 -0.32 +0.00    +0.000 A 
DOCKED: ATOM      8  C   UNL     1      14.699 -10.801   2.715 -0.39 +0.00    +0.000 A 
DOCKED: ATOM      9  C   UNL     1      15.589 -10.827   3.788 -0.48 +0.00    +0.000 A 
DOCKED: ATOM     10  C   UNL     1      16.961 -10.947   3.564 -0.32 +0.00    +0.000 A 
DOCKED: ATOM     11  C   UNL     1      17.465 -11.042   2.254 -0.42 +0.00    +0.000 A 
DOCKED: ATOM     12  C   UNL     1      16.570 -11.016   1.161 -0.36 +0.00    +0.000 A 
DOCKED: ATOM     13  O   UNL     1      18.914 -11.342  -1.614 -0.47 -0.00    +0.000 OA
DOCKED: ATOM     14  C   UNL     1      18.921 -11.167   2.016 -0.62 -0.00    +0.000 C 
DOCKED: ATOM     15  O   UNL     1      19.713 -11.216   2.997 -0.91 -0.00    +0.000 OA
DOCKED: ENDROOT
DOCKED: BRANCH   1  16
DOCKED: ATOM     16  C   UNL     1      20.878 -11.266   0.406 -0.61 -0.00    +0.000 C 
DOCKED: BRANCH  16  17
DOCKED: ATOM     17  C   UNL     1      21.454  -9.849   0.245 -0.62 -0.00    +0.000 C 
DOCKED: BRANCH  17  18
DOCKED: ATOM     18  C   UNL     1      20.775  -9.012  -0.856 -0.48 -0.00    +0.000 C 
DOCKED: BRANCH  18  19
DOCKED: ATOM     19  C   UNL     1      21.396  -9.166  -2.260 -0.52 -0.00    +0.000 C 
DOCKED: BRANCH  19  20
DOCKED: ATOM     20  C   UNL     1      20.375  -9.362  -3.392 -0.41 -0.00    +0.000 C 
DOCKED: BRANCH  20  22
DOCKED: ATOM     21  O   UNL     1      21.672 -10.425  -5.094 -0.45 -0.00    +0.000 OA
DOCKED: ATOM     22  C   UNL     1      20.724 -10.529  -4.270 -0.48 -0.00    +0.000 C 
DOCKED: ATOM     23  N   UNL     1      19.969 -11.741  -4.199 -0.47 -0.00    +0.000 N 
DOCKED: ATOM     24  H   UNL     1      19.225 -11.816  -3.560 -0.03 -0.00    +0.000 HD
DOCKED: BRANCH  23  25
DOCKED: ATOM     25  O   UNL     1      20.269 -12.787  -5.006 -0.76 -0.00    +0.000 OA
DOCKED: ATOM     26  H   UNL     1      20.936 -12.513  -5.656 -0.58 -0.00    +0.000 HD
DOCKED: ENDBRANCH  23  25
DOCKED: ENDBRANCH  20  22
DOCKED: ENDBRANCH  19  20
DOCKED: ENDBRANCH  18  19
DOCKED: ENDBRANCH  17  18
DOCKED: ENDBRANCH  16  17
DOCKED: ENDBRANCH   1  16
DOCKED: TORSDOF 7
DOCKED: TER
DOCKED: ENDMDL
________________________________________________________________________________


	BEGINNING GENETIC ALGORITHM DOCKING 14 of 100
Run: 14 Seed: 1617427597 493606392 [ Run 14 of 100 GA/GALS ]
Beginning LAMARCKIAN GENETIC ALGORITHM (LGA), with a maximum of 2500000 energy evaluations.

Final-Value: -13.481


	FINAL GENETIC ALGORITHM DOCKED STATE
	_______________________________________________


Detailed state:  trans 17.232 -9.614 -0.286 quatxyzw 0.367456 0.681174 0.359540 0.521256 center 0.154 0.111 -0.146 ntor 7 16.0169 -146.6932 -167.4971 51.2099 -69.8844 168.7474 36.1462
State:	 17.232  -9.614  -0.286   0.431  0.798  0.421 117.167     16.02 -146.69 -167.50   51.21  -69.88  168.75   36.15

DOCKED: MODEL       14
DOCKED: USER    Run = 14
DOCKED: USER    DPF = ligand_dock.biased.dpf
DOCKED: USER  
DOCKED: USER    Estimated Free Energy of Binding    =   -8.83 kcal/mol  [=(1)+(2)+(3)-(4)]
DOCKED: USER    Estimated Inhibition Constant, Ki   =  334.76 nM (nanomolar)  [Temperature = 298.15 K]
DOCKED: USER    
DOCKED: USER    (1) Final Intermolecular Energy     =  -10.92 kcal/mol
DOCKED: USER        vdW + Hbond + desolv Energy     =  -10.92 kcal/mol
DOCKED: USER        Electrostatic Energy            =   +0.00 kcal/mol
DOCKED: USER    (2) Final Total Internal Energy     =   -2.56 kcal/mol
DOCKED: USER    (3) Torsional Free Energy           =   +2.09 kcal/mol
DOCKED: USER    (4) Unbound System's Energy  [=(2)] =   -2.56 kcal/mol
DOCKED: USER    
DOCKED: USER    
DOCKED: USER    NEWDPF move ligand.pdbqt
DOCKED: USER    NEWDPF about 0.154000 0.111000 -0.146000
DOCKED: USER    NEWDPF tran0 17.231784 -9.614388 -0.285865
DOCKED: USER    NEWDPF quaternion0 0.367456 0.681174 0.359540 0.521256
DOCKED: USER    NEWDPF axisangle0 0.430579 0.798189 0.421303 117.166893
DOCKED: USER    NEWDPF quat0 0.430579 0.798189 0.421303 117.166893
DOCKED: USER    NEWDPF dihe0 16.02 -146.69 -167.50 51.21 -69.88 168.75 36.15 
DOCKED: USER  keepresnum = 1 
DOCKED: USER  
DOCKED: REMARK  Name = 
DOCKED: REMARK  7 active torsions:
DOCKED: REMARK  status: ('A' for Active; 'I' for Inactive)
DOCKED: REMARK    1  A    between atoms: C_2  and  C_5
DOCKED: REMARK    2  A    between atoms: N_3  and  O_4
DOCKED: REMARK    3  A    between atoms: C_5  and  C_6
DOCKED: REMARK    4  A    between atoms: C_6  and  C_7
DOCKED: REMARK    5  A    between atoms: C_7  and  C_8
DOCKED: REMARK    6  A    between atoms: C_8  and  C_9
DOCKED: REMARK    7  A    between atoms: C_9  and  N_10
DOCKED: REMARK                            x       y       z     vdW  Elec       q    Type
DOCKED: REMARK                         _______ _______ _______ _____ _____    ______ ____
DOCKED: USER                              x       y       z     vdW  Elec       q    Type
DOCKED: USER                           _______ _______ _______ _____ _____    ______ ____
DOCKED: ROOT
DOCKED: ATOM      1  N   UNL     1      17.233 -11.044  -0.733 -0.33 -0.00    +0.000 N 
DOCKED: ATOM      2  C   UNL     1      18.592 -11.209  -1.181 -0.45 -0.00    +0.000 C 
DOCKED: ATOM      3  C   UNL     1      18.987 -10.761  -2.536 -0.35 -0.00    +0.000 A 
DOCKED: ATOM      4  C   UNL     1      20.317 -10.894  -2.972 -0.40 -0.00    +0.000 A 
DOCKED: ATOM      5  C   UNL     1      20.691 -10.470  -4.248 -0.42 -0.00    +0.000 A 
DOCKED: ATOM      6  C   UNL     1      19.747  -9.909  -5.108 -0.26 -0.00    +0.000 A 
DOCKED: ATOM      7  C   UNL     1      18.415  -9.767  -4.696 -0.23 -0.00    +0.000 A 
DOCKED: ATOM      8  C   UNL     1      17.465  -9.204  -5.561 -0.15 -0.00    +0.000 A 
DOCKED: ATOM      9  C   UNL     1      16.140  -9.064  -5.153 -0.14 -0.00    +0.000 A 
DOCKED: ATOM     10  C   UNL     1      15.746  -9.482  -3.881 -0.19 -0.00    +0.000 A 
DOCKED: ATOM     11  C   UNL     1      16.679 -10.050  -2.995 -0.21 -0.00    +0.000 A 
DOCKED: ATOM     12  C   UNL     1      18.025 -10.195  -3.401 -0.25 -0.00    +0.000 A 
DOCKED: ATOM     13  O   UNL     1      19.449 -11.735  -0.418 -0.57 -0.00    +0.000 OA
DOCKED: ATOM     14  C   UNL     1      16.261 -10.492  -1.644 -0.30 -0.00    +0.000 C 
DOCKED: ATOM     15  O   UNL     1      15.054 -10.383  -1.296 -0.28 -0.00    +0.000 OA
DOCKED: ENDROOT
DOCKED: BRANCH   1  16
DOCKED: ATOM     16  C   UNL     1      16.859 -11.405   0.645 -0.44 +0.00    +0.000 C 
DOCKED: BRANCH  16  17
DOCKED: ATOM     17  C   UNL     1      16.489 -10.163   1.473 -0.36 +0.00    +0.000 C 
DOCKED: BRANCH  17  18
DOCKED: ATOM     18  C   UNL     1      17.250 -10.044   2.808 -0.48 +0.00    +0.000 C 
DOCKED: BRANCH  18  19
DOCKED: ATOM     19  C   UNL     1      18.233 -11.197   3.095 -0.41 -0.00    +0.000 C 
DOCKED: BRANCH  19  20
DOCKED: ATOM     20  C   UNL     1      19.706 -10.770   3.200 -0.71 -0.00    +0.000 C 
DOCKED: BRANCH  20  22
DOCKED: ATOM     21  O   UNL     1      20.724 -12.384   1.761 -1.43 -0.00    +0.000 OA
DOCKED: ATOM     22  C   UNL     1      20.495 -11.165   1.985 -0.73 -0.00    +0.000 C 
DOCKED: ATOM     23  N   UNL     1      21.015 -10.168   1.102 -0.57 -0.00    +0.000 N 
DOCKED: ATOM     24  H   UNL     1      20.841  -9.217   1.284 -0.42 -0.00    +0.000 HD
DOCKED: BRANCH  23  25
DOCKED: ATOM     25  O   UNL     1      21.746 -10.521   0.018 -0.75 -0.00    +0.000 OA
DOCKED: ATOM     26  H   UNL     1      21.618 -11.466  -0.165 -0.08 -0.00    +0.000 HD
DOCKED: ENDBRANCH  23  25
DOCKED: ENDBRANCH  20  22
DOCKED: ENDBRANCH  19  20
DOCKED: ENDBRANCH  18  19
DOCKED: ENDBRANCH  17  18
DOCKED: ENDBRANCH  16  17
DOCKED: ENDBRANCH   1  16
DOCKED: TORSDOF 7
DOCKED: TER
DOCKED: ENDMDL
________________________________________________________________________________


	BEGINNING GENETIC ALGORITHM DOCKING 15 of 100
Run: 15 Seed: 1185479379 418583654 [ Run 15 of 100 GA/GALS ]
Beginning LAMARCKIAN GENETIC ALGORITHM (LGA), with a maximum of 2500000 energy evaluations.

Final-Value: -13.193


	FINAL GENETIC ALGORITHM DOCKED STATE
	_______________________________________________


Detailed state:  trans 20.199 -9.209 -1.324 quatxyzw -0.160567 0.358041 0.375753 -0.839544 center 0.154 0.111 -0.146 ntor 7 2.2679 180.0000 -68.7285 102.9212 -179.3557 128.1899 -127.5325
State:	 20.199  -9.209  -1.324  -0.296  0.659  0.692 -65.816      2.27  180.00  -68.73  102.92 -179.36  128.19 -127.53

DOCKED: MODEL       15
DOCKED: USER    Run = 15
DOCKED: USER    DPF = ligand_dock.biased.dpf
DOCKED: USER  
DOCKED: USER    Estimated Free Energy of Binding    =   -9.93 kcal/mol  [=(1)+(2)+(3)-(4)]
DOCKED: USER    Estimated Inhibition Constant, Ki   =   52.30 nM (nanomolar)  [Temperature = 298.15 K]
DOCKED: USER    
DOCKED: USER    (1) Final Intermolecular Energy     =  -12.02 kcal/mol
DOCKED: USER        vdW + Hbond + desolv Energy     =  -12.02 kcal/mol
DOCKED: USER        Electrostatic Energy            =   +0.00 kcal/mol
DOCKED: USER    (2) Final Total Internal Energy     =   -1.17 kcal/mol
DOCKED: USER    (3) Torsional Free Energy           =   +2.09 kcal/mol
DOCKED: USER    (4) Unbound System's Energy  [=(2)] =   -1.17 kcal/mol
DOCKED: USER    
DOCKED: USER    
DOCKED: USER    NEWDPF move ligand.pdbqt
DOCKED: USER    NEWDPF about 0.154000 0.111000 -0.146000
DOCKED: USER    NEWDPF tran0 20.198976 -9.209322 -1.323738
DOCKED: USER    NEWDPF quaternion0 -0.160567 0.358041 0.375753 -0.839544
DOCKED: USER    NEWDPF axisangle0 -0.295545 0.659022 0.691624 -65.815968
DOCKED: USER    NEWDPF quat0 -0.295545 0.659022 0.691624 -65.815968
DOCKED: USER    NEWDPF dihe0 2.27 180.00 -68.73 102.92 -179.36 128.19 -127.53 
DOCKED: USER  keepresnum = 1 
DOCKED: USER  
DOCKED: REMARK  Name = 
DOCKED: REMARK  7 active torsions:
DOCKED: REMARK  status: ('A' for Active; 'I' for Inactive)
DOCKED: REMARK    1  A    between atoms: C_2  and  C_5
DOCKED: REMARK    2  A    between atoms: N_3  and  O_4
DOCKED: REMARK    3  A    between atoms: C_5  and  C_6
DOCKED: REMARK    4  A    between atoms: C_6  and  C_7
DOCKED: REMARK    5  A    between atoms: C_7  and  C_8
DOCKED: REMARK    6  A    between atoms: C_8  and  C_9
DOCKED: REMARK    7  A    between atoms: C_9  and  N_10
DOCKED: REMARK                            x       y       z     vdW  Elec       q    Type
DOCKED: REMARK                         _______ _______ _______ _____ _____    ______ ____
DOCKED: USER                              x       y       z     vdW  Elec       q    Type
DOCKED: USER                           _______ _______ _______ _____ _____    ______ ____
DOCKED: ROOT
DOCKED: ATOM      1  N   UNL     1      19.895 -10.632  -1.681 -0.46 -0.00    +0.000 N 
DOCKED: ATOM      2  C   UNL     1      18.456 -10.645  -1.627 -0.35 -0.00    +0.000 C 
DOCKED: ATOM      3  C   UNL     1      17.763 -10.801  -0.327 -0.31 -0.00    +0.000 A 
DOCKED: ATOM      4  C   UNL     1      16.359 -10.790  -0.261 -0.30 -0.00    +0.000 A 
DOCKED: ATOM      5  C   UNL     1      15.705 -10.934   0.964 -0.32 +0.00    +0.000 A 
DOCKED: ATOM      6  C   UNL     1      16.440 -11.092   2.139 -0.40 +0.00    +0.000 A 
DOCKED: ATOM      7  C   UNL     1      17.841 -11.107   2.098 -0.44 -0.00    +0.000 A 
DOCKED: ATOM      8  C   UNL     1      18.579 -11.267   3.280 -0.38 -0.00    +0.000 A 
DOCKED: ATOM      9  C   UNL     1      19.973 -11.285   3.239 -0.66 -0.00    +0.000 A 
DOCKED: ATOM     10  C   UNL     1      20.645 -11.143   2.025 -0.62 -0.00    +0.000 A 
DOCKED: ATOM     11  C   UNL     1      19.927 -10.980   0.826 -0.59 -0.00    +0.000 A 
DOCKED: ATOM     12  C   UNL     1      18.515 -10.962   0.858 -0.45 -0.00    +0.000 A 
DOCKED: ATOM     13  O   UNL     1      17.782 -10.525  -2.688 -0.33 -0.00    +0.000 OA
DOCKED: ATOM     14  C   UNL     1      20.641 -10.828  -0.463 -0.62 -0.00    +0.000 C 
DOCKED: ATOM     15  O   UNL     1      21.901 -10.871  -0.489 -0.76 -0.00    +0.000 OA
DOCKED: ENDROOT
DOCKED: BRANCH   1  16
DOCKED: ATOM     16  C   UNL     1      20.585 -10.387  -2.959 -0.52 -0.00    +0.000 C 
DOCKED: BRANCH  16  17
DOCKED: ATOM     17  C   UNL     1      20.066 -11.318  -4.069 -0.48 -0.00    +0.000 C 
DOCKED: BRANCH  17  18
DOCKED: ATOM     18  C   UNL     1      20.931 -11.323  -5.344 -0.52 -0.00    +0.000 C 
DOCKED: BRANCH  18  19
DOCKED: ATOM     19  C   UNL     1      20.273 -10.663  -6.573 -0.32 -0.00    +0.000 C 
DOCKED: BRANCH  19  20
DOCKED: ATOM     20  C   UNL     1      21.222 -10.431  -7.759 -0.28 -0.00    +0.000 C 
DOCKED: BRANCH  20  22
DOCKED: ATOM     21  O   UNL     1      23.453  -9.818  -7.161 -0.31 -0.00    +0.000 OA
DOCKED: ATOM     22  C   UNL     1      22.647 -10.754  -7.412 -0.37 -0.00    +0.000 C 
DOCKED: ATOM     23  N   UNL     1      23.100 -12.109  -7.397 -0.49 -0.00    +0.000 N 
DOCKED: ATOM     24  H   UNL     1      22.470 -12.837  -7.601 -0.63 -0.00    +0.000 HD
DOCKED: BRANCH  23  25
DOCKED: ATOM     25  O   UNL     1      24.391 -12.400  -7.105 -1.07 +0.00    +0.000 OA
DOCKED: ATOM     26  H   UNL     1      24.868 -11.582  -6.895 -0.04 +0.00    +0.000 HD
DOCKED: ENDBRANCH  23  25
DOCKED: ENDBRANCH  20  22
DOCKED: ENDBRANCH  19  20
DOCKED: ENDBRANCH  18  19
DOCKED: ENDBRANCH  17  18
DOCKED: ENDBRANCH  16  17
DOCKED: ENDBRANCH   1  16
DOCKED: TORSDOF 7
DOCKED: TER
DOCKED: ENDMDL
________________________________________________________________________________


	BEGINNING GENETIC ALGORITHM DOCKING 16 of 100
Run: 16 Seed: 813753273 1795405201 [ Run 16 of 100 GA/GALS ]
Beginning LAMARCKIAN GENETIC ALGORITHM (LGA), with a maximum of 2500000 energy evaluations.

Final-Value: -13.821


	FINAL GENETIC ALGORITHM DOCKED STATE
	_______________________________________________


Detailed state:  trans 18.762 -9.857 -1.428 quatxyzw -0.074374 0.207047 0.120558 -0.968022 center 0.154 0.111 -0.146 ntor 7 20.6432 -128.3995 -138.1686 67.8114 176.4470 37.1837 1.0212
State:	 18.762  -9.857  -1.428  -0.296  0.825  0.481 -29.058     20.64 -128.40 -138.17   67.81  176.45   37.18    1.02

DOCKED: MODEL       16
DOCKED: USER    Run = 16
DOCKED: USER    DPF = ligand_dock.biased.dpf
DOCKED: USER  
DOCKED: USER    Estimated Free Energy of Binding    =   -8.78 kcal/mol  [=(1)+(2)+(3)-(4)]
DOCKED: USER    Estimated Inhibition Constant, Ki   =  366.21 nM (nanomolar)  [Temperature = 298.15 K]
DOCKED: USER    
DOCKED: USER    (1) Final Intermolecular Energy     =  -10.87 kcal/mol
DOCKED: USER        vdW + Hbond + desolv Energy     =  -10.87 kcal/mol
DOCKED: USER        Electrostatic Energy            =   +0.00 kcal/mol
DOCKED: USER    (2) Final Total Internal Energy     =   -2.95 kcal/mol
DOCKED: USER    (3) Torsional Free Energy           =   +2.09 kcal/mol
DOCKED: USER    (4) Unbound System's Energy  [=(2)] =   -2.95 kcal/mol
DOCKED: USER    
DOCKED: USER    
DOCKED: USER    NEWDPF move ligand.pdbqt
DOCKED: USER    NEWDPF about 0.154000 0.111000 -0.146000
DOCKED: USER    NEWDPF tran0 18.761885 -9.856523 -1.428149
DOCKED: USER    NEWDPF quaternion0 -0.074374 0.207047 0.120558 -0.968022
DOCKED: USER    NEWDPF axisangle0 -0.296466 0.825327 0.480565 -29.057654
DOCKED: USER    NEWDPF quat0 -0.296466 0.825327 0.480565 -29.057654
DOCKED: USER    NEWDPF dihe0 20.64 -128.40 -138.17 67.81 176.45 37.18 1.02 
DOCKED: USER  keepresnum = 1 
DOCKED: USER  
DOCKED: REMARK  Name = 
DOCKED: REMARK  7 active torsions:
DOCKED: REMARK  status: ('A' for Active; 'I' for Inactive)
DOCKED: REMARK    1  A    between atoms: C_2  and  C_5
DOCKED: REMARK    2  A    between atoms: N_3  and  O_4
DOCKED: REMARK    3  A    between atoms: C_5  and  C_6
DOCKED: REMARK    4  A    between atoms: C_6  and  C_7
DOCKED: REMARK    5  A    between atoms: C_7  and  C_8
DOCKED: REMARK    6  A    between atoms: C_8  and  C_9
DOCKED: REMARK    7  A    between atoms: C_9  and  N_10
DOCKED: REMARK                            x       y       z     vdW  Elec       q    Type
DOCKED: REMARK                         _______ _______ _______ _____ _____    ______ ____
DOCKED: USER                              x       y       z     vdW  Elec       q    Type
DOCKED: USER                           _______ _______ _______ _____ _____    ______ ____
DOCKED: ROOT
DOCKED: ATOM      1  N   UNL     1      17.963 -10.898  -2.150 -0.27 -0.00    +0.000 N 
DOCKED: ATOM      2  C   UNL     1      16.800 -10.148  -2.550 -0.25 -0.00    +0.000 C 
DOCKED: ATOM      3  C   UNL     1      15.692  -9.930  -1.592 -0.23 -0.00    +0.000 A 
DOCKED: ATOM      4  C   UNL     1      14.564  -9.178  -1.965 -0.20 -0.00    +0.000 A 
DOCKED: ATOM      5  C   UNL     1      13.520  -8.970  -1.062 -0.16 -0.00    +0.000 A 
DOCKED: ATOM      6  C   UNL     1      13.583  -9.507   0.223 -0.17 +0.00    +0.000 A 
DOCKED: ATOM      7  C   UNL     1      14.697 -10.261   0.618 -0.24 +0.00    +0.000 A 
DOCKED: ATOM      8  C   UNL     1      14.760 -10.803   1.910 -0.34 +0.00    +0.000 A 
DOCKED: ATOM      9  C   UNL     1      15.867 -11.555   2.302 -0.42 +0.00    +0.000 A 
DOCKED: ATOM     10  C   UNL     1      16.920 -11.775   1.414 -0.40 +0.00    +0.000 A 
DOCKED: ATOM     11  C   UNL     1      16.881 -11.242   0.113 -0.35 +0.00    +0.000 A 
DOCKED: ATOM     12  C   UNL     1      15.763 -10.479  -0.292 -0.27 +0.00    +0.000 A 
DOCKED: ATOM     13  O   UNL     1      16.723  -9.676  -3.718 -0.25 -0.00    +0.000 OA
DOCKED: ATOM     14  C   UNL     1      18.000 -11.474  -0.829 -0.42 -0.00    +0.000 C 
DOCKED: ATOM     15  O   UNL     1      18.984 -12.178  -0.470 -0.54 -0.00    +0.000 OA
DOCKED: ENDROOT
DOCKED: BRANCH   1  16
DOCKED: ATOM     16  C   UNL     1      19.104 -11.039  -3.070 -0.34 -0.00    +0.000 C 
DOCKED: BRANCH  16  17
DOCKED: ATOM     17  C   UNL     1      19.953  -9.757  -3.118 -0.42 -0.00    +0.000 C 
DOCKED: BRANCH  17  18
DOCKED: ATOM     18  C   UNL     1      21.243  -9.821  -2.277 -0.57 -0.00    +0.000 C 
DOCKED: BRANCH  18  19
DOCKED: ATOM     19  C   UNL     1      21.283  -8.849  -1.081 -0.55 -0.00    +0.000 C 
DOCKED: BRANCH  19  20
DOCKED: ATOM     20  C   UNL     1      21.765  -9.477   0.237 -0.35 -0.00    +0.000 C 
DOCKED: BRANCH  20  22
DOCKED: ATOM     21  O   UNL     1      19.548  -9.860   1.041 -0.53 -0.00    +0.000 OA
DOCKED: ATOM     22  C   UNL     1      20.706 -10.328   0.876 -0.63 -0.00    +0.000 C 
DOCKED: ATOM     23  N   UNL     1      21.013 -11.649   1.328 -0.70 -0.00    +0.000 N 
DOCKED: ATOM     24  H   UNL     1      21.921 -12.008   1.205 -0.54 -0.00    +0.000 HD
DOCKED: BRANCH  23  25
DOCKED: ATOM     25  O   UNL     1      20.065 -12.410   1.925 -1.70 -0.00    +0.000 OA
DOCKED: ATOM     26  H   UNL     1      19.185 -12.076   1.688 -0.02 -0.00    +0.000 HD
DOCKED: ENDBRANCH  23  25
DOCKED: ENDBRANCH  20  22
DOCKED: ENDBRANCH  19  20
DOCKED: ENDBRANCH  18  19
DOCKED: ENDBRANCH  17  18
DOCKED: ENDBRANCH  16  17
DOCKED: ENDBRANCH   1  16
DOCKED: TORSDOF 7
DOCKED: TER
DOCKED: ENDMDL
________________________________________________________________________________


	BEGINNING GENETIC ALGORITHM DOCKING 17 of 100
Run: 17 Seed: 778556822 2104132817 [ Run 17 of 100 GA/GALS ]
Beginning LAMARCKIAN GENETIC ALGORITHM (LGA), with a maximum of 2500000 energy evaluations.

Final-Value: -12.497


	FINAL GENETIC ALGORITHM DOCKED STATE
	_______________________________________________


Detailed state:  trans 21.654 -9.718 -4.263 quatxyzw 0.454249 0.410248 0.737833 0.284528 center 0.154 0.111 -0.146 ntor 7 -177.7906 -75.9453 -180.0000 -27.7356 92.8784 -5.5698 0.7867
State:	 21.654  -9.718  -4.263   0.474  0.428  0.770 146.939   -177.79  -75.95 -180.00  -27.74   92.88   -5.57    0.79

DOCKED: MODEL       17
DOCKED: USER    Run = 17
DOCKED: USER    DPF = ligand_dock.biased.dpf
DOCKED: USER  
DOCKED: USER    Estimated Free Energy of Binding    =   -9.50 kcal/mol  [=(1)+(2)+(3)-(4)]
DOCKED: USER    Estimated Inhibition Constant, Ki   =  109.65 nM (nanomolar)  [Temperature = 298.15 K]
DOCKED: USER    
DOCKED: USER    (1) Final Intermolecular Energy     =  -11.58 kcal/mol
DOCKED: USER        vdW + Hbond + desolv Energy     =  -11.58 kcal/mol
DOCKED: USER        Electrostatic Energy            =   +0.00 kcal/mol
DOCKED: USER    (2) Final Total Internal Energy     =   -0.91 kcal/mol
DOCKED: USER    (3) Torsional Free Energy           =   +2.09 kcal/mol
DOCKED: USER    (4) Unbound System's Energy  [=(2)] =   -0.91 kcal/mol
DOCKED: USER    
DOCKED: USER    
DOCKED: USER    NEWDPF move ligand.pdbqt
DOCKED: USER    NEWDPF about 0.154000 0.111000 -0.146000
DOCKED: USER    NEWDPF tran0 21.653979 -9.717969 -4.263422
DOCKED: USER    NEWDPF quaternion0 0.454249 0.410248 0.737833 0.284528
DOCKED: USER    NEWDPF axisangle0 0.473834 0.427936 0.769645 146.938714
DOCKED: USER    NEWDPF quat0 0.473834 0.427936 0.769645 146.938714
DOCKED: USER    NEWDPF dihe0 -177.79 -75.95 -180.00 -27.74 92.88 -5.57 0.79 
DOCKED: USER  keepresnum = 1 
DOCKED: USER  
DOCKED: REMARK  Name = 
DOCKED: REMARK  7 active torsions:
DOCKED: REMARK  status: ('A' for Active; 'I' for Inactive)
DOCKED: REMARK    1  A    between atoms: C_2  and  C_5
DOCKED: REMARK    2  A    between atoms: N_3  and  O_4
DOCKED: REMARK    3  A    between atoms: C_5  and  C_6
DOCKED: REMARK    4  A    between atoms: C_6  and  C_7
DOCKED: REMARK    5  A    between atoms: C_7  and  C_8
DOCKED: REMARK    6  A    between atoms: C_8  and  C_9
DOCKED: REMARK    7  A    between atoms: C_9  and  N_10
DOCKED: REMARK                            x       y       z     vdW  Elec       q    Type
DOCKED: REMARK                         _______ _______ _______ _____ _____    ______ ____
DOCKED: USER                              x       y       z     vdW  Elec       q    Type
DOCKED: USER                           _______ _______ _______ _____ _____    ______ ____
DOCKED: ROOT
DOCKED: ATOM      1  N   UNL     1      20.838 -10.329  -5.361 -0.33 -0.00    +0.000 N 
DOCKED: ATOM      2  C   UNL     1      21.695 -11.401  -5.799 -0.50 -0.00    +0.000 C 
DOCKED: ATOM      3  C   UNL     1      22.802 -11.127  -6.744 -0.38 -0.00    +0.000 A 
DOCKED: ATOM      4  C   UNL     1      23.659 -12.162  -7.158 -0.43 -0.00    +0.000 A 
DOCKED: ATOM      5  C   UNL     1      24.705 -11.905  -8.047 -0.41 -0.00    +0.000 A 
DOCKED: ATOM      6  C   UNL     1      24.910 -10.615  -8.537 -0.29 -0.00    +0.000 A 
DOCKED: ATOM      7  C   UNL     1      24.068  -9.567  -8.139 -0.20 -0.00    +0.000 A 
DOCKED: ATOM      8  C   UNL     1      24.274  -8.271  -8.633 -0.10 -0.00    +0.000 A 
DOCKED: ATOM      9  C   UNL     1      23.435  -7.229  -8.240 -0.07 -0.00    +0.000 A 
DOCKED: ATOM     10  C   UNL     1      22.384  -7.466  -7.353 -0.10 -0.00    +0.000 A 
DOCKED: ATOM     11  C   UNL     1      22.157  -8.757  -6.843 -0.18 -0.00    +0.000 A 
DOCKED: ATOM     12  C   UNL     1      23.003  -9.818  -7.237 -0.25 -0.00    +0.000 A 
DOCKED: ATOM     13  O   UNL     1      21.504 -12.576  -5.378 -0.76 -0.00    +0.000 OA
DOCKED: ATOM     14  C   UNL     1      21.043  -9.008  -5.900 -0.24 -0.00    +0.000 C 
DOCKED: ATOM     15  O   UNL     1      20.276  -8.062  -5.573 -0.15 -0.00    +0.000 OA
DOCKED: ENDROOT
DOCKED: BRANCH   1  16
DOCKED: ATOM     16  C   UNL     1      19.795 -10.582  -4.353 -0.42 -0.00    +0.000 C 
DOCKED: BRANCH  16  17
DOCKED: ATOM     17  C   UNL     1      20.390 -10.686  -2.938 -0.49 -0.00    +0.000 C 
DOCKED: BRANCH  17  18
DOCKED: ATOM     18  C   UNL     1      21.167  -9.434  -2.487 -0.53 -0.00    +0.000 C 
DOCKED: BRANCH  18  19
DOCKED: ATOM     19  C   UNL     1      21.390  -9.326  -0.964 -0.63 -0.00    +0.000 C 
DOCKED: BRANCH  19  20
DOCKED: ATOM     20  C   UNL     1      21.694 -10.661  -0.267 -0.60 -0.00    +0.000 C 
DOCKED: BRANCH  20  22
DOCKED: ATOM     21  O   UNL     1      19.652 -10.260   0.909 -0.63 -0.00    +0.000 OA
DOCKED: ATOM     22  C   UNL     1      20.648 -11.016   0.751 -0.71 -0.00    +0.000 C 
DOCKED: ATOM     23  N   UNL     1      20.792 -12.185   1.561 -0.68 -0.00    +0.000 N 
DOCKED: ATOM     24  H   UNL     1      21.574 -12.770   1.440 -0.53 -0.00    +0.000 HD
DOCKED: BRANCH  23  25
DOCKED: ATOM     25  O   UNL     1      19.861 -12.495   2.495 -1.44 -0.00    +0.000 OA
DOCKED: ATOM     26  H   UNL     1      20.134 -13.294   2.972 -0.52 -0.00    +0.000 HD
DOCKED: ENDBRANCH  23  25
DOCKED: ENDBRANCH  20  22
DOCKED: ENDBRANCH  19  20
DOCKED: ENDBRANCH  18  19
DOCKED: ENDBRANCH  17  18
DOCKED: ENDBRANCH  16  17
DOCKED: ENDBRANCH   1  16
DOCKED: TORSDOF 7
DOCKED: TER
DOCKED: ENDMDL
________________________________________________________________________________


	BEGINNING GENETIC ALGORITHM DOCKING 18 of 100
Run: 18 Seed: 1332166673 433490255 [ Run 18 of 100 GA/GALS ]
Beginning LAMARCKIAN GENETIC ALGORITHM (LGA), with a maximum of 2500000 energy evaluations.

Final-Value: -13.683


	FINAL GENETIC ALGORITHM DOCKED STATE
	_______________________________________________


Detailed state:  trans 16.009 -10.270 -0.358 quatxyzw 0.110758 0.803315 0.583758 0.040543 center 0.154 0.111 -0.146 ntor 7 -3.2154 64.6042 179.6503 40.0538 -16.2832 179.5147 28.0514
State:	 16.009 -10.270  -0.358   0.111  0.804  0.584 175.353     -3.22   64.60  179.65   40.05  -16.28  179.51   28.05

DOCKED: MODEL       18
DOCKED: USER    Run = 18
DOCKED: USER    DPF = ligand_dock.biased.dpf
DOCKED: USER  
DOCKED: USER    Estimated Free Energy of Binding    =   -8.70 kcal/mol  [=(1)+(2)+(3)-(4)]
DOCKED: USER    Estimated Inhibition Constant, Ki   =  419.08 nM (nanomolar)  [Temperature = 298.15 K]
DOCKED: USER    
DOCKED: USER    (1) Final Intermolecular Energy     =  -10.79 kcal/mol
DOCKED: USER        vdW + Hbond + desolv Energy     =  -10.79 kcal/mol
DOCKED: USER        Electrostatic Energy            =   +0.00 kcal/mol
DOCKED: USER    (2) Final Total Internal Energy     =   -2.89 kcal/mol
DOCKED: USER    (3) Torsional Free Energy           =   +2.09 kcal/mol
DOCKED: USER    (4) Unbound System's Energy  [=(2)] =   -2.89 kcal/mol
DOCKED: USER    
DOCKED: USER    
DOCKED: USER    NEWDPF move ligand.pdbqt
DOCKED: USER    NEWDPF about 0.154000 0.111000 -0.146000
DOCKED: USER    NEWDPF tran0 16.008572 -10.270413 -0.358498
DOCKED: USER    NEWDPF quaternion0 0.110758 0.803315 0.583758 0.040543
DOCKED: USER    NEWDPF axisangle0 0.110849 0.803976 0.584238 175.352839
DOCKED: USER    NEWDPF quat0 0.110849 0.803976 0.584238 175.352839
DOCKED: USER    NEWDPF dihe0 -3.22 64.60 179.65 40.05 -16.28 179.51 28.05 
DOCKED: USER  keepresnum = 1 
DOCKED: USER  
DOCKED: REMARK  Name = 
DOCKED: REMARK  7 active torsions:
DOCKED: REMARK  status: ('A' for Active; 'I' for Inactive)
DOCKED: REMARK    1  A    between atoms: C_2  and  C_5
DOCKED: REMARK    2  A    between atoms: N_3  and  O_4
DOCKED: REMARK    3  A    between atoms: C_5  and  C_6
DOCKED: REMARK    4  A    between atoms: C_6  and  C_7
DOCKED: REMARK    5  A    between atoms: C_7  and  C_8
DOCKED: REMARK    6  A    between atoms: C_8  and  C_9
DOCKED: REMARK    7  A    between atoms: C_9  and  N_10
DOCKED: REMARK                            x       y       z     vdW  Elec       q    Type
DOCKED: REMARK                         _______ _______ _______ _____ _____    ______ ____
DOCKED: USER                              x       y       z     vdW  Elec       q    Type
DOCKED: USER                           _______ _______ _______ _____ _____    ______ ____
DOCKED: ROOT
DOCKED: ATOM      1  N   UNL     1      16.371 -11.661  -0.782 -0.33 +0.00    +0.000 N 
DOCKED: ATOM      2  C   UNL     1      17.258 -12.067   0.277 -0.51 +0.00    +0.000 C 
DOCKED: ATOM      3  C   UNL     1      18.683 -11.663   0.247 -0.49 -0.00    +0.000 A 
DOCKED: ATOM      4  C   UNL     1      19.551 -12.033   1.290 -0.62 -0.00    +0.000 A 
DOCKED: ATOM      5  C   UNL     1      20.894 -11.651   1.264 -0.57 -0.00    +0.000 A 
DOCKED: ATOM      6  C   UNL     1      21.390 -10.897   0.201 -0.52 -0.00    +0.000 A 
DOCKED: ATOM      7  C   UNL     1      20.544 -10.516  -0.850 -0.56 -0.00    +0.000 A 
DOCKED: ATOM      8  C   UNL     1      21.044  -9.759  -1.919 -0.54 -0.00    +0.000 A 
DOCKED: ATOM      9  C   UNL     1      20.203  -9.383  -2.966 -0.37 -0.00    +0.000 A 
DOCKED: ATOM     10  C   UNL     1      18.859  -9.755  -2.959 -0.16 -0.00    +0.000 A 
DOCKED: ATOM     11  C   UNL     1      18.333 -10.515  -1.898 -0.27 -0.00    +0.000 A 
DOCKED: ATOM     12  C   UNL     1      19.178 -10.900  -0.833 -0.44 -0.00    +0.000 A 
DOCKED: ATOM     13  O   UNL     1      16.823 -12.768   1.232 -1.02 +0.00    +0.000 OA
DOCKED: ATOM     14  C   UNL     1      16.905 -10.909  -1.890 -0.11 -0.00    +0.000 C 
DOCKED: ATOM     15  O   UNL     1      16.161 -10.584  -2.855 -0.27 -0.00    +0.000 OA
DOCKED: ENDROOT
DOCKED: BRANCH   1  16
DOCKED: ATOM     16  C   UNL     1      14.936 -11.984  -0.709 -0.45 +0.00    +0.000 C 
DOCKED: BRANCH  16  17
DOCKED: ATOM     17  C   UNL     1      14.098 -10.752  -0.327 -0.31 +0.00    +0.000 C 
DOCKED: BRANCH  17  18
DOCKED: ATOM     18  C   UNL     1      13.356 -10.885   1.017 -0.35 +0.00    +0.000 C 
DOCKED: BRANCH  18  19
DOCKED: ATOM     19  C   UNL     1      14.248 -11.284   2.210 -0.45 +0.00    +0.000 C 
DOCKED: BRANCH  19  20
DOCKED: ATOM     20  C   UNL     1      14.542 -10.144   3.198 -0.40 +0.00    +0.000 C 
DOCKED: BRANCH  20  22
DOCKED: ATOM     21  O   UNL     1      16.389  -8.642   3.409 -0.45 +0.00    +0.000 OA
DOCKED: ATOM     22  C   UNL     1      16.010  -9.837   3.283 -0.46 +0.00    +0.000 C 
DOCKED: ATOM     23  N   UNL     1      16.976 -10.887   3.189 -0.48 +0.00    +0.000 N 
DOCKED: ATOM     24  H   UNL     1      16.677 -11.818   3.083 -0.02 +0.00    +0.000 HD
DOCKED: BRANCH  23  25
DOCKED: ATOM     25  O   UNL     1      18.301 -10.609   3.243 -0.59 -0.00    +0.000 OA
DOCKED: ATOM     26  H   UNL     1      18.429  -9.648   3.298 -0.06 -0.00    +0.000 HD
DOCKED: ENDBRANCH  23  25
DOCKED: ENDBRANCH  20  22
DOCKED: ENDBRANCH  19  20
DOCKED: ENDBRANCH  18  19
DOCKED: ENDBRANCH  17  18
DOCKED: ENDBRANCH  16  17
DOCKED: ENDBRANCH   1  16
DOCKED: TORSDOF 7
DOCKED: TER
DOCKED: ENDMDL
________________________________________________________________________________


	BEGINNING GENETIC ALGORITHM DOCKING 19 of 100
Run: 19 Seed: 771124672 1949785829 [ Run 19 of 100 GA/GALS ]
Beginning LAMARCKIAN GENETIC ALGORITHM (LGA), with a maximum of 2500000 energy evaluations.

Final-Value: -12.639


	FINAL GENETIC ALGORITHM DOCKED STATE
	_______________________________________________


Detailed state:  trans 19.816 -11.687 -2.696 quatxyzw 0.755018 0.171400 -0.493514 -0.396250 center 0.154 0.111 -0.146 ntor 7 -147.3136 -175.9336 -161.2575 -9.9419 -171.9729 132.9426 14.0022
State:	 19.816 -11.687  -2.696   0.822  0.187 -0.538 -133.312   -147.31 -175.93 -161.26   -9.94 -171.97  132.94   14.00

DOCKED: MODEL       19
DOCKED: USER    Run = 19
DOCKED: USER    DPF = ligand_dock.biased.dpf
DOCKED: USER  
DOCKED: USER    Estimated Free Energy of Binding    =   -8.14 kcal/mol  [=(1)+(2)+(3)-(4)]
DOCKED: USER    Estimated Inhibition Constant, Ki   =    1.08 uM (micromolar)  [Temperature = 298.15 K]
DOCKED: USER    
DOCKED: USER    (1) Final Intermolecular Energy     =  -10.23 kcal/mol
DOCKED: USER        vdW + Hbond + desolv Energy     =  -10.23 kcal/mol
DOCKED: USER        Electrostatic Energy            =   +0.00 kcal/mol
DOCKED: USER    (2) Final Total Internal Energy     =   -2.41 kcal/mol
DOCKED: USER    (3) Torsional Free Energy           =   +2.09 kcal/mol
DOCKED: USER    (4) Unbound System's Energy  [=(2)] =   -2.41 kcal/mol
DOCKED: USER    
DOCKED: USER    
DOCKED: USER    NEWDPF move ligand.pdbqt
DOCKED: USER    NEWDPF about 0.154000 0.111000 -0.146000
DOCKED: USER    NEWDPF tran0 19.816040 -11.686539 -2.695840
DOCKED: USER    NEWDPF quaternion0 0.755018 0.171400 -0.493514 -0.396250
DOCKED: USER    NEWDPF axisangle0 0.822332 0.186681 -0.537514 -133.312073
DOCKED: USER    NEWDPF quat0 0.822332 0.186681 -0.537514 -133.312073
DOCKED: USER    NEWDPF dihe0 -147.31 -175.93 -161.26 -9.94 -171.97 132.94 14.00 
DOCKED: USER  keepresnum = 1 
DOCKED: USER  
DOCKED: REMARK  Name = 
DOCKED: REMARK  7 active torsions:
DOCKED: REMARK  status: ('A' for Active; 'I' for Inactive)
DOCKED: REMARK    1  A    between atoms: C_2  and  C_5
DOCKED: REMARK    2  A    between atoms: N_3  and  O_4
DOCKED: REMARK    3  A    between atoms: C_5  and  C_6
DOCKED: REMARK    4  A    between atoms: C_6  and  C_7
DOCKED: REMARK    5  A    between atoms: C_7  and  C_8
DOCKED: REMARK    6  A    between atoms: C_8  and  C_9
DOCKED: REMARK    7  A    between atoms: C_9  and  N_10
DOCKED: REMARK                            x       y       z     vdW  Elec       q    Type
DOCKED: REMARK                         _______ _______ _______ _____ _____    ______ ____
DOCKED: USER                              x       y       z     vdW  Elec       q    Type
DOCKED: USER                           _______ _______ _______ _____ _____    ______ ____
DOCKED: ROOT
DOCKED: ATOM      1  N   UNL     1      19.775 -10.262  -2.232 -0.41 -0.00    +0.000 N 
DOCKED: ATOM      2  C   UNL     1      20.547 -10.329  -1.018 -0.62 -0.00    +0.000 C 
DOCKED: ATOM      3  C   UNL     1      19.913 -10.781   0.242 -0.55 -0.00    +0.000 A 
DOCKED: ATOM      4  C   UNL     1      20.665 -10.874   1.426 -0.60 -0.00    +0.000 A 
DOCKED: ATOM      5  C   UNL     1      20.069 -11.302   2.614 -0.67 -0.00    +0.000 A 
DOCKED: ATOM      6  C   UNL     1      18.717 -11.643   2.639 -0.35 -0.00    +0.000 A 
DOCKED: ATOM      7  C   UNL     1      17.946 -11.559   1.471 -0.46 -0.00    +0.000 A 
DOCKED: ATOM      8  C   UNL     1      16.587 -11.901   1.497 -0.39 +0.00    +0.000 A 
DOCKED: ATOM      9  C   UNL     1      15.819 -11.815   0.336 -0.40 +0.00    +0.000 A 
DOCKED: ATOM     10  C   UNL     1      16.397 -11.388  -0.861 -0.30 +0.00    +0.000 A 
DOCKED: ATOM     11  C   UNL     1      17.758 -11.040  -0.913 -0.34 -0.00    +0.000 A 
DOCKED: ATOM     12  C   UNL     1      18.543 -11.124   0.259 -0.44 -0.00    +0.000 A 
DOCKED: ATOM     13  O   UNL     1      21.766 -10.001  -1.026 -0.72 -0.00    +0.000 OA
DOCKED: ATOM     14  C   UNL     1      18.371 -10.589  -2.183 -0.33 -0.00    +0.000 C 
DOCKED: ATOM     15  O   UNL     1      17.660 -10.490  -3.221 -0.30 -0.00    +0.000 OA
DOCKED: ENDROOT
DOCKED: BRANCH   1  16
DOCKED: ATOM     16  C   UNL     1      20.424  -9.901  -3.503 -0.45 -0.00    +0.000 C 
DOCKED: BRANCH  16  17
DOCKED: ATOM     17  C   UNL     1      20.952 -11.143  -4.241 -0.49 -0.00    +0.000 C 
DOCKED: BRANCH  17  18
DOCKED: ATOM     18  C   UNL     1      21.980 -10.831  -5.346 -0.45 -0.00    +0.000 C 
DOCKED: BRANCH  18  19
DOCKED: ATOM     19  C   UNL     1      21.423 -10.896  -6.783 -0.35 -0.00    +0.000 C 
DOCKED: BRANCH  19  20
DOCKED: ATOM     20  C   UNL     1      20.211  -9.986  -7.041 -0.25 -0.00    +0.000 C 
DOCKED: BRANCH  20  22
DOCKED: ATOM     21  O   UNL     1      18.369 -11.135  -8.039 -0.33 -0.00    +0.000 OA
DOCKED: ATOM     22  C   UNL     1      18.915 -10.741  -6.973 -0.33 -0.00    +0.000 C 
DOCKED: ATOM     23  N   UNL     1      18.282 -10.983  -5.715 -0.33 -0.00    +0.000 N 
DOCKED: ATOM     24  H   UNL     1      18.706 -10.667  -4.886 -0.01 -0.00    +0.000 HD
DOCKED: BRANCH  23  25
DOCKED: ATOM     25  O   UNL     1      17.101 -11.644  -5.654 -0.35 -0.00    +0.000 OA
DOCKED: ATOM     26  H   UNL     1      16.576 -11.303  -4.913 -0.02 -0.00    +0.000 HD
DOCKED: ENDBRANCH  23  25
DOCKED: ENDBRANCH  20  22
DOCKED: ENDBRANCH  19  20
DOCKED: ENDBRANCH  18  19
DOCKED: ENDBRANCH  17  18
DOCKED: ENDBRANCH  16  17
DOCKED: ENDBRANCH   1  16
DOCKED: TORSDOF 7
DOCKED: TER
DOCKED: ENDMDL
________________________________________________________________________________


	BEGINNING GENETIC ALGORITHM DOCKING 20 of 100
Run: 20 Seed: 191495226 263931506 [ Run 20 of 100 GA/GALS ]
Beginning LAMARCKIAN GENETIC ALGORITHM (LGA), with a maximum of 2500000 energy evaluations.

Final-Value: -13.486


	FINAL GENETIC ALGORITHM DOCKED STATE
	_______________________________________________


Detailed state:  trans 16.889 -11.866 -2.446 quatxyzw -0.456484 0.388372 -0.800272 0.018811 center 0.154 0.111 -0.146 ntor 7 -1.8680 177.4641 123.9476 64.6591 -140.6817 46.1716 14.0927
State:	 16.889 -11.866  -2.446  -0.457  0.388 -0.800 177.844     -1.87  177.46  123.95   64.66 -140.68   46.17   14.09

DOCKED: MODEL       20
DOCKED: USER    Run = 20
DOCKED: USER    DPF = ligand_dock.biased.dpf
DOCKED: USER  
DOCKED: USER    Estimated Free Energy of Binding    =   -8.98 kcal/mol  [=(1)+(2)+(3)-(4)]
DOCKED: USER    Estimated Inhibition Constant, Ki   =  262.10 nM (nanomolar)  [Temperature = 298.15 K]
DOCKED: USER    
DOCKED: USER    (1) Final Intermolecular Energy     =  -11.07 kcal/mol
DOCKED: USER        vdW + Hbond + desolv Energy     =  -11.07 kcal/mol
DOCKED: USER        Electrostatic Energy            =   +0.00 kcal/mol
DOCKED: USER    (2) Final Total Internal Energy     =   -2.42 kcal/mol
DOCKED: USER    (3) Torsional Free Energy           =   +2.09 kcal/mol
DOCKED: USER    (4) Unbound System's Energy  [=(2)] =   -2.42 kcal/mol
DOCKED: USER    
DOCKED: USER    
DOCKED: USER    NEWDPF move ligand.pdbqt
DOCKED: USER    NEWDPF about 0.154000 0.111000 -0.146000
DOCKED: USER    NEWDPF tran0 16.888580 -11.866071 -2.445517
DOCKED: USER    NEWDPF quaternion0 -0.456484 0.388372 -0.800272 0.018811
DOCKED: USER    NEWDPF axisangle0 -0.456565 0.388440 -0.800414 177.844248
DOCKED: USER    NEWDPF quat0 -0.456565 0.388440 -0.800414 177.844248
DOCKED: USER    NEWDPF dihe0 -1.87 177.46 123.95 64.66 -140.68 46.17 14.09 
DOCKED: USER  keepresnum = 1 
DOCKED: USER  
DOCKED: REMARK  Name = 
DOCKED: REMARK  7 active torsions:
DOCKED: REMARK  status: ('A' for Active; 'I' for Inactive)
DOCKED: REMARK    1  A    between atoms: C_2  and  C_5
DOCKED: REMARK    2  A    between atoms: N_3  and  O_4
DOCKED: REMARK    3  A    between atoms: C_5  and  C_6
DOCKED: REMARK    4  A    between atoms: C_6  and  C_7
DOCKED: REMARK    5  A    between atoms: C_7  and  C_8
DOCKED: REMARK    6  A    between atoms: C_8  and  C_9
DOCKED: REMARK    7  A    between atoms: C_9  and  N_10
DOCKED: REMARK                            x       y       z     vdW  Elec       q    Type
DOCKED: REMARK                         _______ _______ _______ _____ _____    ______ ____
DOCKED: USER                              x       y       z     vdW  Elec       q    Type
DOCKED: USER                           _______ _______ _______ _____ _____    ______ ____
DOCKED: ROOT
DOCKED: ATOM      1  N   UNL     1      16.694 -10.422  -2.795 -0.24 -0.00    +0.000 N 
DOCKED: ATOM      2  C   UNL     1      16.225 -10.513  -4.154 -0.22 -0.00    +0.000 C 
DOCKED: ATOM      3  C   UNL     1      17.192 -10.674  -5.265 -0.23 -0.00    +0.000 A 
DOCKED: ATOM      4  C   UNL     1      16.742 -10.789  -6.592 -0.26 -0.00    +0.000 A 
DOCKED: ATOM      5  C   UNL     1      17.652 -10.944  -7.639 -0.29 -0.00    +0.000 A 
DOCKED: ATOM      6  C   UNL     1      19.022 -10.986  -7.380 -0.24 -0.00    +0.000 A 
DOCKED: ATOM      7  C   UNL     1      19.494 -10.874  -6.065 -0.34 -0.00    +0.000 A 
DOCKED: ATOM      8  C   UNL     1      20.872 -10.916  -5.805 -0.39 -0.00    +0.000 A 
DOCKED: ATOM      9  C   UNL     1      21.342 -10.801  -4.497 -0.47 -0.00    +0.000 A 
DOCKED: ATOM     10  C   UNL     1      20.449 -10.645  -3.437 -0.44 -0.00    +0.000 A 
DOCKED: ATOM     11  C   UNL     1      19.063 -10.601  -3.672 -0.34 -0.00    +0.000 A 
DOCKED: ATOM     12  C   UNL     1      18.577 -10.716  -4.994 -0.31 -0.00    +0.000 A 
DOCKED: ATOM     13  O   UNL     1      14.988 -10.453  -4.401 -0.24 -0.00    +0.000 OA
DOCKED: ATOM     14  C   UNL     1      18.114 -10.436  -2.546 -0.28 -0.00    +0.000 C 
DOCKED: ATOM     15  O   UNL     1      18.554 -10.308  -1.371 -0.34 -0.00    +0.000 OA
DOCKED: ENDROOT
DOCKED: BRANCH   1  16
DOCKED: ATOM     16  C   UNL     1      15.731 -10.353  -1.684 -0.30 -0.00    +0.000 C 
DOCKED: BRANCH  16  17
DOCKED: ATOM     17  C   UNL     1      15.366 -11.754  -1.164 -0.36 +0.00    +0.000 C 
DOCKED: BRANCH  17  18
DOCKED: ATOM     18  C   UNL     1      15.923 -12.072   0.237 -0.49 +0.00    +0.000 C 
DOCKED: BRANCH  18  19
DOCKED: ATOM     19  C   UNL     1      17.448 -12.299   0.290 -0.54 +0.00    +0.000 C 
DOCKED: BRANCH  19  20
DOCKED: ATOM     20  C   UNL     1      18.175 -11.506   1.387 -0.54 -0.00    +0.000 C 
DOCKED: BRANCH  20  22
DOCKED: ATOM     21  O   UNL     1      20.267 -12.398   2.121 -1.64 -0.00    +0.000 OA
DOCKED: ATOM     22  C   UNL     1      19.666 -11.657   1.298 -0.71 -0.00    +0.000 C 
DOCKED: ATOM     23  N   UNL     1      20.409 -10.940   0.309 -0.60 -0.00    +0.000 N 
DOCKED: ATOM     24  H   UNL     1      19.937 -10.355  -0.327 -0.01 -0.00    +0.000 HD
DOCKED: BRANCH  23  25
DOCKED: ATOM     25  O   UNL     1      21.756 -11.057   0.241 -0.69 -0.00    +0.000 OA
DOCKED: ATOM     26  H   UNL     1      22.067 -11.642   0.950 -0.58 -0.00    +0.000 HD
DOCKED: ENDBRANCH  23  25
DOCKED: ENDBRANCH  20  22
DOCKED: ENDBRANCH  19  20
DOCKED: ENDBRANCH  18  19
DOCKED: ENDBRANCH  17  18
DOCKED: ENDBRANCH  16  17
DOCKED: ENDBRANCH   1  16
DOCKED: TORSDOF 7
DOCKED: TER
DOCKED: ENDMDL
________________________________________________________________________________


	BEGINNING GENETIC ALGORITHM DOCKING 21 of 100
Run: 21 Seed: 1229778571 801845524 [ Run 21 of 100 GA/GALS ]
Beginning LAMARCKIAN GENETIC ALGORITHM (LGA), with a maximum of 2500000 energy evaluations.

Final-Value: -13.164


	FINAL GENETIC ALGORITHM DOCKED STATE
	_______________________________________________


Detailed state:  trans 15.765 -9.693 0.482 quatxyzw 0.207426 0.874804 0.437805 0.004450 center 0.154 0.111 -0.146 ntor 7 115.2367 -180.0000 -145.5614 81.7180 -173.0588 -128.9747 33.7072
State:	 15.765  -9.693   0.482   0.207  0.875  0.438 179.490    115.24 -180.00 -145.56   81.72 -173.06 -128.97   33.71

DOCKED: MODEL       21
DOCKED: USER    Run = 21
DOCKED: USER    DPF = ligand_dock.biased.dpf
DOCKED: USER  
DOCKED: USER    Estimated Free Energy of Binding    =   -8.45 kcal/mol  [=(1)+(2)+(3)-(4)]
DOCKED: USER    Estimated Inhibition Constant, Ki   =  639.02 nM (nanomolar)  [Temperature = 298.15 K]
DOCKED: USER    
DOCKED: USER    (1) Final Intermolecular Energy     =  -10.54 kcal/mol
DOCKED: USER        vdW + Hbond + desolv Energy     =  -10.54 kcal/mol
DOCKED: USER        Electrostatic Energy            =   +0.00 kcal/mol
DOCKED: USER    (2) Final Total Internal Energy     =   -2.62 kcal/mol
DOCKED: USER    (3) Torsional Free Energy           =   +2.09 kcal/mol
DOCKED: USER    (4) Unbound System's Energy  [=(2)] =   -2.62 kcal/mol
DOCKED: USER    
DOCKED: USER    
DOCKED: USER    NEWDPF move ligand.pdbqt
DOCKED: USER    NEWDPF about 0.154000 0.111000 -0.146000
DOCKED: USER    NEWDPF tran0 15.764949 -9.693453 0.482226
DOCKED: USER    NEWDPF quaternion0 0.207426 0.874804 0.437805 0.004450
DOCKED: USER    NEWDPF axisangle0 0.207428 0.874812 0.437809 179.490096
DOCKED: USER    NEWDPF quat0 0.207428 0.874812 0.437809 179.490096
DOCKED: USER    NEWDPF dihe0 115.24 -180.00 -145.56 81.72 -173.06 -128.97 33.71 
DOCKED: USER  keepresnum = 1 
DOCKED: USER  
DOCKED: REMARK  Name = 
DOCKED: REMARK  7 active torsions:
DOCKED: REMARK  status: ('A' for Active; 'I' for Inactive)
DOCKED: REMARK    1  A    between atoms: C_2  and  C_5
DOCKED: REMARK    2  A    between atoms: N_3  and  O_4
DOCKED: REMARK    3  A    between atoms: C_5  and  C_6
DOCKED: REMARK    4  A    between atoms: C_6  and  C_7
DOCKED: REMARK    5  A    between atoms: C_7  and  C_8
DOCKED: REMARK    6  A    between atoms: C_8  and  C_9
DOCKED: REMARK    7  A    between atoms: C_9  and  N_10
DOCKED: REMARK                            x       y       z     vdW  Elec       q    Type
DOCKED: REMARK                         _______ _______ _______ _____ _____    ______ ____
DOCKED: USER                              x       y       z     vdW  Elec       q    Type
DOCKED: USER                           _______ _______ _______ _____ _____    ______ ____
DOCKED: ROOT
DOCKED: ATOM      1  N   UNL     1      15.862 -11.188   0.530 -0.32 +0.00    +0.000 N 
DOCKED: ATOM      2  C   UNL     1      16.786 -11.385   1.617 -0.45 +0.00    +0.000 C 
DOCKED: ATOM      3  C   UNL     1      18.244 -11.276   1.380 -0.47 -0.00    +0.000 A 
DOCKED: ATOM      4  C   UNL     1      19.154 -11.442   2.440 -0.58 -0.00    +0.000 A 
DOCKED: ATOM      5  C   UNL     1      20.528 -11.337   2.219 -0.66 -0.00    +0.000 A 
DOCKED: ATOM      6  C   UNL     1      21.016 -11.066   0.941 -0.55 -0.00    +0.000 A 
DOCKED: ATOM      7  C   UNL     1      20.129 -10.897  -0.132 -0.56 -0.00    +0.000 A 
DOCKED: ATOM      8  C   UNL     1      20.620 -10.626  -1.417 -0.48 -0.00    +0.000 A 
DOCKED: ATOM      9  C   UNL     1      19.739 -10.460  -2.484 -0.41 -0.00    +0.000 A 
DOCKED: ATOM     10  C   UNL     1      18.362 -10.562  -2.284 -0.28 -0.00    +0.000 A 
DOCKED: ATOM     11  C   UNL     1      17.844 -10.833  -1.004 -0.31 -0.00    +0.000 A 
DOCKED: ATOM     12  C   UNL     1      18.731 -11.002   0.083 -0.44 -0.00    +0.000 A 
DOCKED: ATOM     13  O   UNL     1      16.355 -11.653   2.773 -0.47 +0.00    +0.000 OA
DOCKED: ATOM     14  C   UNL     1      16.382 -10.940  -0.792 -0.34 -0.00    +0.000 C 
DOCKED: ATOM     15  O   UNL     1      15.597 -10.813  -1.770 -0.31 -0.00    +0.000 OA
DOCKED: ENDROOT
DOCKED: BRANCH   1  16
DOCKED: ATOM     16  C   UNL     1      14.411 -11.206   0.781 -0.38 +0.00    +0.000 C 
DOCKED: BRANCH  16  17
DOCKED: ATOM     17  C   UNL     1      13.794  -9.804   0.633 -0.22 +0.00    +0.000 C 
DOCKED: BRANCH  17  18
DOCKED: ATOM     18  C   UNL     1      14.284  -8.786   1.681 -0.26 +0.00    +0.000 C 
DOCKED: BRANCH  18  19
DOCKED: ATOM     19  C   UNL     1      13.275  -8.480   2.806 -0.21 +0.00    +0.000 C 
DOCKED: BRANCH  19  20
DOCKED: ATOM     20  C   UNL     1      13.913  -8.155   4.166 -0.33 +0.00    +0.000 C 
DOCKED: BRANCH  20  22
DOCKED: ATOM     21  O   UNL     1      13.511  -9.768   5.882 -0.60 +0.00    +0.000 OA
DOCKED: ATOM     22  C   UNL     1      14.258  -9.395   4.938 -0.47 +0.00    +0.000 C 
DOCKED: ATOM     23  N   UNL     1      15.443 -10.134   4.631 -0.40 +0.00    +0.000 N 
DOCKED: ATOM     24  H   UNL     1      16.029  -9.835   3.899 -0.02 +0.00    +0.000 HD
DOCKED: BRANCH  23  25
DOCKED: ATOM     25  O   UNL     1      15.768 -11.240   5.342 -0.50 +0.00    +0.000 OA
DOCKED: ATOM     26  H   UNL     1      15.738 -12.018   4.762 -0.54 +0.00    +0.000 HD
DOCKED: ENDBRANCH  23  25
DOCKED: ENDBRANCH  20  22
DOCKED: ENDBRANCH  19  20
DOCKED: ENDBRANCH  18  19
DOCKED: ENDBRANCH  17  18
DOCKED: ENDBRANCH  16  17
DOCKED: ENDBRANCH   1  16
DOCKED: TORSDOF 7
DOCKED: TER
DOCKED: ENDMDL
________________________________________________________________________________


	BEGINNING GENETIC ALGORITHM DOCKING 22 of 100
Run: 22 Seed: 174377493 846449210 [ Run 22 of 100 GA/GALS ]
Beginning LAMARCKIAN GENETIC ALGORITHM (LGA), with a maximum of 2500000 energy evaluations.

Final-Value: -13.489


	FINAL GENETIC ALGORITHM DOCKED STATE
	_______________________________________________


Detailed state:  trans 16.233 -10.030 -0.696 quatxyzw -0.067359 -0.800880 -0.579700 0.134167 center 0.154 0.111 -0.146 ntor 7 5.5437 -4.1034 113.1985 -179.9547 -38.7837 -139.9479 54.8618
State:	 16.233 -10.030  -0.696  -0.068 -0.808 -0.585 164.579      5.54   -4.10  113.20 -179.95  -38.78 -139.95   54.86

DOCKED: MODEL       22
DOCKED: USER    Run = 22
DOCKED: USER    DPF = ligand_dock.biased.dpf
DOCKED: USER  
DOCKED: USER    Estimated Free Energy of Binding    =   -8.51 kcal/mol  [=(1)+(2)+(3)-(4)]
DOCKED: USER    Estimated Inhibition Constant, Ki   =  582.61 nM (nanomolar)  [Temperature = 298.15 K]
DOCKED: USER    
DOCKED: USER    (1) Final Intermolecular Energy     =  -10.59 kcal/mol
DOCKED: USER        vdW + Hbond + desolv Energy     =  -10.59 kcal/mol
DOCKED: USER        Electrostatic Energy            =   +0.00 kcal/mol
DOCKED: USER    (2) Final Total Internal Energy     =   -2.89 kcal/mol
DOCKED: USER    (3) Torsional Free Energy           =   +2.09 kcal/mol
DOCKED: USER    (4) Unbound System's Energy  [=(2)] =   -2.89 kcal/mol
DOCKED: USER    
DOCKED: USER    
DOCKED: USER    NEWDPF move ligand.pdbqt
DOCKED: USER    NEWDPF about 0.154000 0.111000 -0.146000
DOCKED: USER    NEWDPF tran0 16.232726 -10.029564 -0.695984
DOCKED: USER    NEWDPF quaternion0 -0.067359 -0.800880 -0.579700 0.134167
DOCKED: USER    NEWDPF axisangle0 -0.067974 -0.808187 -0.584989 164.579127
DOCKED: USER    NEWDPF quat0 -0.067974 -0.808187 -0.584989 164.579127
DOCKED: USER    NEWDPF dihe0 5.54 -4.10 113.20 -179.95 -38.78 -139.95 54.86 
DOCKED: USER  keepresnum = 1 
DOCKED: USER  
DOCKED: REMARK  Name = 
DOCKED: REMARK  7 active torsions:
DOCKED: REMARK  status: ('A' for Active; 'I' for Inactive)
DOCKED: REMARK    1  A    between atoms: C_2  and  C_5
DOCKED: REMARK    2  A    between atoms: N_3  and  O_4
DOCKED: REMARK    3  A    between atoms: C_5  and  C_6
DOCKED: REMARK    4  A    between atoms: C_6  and  C_7
DOCKED: REMARK    5  A    between atoms: C_7  and  C_8
DOCKED: REMARK    6  A    between atoms: C_8  and  C_9
DOCKED: REMARK    7  A    between atoms: C_9  and  N_10
DOCKED: REMARK                            x       y       z     vdW  Elec       q    Type
DOCKED: REMARK                         _______ _______ _______ _____ _____    ______ ____
DOCKED: USER                              x       y       z     vdW  Elec       q    Type
DOCKED: USER                           _______ _______ _______ _____ _____    ______ ____
DOCKED: ROOT
DOCKED: ATOM      1  N   UNL     1      16.515 -11.478  -0.956 -0.31 -0.00    +0.000 N 
DOCKED: ATOM      2  C   UNL     1      16.949 -11.927   0.343 -0.49 +0.00    +0.000 C 
DOCKED: ATOM      3  C   UNL     1      18.349 -11.709   0.775 -0.49 -0.00    +0.000 A 
DOCKED: ATOM      4  C   UNL     1      18.775 -12.121   2.050 -0.31 -0.00    +0.000 A 
DOCKED: ATOM      5  C   UNL     1      20.093 -11.913   2.459 -0.69 -0.00    +0.000 A 
DOCKED: ATOM      6  C   UNL     1      21.005 -11.293   1.605 -0.41 -0.00    +0.000 A 
DOCKED: ATOM      7  C   UNL     1      20.604 -10.874   0.329 -0.62 -0.00    +0.000 A 
DOCKED: ATOM      8  C   UNL     1      21.522 -10.251  -0.529 -0.61 -0.00    +0.000 A 
DOCKED: ATOM      9  C   UNL     1      21.124  -9.836  -1.799 -0.54 -0.00    +0.000 A 
DOCKED: ATOM     10  C   UNL     1      19.811 -10.035  -2.227 -0.38 -0.00    +0.000 A 
DOCKED: ATOM     11  C   UNL     1      18.872 -10.657  -1.385 -0.35 -0.00    +0.000 A 
DOCKED: ATOM     12  C   UNL     1      19.267 -11.081  -0.096 -0.48 -0.00    +0.000 A 
DOCKED: ATOM     13  O   UNL     1      16.137 -12.509   1.114 -0.98 +0.00    +0.000 OA
DOCKED: ATOM     14  C   UNL     1      17.478 -10.867  -1.839 -0.20 -0.00    +0.000 C 
DOCKED: ATOM     15  O   UNL     1      17.137 -10.510  -3.000 -0.28 -0.00    +0.000 OA
DOCKED: ENDROOT
DOCKED: BRANCH   1  16
DOCKED: ATOM     16  C   UNL     1      15.103 -11.613  -1.351 -0.36 +0.00    +0.000 C 
DOCKED: BRANCH  16  17
DOCKED: ATOM     17  C   UNL     1      14.548 -10.296  -1.921 -0.29 -0.00    +0.000 C 
DOCKED: BRANCH  17  18
DOCKED: ATOM     18  C   UNL     1      14.232  -9.230  -0.855 -0.24 -0.00    +0.000 C 
DOCKED: BRANCH  18  19
DOCKED: ATOM     19  C   UNL     1      15.124  -9.290   0.402 -0.27 +0.00    +0.000 C 
DOCKED: BRANCH  19  20
DOCKED: ATOM     20  C   UNL     1      14.382  -9.673   1.693 -0.27 +0.00    +0.000 C 
DOCKED: BRANCH  20  22
DOCKED: ATOM     21  O   UNL     1      15.823  -8.804   3.390 -0.44 +0.00    +0.000 OA
DOCKED: ATOM     22  C   UNL     1      15.319  -9.828   2.856 -0.40 +0.00    +0.000 C 
DOCKED: ATOM     23  N   UNL     1      15.669 -11.129   3.337 -0.51 +0.00    +0.000 N 
DOCKED: ATOM     24  H   UNL     1      15.281 -11.927   2.912 -0.04 +0.00    +0.000 HD
DOCKED: BRANCH  23  25
DOCKED: ATOM     25  O   UNL     1      16.532 -11.271   4.371 -0.63 +0.00    +0.000 OA
DOCKED: ATOM     26  H   UNL     1      16.753 -10.397   4.731 +0.01 +0.00    +0.000 HD
DOCKED: ENDBRANCH  23  25
DOCKED: ENDBRANCH  20  22
DOCKED: ENDBRANCH  19  20
DOCKED: ENDBRANCH  18  19
DOCKED: ENDBRANCH  17  18
DOCKED: ENDBRANCH  16  17
DOCKED: ENDBRANCH   1  16
DOCKED: TORSDOF 7
DOCKED: TER
DOCKED: ENDMDL
________________________________________________________________________________


	BEGINNING GENETIC ALGORITHM DOCKING 23 of 100
Run: 23 Seed: 776814015 1839198885 [ Run 23 of 100 GA/GALS ]
Beginning LAMARCKIAN GENETIC ALGORITHM (LGA), with a maximum of 2500000 energy evaluations.

Final-Value: -13.897


	FINAL GENETIC ALGORITHM DOCKED STATE
	_______________________________________________


Detailed state:  trans 18.687 -12.889 0.353 quatxyzw -0.897450 0.217008 0.124295 0.363376 center 0.154 0.111 -0.146 ntor 7 3.0036 -158.9302 133.9933 69.5659 -100.3089 -157.8375 -153.4007
State:	 18.687 -12.889   0.353  -0.963  0.233  0.133 137.385      3.00 -158.93  133.99   69.57 -100.31 -157.84 -153.40

DOCKED: MODEL       23
DOCKED: USER    Run = 23
DOCKED: USER    DPF = ligand_dock.biased.dpf
DOCKED: USER  
DOCKED: USER    Estimated Free Energy of Binding    =   -9.43 kcal/mol  [=(1)+(2)+(3)-(4)]
DOCKED: USER    Estimated Inhibition Constant, Ki   =  121.66 nM (nanomolar)  [Temperature = 298.15 K]
DOCKED: USER    
DOCKED: USER    (1) Final Intermolecular Energy     =  -11.52 kcal/mol
DOCKED: USER        vdW + Hbond + desolv Energy     =  -11.52 kcal/mol
DOCKED: USER        Electrostatic Energy            =   +0.00 kcal/mol
DOCKED: USER    (2) Final Total Internal Energy     =   -2.37 kcal/mol
DOCKED: USER    (3) Torsional Free Energy           =   +2.09 kcal/mol
DOCKED: USER    (4) Unbound System's Energy  [=(2)] =   -2.37 kcal/mol
DOCKED: USER    
DOCKED: USER    
DOCKED: USER    NEWDPF move ligand.pdbqt
DOCKED: USER    NEWDPF about 0.154000 0.111000 -0.146000
DOCKED: USER    NEWDPF tran0 18.686516 -12.889039 0.352606
DOCKED: USER    NEWDPF quaternion0 -0.897450 0.217008 0.124295 0.363376
DOCKED: USER    NEWDPF axisangle0 -0.963298 0.232930 0.133415 137.384686
DOCKED: USER    NEWDPF quat0 -0.963298 0.232930 0.133415 137.384686
DOCKED: USER    NEWDPF dihe0 3.00 -158.93 133.99 69.57 -100.31 -157.84 -153.40 
DOCKED: USER  keepresnum = 1 
DOCKED: USER  
DOCKED: REMARK  Name = 
DOCKED: REMARK  7 active torsions:
DOCKED: REMARK  status: ('A' for Active; 'I' for Inactive)
DOCKED: REMARK    1  A    between atoms: C_2  and  C_5
DOCKED: REMARK    2  A    between atoms: N_3  and  O_4
DOCKED: REMARK    3  A    between atoms: C_5  and  C_6
DOCKED: REMARK    4  A    between atoms: C_6  and  C_7
DOCKED: REMARK    5  A    between atoms: C_7  and  C_8
DOCKED: REMARK    6  A    between atoms: C_8  and  C_9
DOCKED: REMARK    7  A    between atoms: C_9  and  N_10
DOCKED: REMARK                            x       y       z     vdW  Elec       q    Type
DOCKED: REMARK                         _______ _______ _______ _____ _____    ______ ____
DOCKED: USER                              x       y       z     vdW  Elec       q    Type
DOCKED: USER                           _______ _______ _______ _____ _____    ______ ____
DOCKED: ROOT
DOCKED: ATOM      1  N   UNL     1      18.805 -11.437   0.702 -0.49 -0.00    +0.000 N 
DOCKED: ATOM      2  C   UNL     1      18.117 -11.384   1.966 -0.51 -0.00    +0.000 C 
DOCKED: ATOM      3  C   UNL     1      16.639 -11.295   2.004 -0.39 +0.00    +0.000 A 
DOCKED: ATOM      4  C   UNL     1      15.957 -11.269   3.233 -0.44 +0.00    +0.000 A 
DOCKED: ATOM      5  C   UNL     1      14.564 -11.188   3.270 -0.36 +0.00    +0.000 A 
DOCKED: ATOM      6  C   UNL     1      13.831 -11.131   2.085 -0.37 +0.00    +0.000 A 
DOCKED: ATOM      7  C   UNL     1      14.488 -11.156   0.847 -0.33 +0.00    +0.000 A 
DOCKED: ATOM      8  C   UNL     1      13.751 -11.098  -0.344 -0.31 +0.00    +0.000 A 
DOCKED: ATOM      9  C   UNL     1      14.405 -11.120  -1.575 -0.31 -0.00    +0.000 A 
DOCKED: ATOM     10  C   UNL     1      15.797 -11.200  -1.633 -0.21 -0.00    +0.000 A 
DOCKED: ATOM     11  C   UNL     1      16.559 -11.259  -0.453 -0.33 +0.00    +0.000 A 
DOCKED: ATOM     12  C   UNL     1      15.904 -11.238   0.799 -0.35 +0.00    +0.000 A 
DOCKED: ATOM     13  O   UNL     1      18.773 -11.412   3.044 -0.70 -0.00    +0.000 OA
DOCKED: ATOM     14  C   UNL     1      18.036 -11.346  -0.515 -0.46 -0.00    +0.000 C 
DOCKED: ATOM     15  O   UNL     1      18.617 -11.339  -1.634 -0.44 -0.00    +0.000 OA
DOCKED: ENDROOT
DOCKED: BRANCH   1  16
DOCKED: ATOM     16  C   UNL     1      20.266 -11.616   0.662 -0.64 -0.00    +0.000 C 
DOCKED: BRANCH  16  17
DOCKED: ATOM     17  C   UNL     1      21.005 -10.308   0.992 -0.53 -0.00    +0.000 C 
DOCKED: BRANCH  17  18
DOCKED: ATOM     18  C   UNL     1      21.400  -9.477  -0.245 -0.65 -0.00    +0.000 C 
DOCKED: BRANCH  18  19
DOCKED: ATOM     19  C   UNL     1      21.710 -10.307  -1.508 -0.46 -0.00    +0.000 C 
DOCKED: BRANCH  19  20
DOCKED: ATOM     20  C   UNL     1      21.089  -9.755  -2.802 -0.53 -0.00    +0.000 C 
DOCKED: BRANCH  20  22
DOCKED: ATOM     21  O   UNL     1      22.139 -10.964  -4.577 -0.54 -0.00    +0.000 OA
DOCKED: ATOM     22  C   UNL     1      21.089 -10.774  -3.905 -0.52 -0.00    +0.000 C 
DOCKED: ATOM     23  N   UNL     1      19.900 -11.503  -4.218 -0.48 -0.00    +0.000 N 
DOCKED: ATOM     24  H   UNL     1      19.080 -11.347  -3.697 -0.02 -0.00    +0.000 HD
DOCKED: BRANCH  23  25
DOCKED: ATOM     25  O   UNL     1      19.892 -12.406  -5.228 -0.61 -0.00    +0.000 OA
DOCKED: ATOM     26  H   UNL     1      20.783 -12.476  -5.607 -0.55 -0.00    +0.000 HD
DOCKED: ENDBRANCH  23  25
DOCKED: ENDBRANCH  20  22
DOCKED: ENDBRANCH  19  20
DOCKED: ENDBRANCH  18  19
DOCKED: ENDBRANCH  17  18
DOCKED: ENDBRANCH  16  17
DOCKED: ENDBRANCH   1  16
DOCKED: TORSDOF 7
DOCKED: TER
DOCKED: ENDMDL
________________________________________________________________________________


	BEGINNING GENETIC ALGORITHM DOCKING 24 of 100
Run: 24 Seed: 710559731 1269706879 [ Run 24 of 100 GA/GALS ]
Beginning LAMARCKIAN GENETIC ALGORITHM (LGA), with a maximum of 2500000 energy evaluations.

Final-Value: -13.797


	FINAL GENETIC ALGORITHM DOCKED STATE
	_______________________________________________


Detailed state:  trans 18.918 -13.005 1.019 quatxyzw 0.828084 -0.169775 -0.165316 -0.508059 center 0.154 0.111 -0.146 ntor 7 36.0681 31.3818 -98.3104 -175.6345 63.1420 179.9551 -165.1610
State:	 18.918 -13.005   1.019   0.961 -0.197 -0.192 -118.931     36.07   31.38  -98.31 -175.63   63.14  179.96 -165.16

DOCKED: MODEL       24
DOCKED: USER    Run = 24
DOCKED: USER    DPF = ligand_dock.biased.dpf
DOCKED: USER  
DOCKED: USER    Estimated Free Energy of Binding    =  -10.14 kcal/mol  [=(1)+(2)+(3)-(4)]
DOCKED: USER    Estimated Inhibition Constant, Ki   =   37.20 nM (nanomolar)  [Temperature = 298.15 K]
DOCKED: USER    
DOCKED: USER    (1) Final Intermolecular Energy     =  -12.22 kcal/mol
DOCKED: USER        vdW + Hbond + desolv Energy     =  -12.22 kcal/mol
DOCKED: USER        Electrostatic Energy            =   +0.00 kcal/mol
DOCKED: USER    (2) Final Total Internal Energy     =   -1.57 kcal/mol
DOCKED: USER    (3) Torsional Free Energy           =   +2.09 kcal/mol
DOCKED: USER    (4) Unbound System's Energy  [=(2)] =   -1.57 kcal/mol
DOCKED: USER    
DOCKED: USER    
DOCKED: USER    NEWDPF move ligand.pdbqt
DOCKED: USER    NEWDPF about 0.154000 0.111000 -0.146000
DOCKED: USER    NEWDPF tran0 18.918117 -13.004564 1.019010
DOCKED: USER    NEWDPF quaternion0 0.828084 -0.169775 -0.165316 -0.508059
DOCKED: USER    NEWDPF axisangle0 0.961410 -0.197110 -0.191933 -118.930772
DOCKED: USER    NEWDPF quat0 0.961410 -0.197110 -0.191933 -118.930772
DOCKED: USER    NEWDPF dihe0 36.07 31.38 -98.31 -175.63 63.14 179.96 -165.16 
DOCKED: USER  keepresnum = 1 
DOCKED: USER  
DOCKED: REMARK  Name = 
DOCKED: REMARK  7 active torsions:
DOCKED: REMARK  status: ('A' for Active; 'I' for Inactive)
DOCKED: REMARK    1  A    between atoms: C_2  and  C_5
DOCKED: REMARK    2  A    between atoms: N_3  and  O_4
DOCKED: REMARK    3  A    between atoms: C_5  and  C_6
DOCKED: REMARK    4  A    between atoms: C_6  and  C_7
DOCKED: REMARK    5  A    between atoms: C_7  and  C_8
DOCKED: REMARK    6  A    between atoms: C_8  and  C_9
DOCKED: REMARK    7  A    between atoms: C_9  and  N_10
DOCKED: REMARK                            x       y       z     vdW  Elec       q    Type
DOCKED: REMARK                         _______ _______ _______ _____ _____    ______ ____
DOCKED: USER                              x       y       z     vdW  Elec       q    Type
DOCKED: USER                           _______ _______ _______ _____ _____    ______ ____
DOCKED: ROOT
DOCKED: ATOM      1  N   UNL     1      18.971 -11.510   0.932 -0.52 -0.00    +0.000 N 
DOCKED: ATOM      2  C   UNL     1      18.515 -11.126   2.243 -0.58 -0.00    +0.000 C 
DOCKED: ATOM      3  C   UNL     1      17.065 -11.079   2.542 -0.39 +0.00    +0.000 A 
DOCKED: ATOM      4  C   UNL     1      16.611 -10.730   3.826 -0.31 +0.00    +0.000 A 
DOCKED: ATOM      5  C   UNL     1      15.245 -10.689   4.109 -0.44 +0.00    +0.000 A 
DOCKED: ATOM      6  C   UNL     1      14.312 -10.993   3.118 -0.35 +0.00    +0.000 A 
DOCKED: ATOM      7  C   UNL     1      14.740 -11.344   1.830 -0.40 +0.00    +0.000 A 
DOCKED: ATOM      8  C   UNL     1      13.801 -11.649   0.833 -0.39 +0.00    +0.000 A 
DOCKED: ATOM      9  C   UNL     1      14.227 -11.996  -0.448 -0.40 +0.00    +0.000 A 
DOCKED: ATOM     10  C   UNL     1      15.588 -12.042  -0.751 -0.36 +0.00    +0.000 A 
DOCKED: ATOM     11  C   UNL     1      16.549 -11.741   0.231 -0.40 +0.00    +0.000 A 
DOCKED: ATOM     12  C   UNL     1      16.126 -11.389   1.532 -0.38 +0.00    +0.000 A 
DOCKED: ATOM     13  O   UNL     1      19.351 -10.826   3.140 -0.76 -0.00    +0.000 OA
DOCKED: ATOM     14  C   UNL     1      17.994 -11.792  -0.090 -0.51 -0.00    +0.000 C 
DOCKED: ATOM     15  O   UNL     1      18.365 -12.081  -1.261 -0.41 -0.00    +0.000 OA
DOCKED: ENDROOT
DOCKED: BRANCH   1  16
DOCKED: ATOM     16  C   UNL     1      20.412 -11.644   0.660 -0.59 -0.00    +0.000 C 
DOCKED: BRANCH  16  17
DOCKED: ATOM     17  C   UNL     1      21.024 -10.314   0.189 -0.71 -0.00    +0.000 C 
DOCKED: BRANCH  17  18
DOCKED: ATOM     18  C   UNL     1      21.578 -10.347  -1.249 -0.58 -0.00    +0.000 C 
DOCKED: BRANCH  18  19
DOCKED: ATOM     19  C   UNL     1      21.142  -9.163  -2.136 -0.54 -0.00    +0.000 C 
DOCKED: BRANCH  19  20
DOCKED: ATOM     20  C   UNL     1      20.149  -9.531  -3.250 -0.41 -0.00    +0.000 C 
DOCKED: BRANCH  20  22
DOCKED: ATOM     21  O   UNL     1      19.642 -11.840  -3.598 -0.44 -0.00    +0.000 OA
DOCKED: ATOM     22  C   UNL     1      20.432 -10.886  -3.831 -0.50 -0.00    +0.000 C 
DOCKED: ATOM     23  N   UNL     1      21.606 -11.107  -4.617 -0.51 -0.00    +0.000 N 
DOCKED: ATOM     24  H   UNL     1      22.224 -10.362  -4.790 -0.03 -0.00    +0.000 HD
DOCKED: BRANCH  23  25
DOCKED: ATOM     25  O   UNL     1      21.874 -12.334  -5.123 -0.68 -0.00    +0.000 OA
DOCKED: ATOM     26  H   UNL     1      21.044 -12.766  -5.382 -0.62 -0.00    +0.000 HD
DOCKED: ENDBRANCH  23  25
DOCKED: ENDBRANCH  20  22
DOCKED: ENDBRANCH  19  20
DOCKED: ENDBRANCH  18  19
DOCKED: ENDBRANCH  17  18
DOCKED: ENDBRANCH  16  17
DOCKED: ENDBRANCH   1  16
DOCKED: TORSDOF 7
DOCKED: TER
DOCKED: ENDMDL
________________________________________________________________________________


	BEGINNING GENETIC ALGORITHM DOCKING 25 of 100
Run: 25 Seed: 1648678289 731499455 [ Run 25 of 100 GA/GALS ]
Beginning LAMARCKIAN GENETIC ALGORITHM (LGA), with a maximum of 2500000 energy evaluations.

Final-Value: -12.912


	FINAL GENETIC ALGORITHM DOCKED STATE
	_______________________________________________


Detailed state:  trans 17.020 -12.339 -2.324 quatxyzw -0.943910 0.227793 0.222186 0.088186 center 0.154 0.111 -0.146 ntor 7 -7.7181 154.9568 160.9193 40.5047 -170.8937 69.0770 179.6920
State:	 17.020 -12.339  -2.324  -0.948  0.229  0.223 169.881     -7.72  154.96  160.92   40.50 -170.89   69.08  179.69

DOCKED: MODEL       25
DOCKED: USER    Run = 25
DOCKED: USER    DPF = ligand_dock.biased.dpf
DOCKED: USER  
DOCKED: USER    Estimated Free Energy of Binding    =   -8.20 kcal/mol  [=(1)+(2)+(3)-(4)]
DOCKED: USER    Estimated Inhibition Constant, Ki   =  970.31 nM (nanomolar)  [Temperature = 298.15 K]
DOCKED: USER    
DOCKED: USER    (1) Final Intermolecular Energy     =  -10.29 kcal/mol
DOCKED: USER        vdW + Hbond + desolv Energy     =  -10.29 kcal/mol
DOCKED: USER        Electrostatic Energy            =   +0.00 kcal/mol
DOCKED: USER    (2) Final Total Internal Energy     =   -2.62 kcal/mol
DOCKED: USER    (3) Torsional Free Energy           =   +2.09 kcal/mol
DOCKED: USER    (4) Unbound System's Energy  [=(2)] =   -2.62 kcal/mol
DOCKED: USER    
DOCKED: USER    
DOCKED: USER    NEWDPF move ligand.pdbqt
DOCKED: USER    NEWDPF about 0.154000 0.111000 -0.146000
DOCKED: USER    NEWDPF tran0 17.019819 -12.339480 -2.323516
DOCKED: USER    NEWDPF quaternion0 -0.943910 0.227793 0.222186 0.088186
DOCKED: USER    NEWDPF axisangle0 -0.947602 0.228684 0.223055 169.881456
DOCKED: USER    NEWDPF quat0 -0.947602 0.228684 0.223055 169.881456
DOCKED: USER    NEWDPF dihe0 -7.72 154.96 160.92 40.50 -170.89 69.08 179.69 
DOCKED: USER  keepresnum = 1 
DOCKED: USER  
DOCKED: REMARK  Name = 
DOCKED: REMARK  7 active torsions:
DOCKED: REMARK  status: ('A' for Active; 'I' for Inactive)
DOCKED: REMARK    1  A    between atoms: C_2  and  C_5
DOCKED: REMARK    2  A    between atoms: N_3  and  O_4
DOCKED: REMARK    3  A    between atoms: C_5  and  C_6
DOCKED: REMARK    4  A    between atoms: C_6  and  C_7
DOCKED: REMARK    5  A    between atoms: C_7  and  C_8
DOCKED: REMARK    6  A    between atoms: C_8  and  C_9
DOCKED: REMARK    7  A    between atoms: C_9  and  N_10
DOCKED: REMARK                            x       y       z     vdW  Elec       q    Type
DOCKED: REMARK                         _______ _______ _______ _____ _____    ______ ____
DOCKED: USER                              x       y       z     vdW  Elec       q    Type
DOCKED: USER                           _______ _______ _______ _____ _____    ______ ____
DOCKED: ROOT
DOCKED: ATOM      1  N   UNL     1      17.344 -11.340  -1.255 -0.29 -0.00    +0.000 N 
DOCKED: ATOM      2  C   UNL     1      16.665 -11.901  -0.116 -0.47 +0.00    +0.000 C 
DOCKED: ATOM      3  C   UNL     1      15.215 -11.668   0.074 -0.37 +0.00    +0.000 A 
DOCKED: ATOM      4  C   UNL     1      14.539 -12.233   1.170 -0.40 +0.00    +0.000 A 
DOCKED: ATOM      5  C   UNL     1      13.171 -12.016   1.349 -0.32 +0.00    +0.000 A 
DOCKED: ATOM      6  C   UNL     1      12.459 -11.233   0.441 -0.34 +0.00    +0.000 A 
DOCKED: ATOM      7  C   UNL     1      13.111 -10.659  -0.659 -0.26 +0.00    +0.000 A 
DOCKED: ATOM      8  C   UNL     1      12.395  -9.871  -1.572 -0.20 -0.00    +0.000 A 
DOCKED: ATOM      9  C   UNL     1      13.044  -9.298  -2.664 -0.17 -0.00    +0.000 A 
DOCKED: ATOM     10  C   UNL     1      14.410  -9.503  -2.860 -0.20 -0.00    +0.000 A 
DOCKED: ATOM     11  C   UNL     1      15.151 -10.289  -1.960 -0.25 -0.00    +0.000 A 
DOCKED: ATOM     12  C   UNL     1      14.500 -10.873  -0.850 -0.29 +0.00    +0.000 A 
DOCKED: ATOM     13  O   UNL     1      17.306 -12.593   0.724 -0.88 +0.00    +0.000 OA
DOCKED: ATOM     14  C   UNL     1      16.600 -10.507  -2.169 -0.26 -0.00    +0.000 C 
DOCKED: ATOM     15  O   UNL     1      17.181  -9.962  -3.147 -0.28 -0.00    +0.000 OA
DOCKED: ENDROOT
DOCKED: BRANCH   1  16
DOCKED: ATOM     16  C   UNL     1      18.764 -11.646  -1.495 -0.28 -0.00    +0.000 C 
DOCKED: BRANCH  16  17
DOCKED: ATOM     17  C   UNL     1      19.668 -10.459  -1.119 -0.50 -0.00    +0.000 C 
DOCKED: BRANCH  17  18
DOCKED: ATOM     18  C   UNL     1      20.892 -10.844  -0.265 -0.65 -0.00    +0.000 C 
DOCKED: BRANCH  18  19
DOCKED: ATOM     19  C   UNL     1      20.754 -10.530   1.239 -0.59 -0.00    +0.000 C 
DOCKED: BRANCH  19  20
DOCKED: ATOM     20  C   UNL     1      20.539 -11.763   2.131 -0.78 -0.00    +0.000 C 
DOCKED: BRANCH  20  22
DOCKED: ATOM     21  O   UNL     1      19.752 -11.749   4.388 -0.74 -0.00    +0.000 OA
DOCKED: ATOM     22  C   UNL     1      19.487 -11.525   3.176 -0.70 -0.00    +0.000 C 
DOCKED: ATOM     23  N   UNL     1      18.181 -11.079   2.802 -0.50 -0.00    +0.000 N 
DOCKED: ATOM     24  H   UNL     1      17.975 -10.913   1.854 -0.00 -0.00    +0.000 HD
DOCKED: BRANCH  23  25
DOCKED: ATOM     25  O   UNL     1      17.224 -10.886   3.741 -0.53 +0.00    +0.000 OA
DOCKED: ATOM     26  H   UNL     1      17.543 -11.207   4.599 -0.04 +0.00    +0.000 HD
DOCKED: ENDBRANCH  23  25
DOCKED: ENDBRANCH  20  22
DOCKED: ENDBRANCH  19  20
DOCKED: ENDBRANCH  18  19
DOCKED: ENDBRANCH  17  18
DOCKED: ENDBRANCH  16  17
DOCKED: ENDBRANCH   1  16
DOCKED: TORSDOF 7
DOCKED: TER
DOCKED: ENDMDL
________________________________________________________________________________


	BEGINNING GENETIC ALGORITHM DOCKING 26 of 100
Run: 26 Seed: 935209305 978138064 [ Run 26 of 100 GA/GALS ]
Beginning LAMARCKIAN GENETIC ALGORITHM (LGA), with a maximum of 2500000 energy evaluations.

Final-Value: -13.673


	FINAL GENETIC ALGORITHM DOCKED STATE
	_______________________________________________


Detailed state:  trans 19.348 -12.456 0.204 quatxyzw -0.859131 0.077204 0.209657 0.460410 center 0.154 0.111 -0.146 ntor 7 -2.0883 -126.4961 -153.5288 157.5899 77.2064 166.7028 155.3953
State:	 19.348 -12.456   0.204  -0.968  0.087  0.236 125.173     -2.09 -126.50 -153.53  157.59   77.21  166.70  155.40

DOCKED: MODEL       26
DOCKED: USER    Run = 26
DOCKED: USER    DPF = ligand_dock.biased.dpf
DOCKED: USER  
DOCKED: USER    Estimated Free Energy of Binding    =  -10.37 kcal/mol  [=(1)+(2)+(3)-(4)]
DOCKED: USER    Estimated Inhibition Constant, Ki   =   25.23 nM (nanomolar)  [Temperature = 298.15 K]
DOCKED: USER    
DOCKED: USER    (1) Final Intermolecular Energy     =  -12.45 kcal/mol
DOCKED: USER        vdW + Hbond + desolv Energy     =  -12.45 kcal/mol
DOCKED: USER        Electrostatic Energy            =   +0.00 kcal/mol
DOCKED: USER    (2) Final Total Internal Energy     =   -1.22 kcal/mol
DOCKED: USER    (3) Torsional Free Energy           =   +2.09 kcal/mol
DOCKED: USER    (4) Unbound System's Energy  [=(2)] =   -1.22 kcal/mol
DOCKED: USER    
DOCKED: USER    
DOCKED: USER    NEWDPF move ligand.pdbqt
DOCKED: USER    NEWDPF about 0.154000 0.111000 -0.146000
DOCKED: USER    NEWDPF tran0 19.347785 -12.456045 0.204168
DOCKED: USER    NEWDPF quaternion0 -0.859131 0.077204 0.209657 0.460410
DOCKED: USER    NEWDPF axisangle0 -0.967810 0.086971 0.236178 125.172863
DOCKED: USER    NEWDPF quat0 -0.967810 0.086971 0.236178 125.172863
DOCKED: USER    NEWDPF dihe0 -2.09 -126.50 -153.53 157.59 77.21 166.70 155.40 
DOCKED: USER  keepresnum = 1 
DOCKED: USER  
DOCKED: REMARK  Name = 
DOCKED: REMARK  7 active torsions:
DOCKED: REMARK  status: ('A' for Active; 'I' for Inactive)
DOCKED: REMARK    1  A    between atoms: C_2  and  C_5
DOCKED: REMARK    2  A    between atoms: N_3  and  O_4
DOCKED: REMARK    3  A    between atoms: C_5  and  C_6
DOCKED: REMARK    4  A    between atoms: C_6  and  C_7
DOCKED: REMARK    5  A    between atoms: C_7  and  C_8
DOCKED: REMARK    6  A    between atoms: C_8  and  C_9
DOCKED: REMARK    7  A    between atoms: C_9  and  N_10
DOCKED: REMARK                            x       y       z     vdW  Elec       q    Type
DOCKED: REMARK                         _______ _______ _______ _____ _____    ______ ____
DOCKED: USER                              x       y       z     vdW  Elec       q    Type
DOCKED: USER                           _______ _______ _______ _____ _____    ______ ____
DOCKED: ROOT
DOCKED: ATOM      1  N   UNL     1      19.250 -10.969   0.355 -0.49 -0.00    +0.000 N 
DOCKED: ATOM      2  C   UNL     1      18.960 -10.837   1.760 -0.60 -0.00    +0.000 C 
DOCKED: ATOM      3  C   UNL     1      17.573 -11.000   2.250 -0.43 +0.00    +0.000 A 
DOCKED: ATOM      4  C   UNL     1      17.284 -10.897   3.623 -0.25 +0.00    +0.000 A 
DOCKED: ATOM      5  C   UNL     1      15.977 -11.054   4.086 -0.45 +0.00    +0.000 A 
DOCKED: ATOM      6  C   UNL     1      14.939 -11.312   3.191 -0.45 +0.00    +0.000 A 
DOCKED: ATOM      7  C   UNL     1      15.202 -11.418   1.818 -0.40 +0.00    +0.000 A 
DOCKED: ATOM      8  C   UNL     1      14.158 -11.677   0.918 -0.39 +0.00    +0.000 A 
DOCKED: ATOM      9  C   UNL     1      14.419 -11.780  -0.448 -0.38 +0.00    +0.000 A 
DOCKED: ATOM     10  C   UNL     1      15.718 -11.626  -0.931 -0.31 +0.00    +0.000 A 
DOCKED: ATOM     11  C   UNL     1      16.783 -11.366  -0.049 -0.36 +0.00    +0.000 A 
DOCKED: ATOM     12  C   UNL     1      16.527 -11.261   1.337 -0.38 +0.00    +0.000 A 
DOCKED: ATOM     13  O   UNL     1      19.889 -10.580   2.575 -0.82 -0.00    +0.000 OA
DOCKED: ATOM     14  C   UNL     1      18.162 -11.205  -0.562 -0.45 -0.00    +0.000 C 
DOCKED: ATOM     15  O   UNL     1      18.381 -11.275  -1.802 -0.40 -0.00    +0.000 OA
DOCKED: ENDROOT
DOCKED: BRANCH   1  16
DOCKED: ATOM     16  C   UNL     1      20.641 -10.897  -0.123 -0.66 -0.00    +0.000 C 
DOCKED: BRANCH  16  17
DOCKED: ATOM     17  C   UNL     1      20.793  -9.884  -1.271 -0.63 -0.00    +0.000 C 
DOCKED: BRANCH  17  18
DOCKED: ATOM     18  C   UNL     1      21.521 -10.439  -2.511 -0.50 -0.00    +0.000 C 
DOCKED: BRANCH  18  19
DOCKED: ATOM     19  C   UNL     1      21.023  -9.877  -3.858 -0.47 -0.00    +0.000 C 
DOCKED: BRANCH  19  20
DOCKED: ATOM     20  C   UNL     1      20.846 -10.930  -4.963 -0.50 -0.00    +0.000 C 
DOCKED: BRANCH  20  22
DOCKED: ATOM     21  O   UNL     1      22.664 -10.064  -6.251 -0.36 -0.00    +0.000 OA
DOCKED: ATOM     22  C   UNL     1      22.087 -11.087  -5.795 -0.49 -0.00    +0.000 C 
DOCKED: ATOM     23  N   UNL     1      22.595 -12.389  -6.099 -0.58 -0.00    +0.000 N 
DOCKED: ATOM     24  H   UNL     1      22.138 -13.186  -5.748 -0.54 -0.00    +0.000 HD
DOCKED: BRANCH  23  25
DOCKED: ATOM     25  O   UNL     1      23.701 -12.533  -6.867 -1.13 -0.00    +0.000 OA
DOCKED: ATOM     26  H   UNL     1      24.010 -11.660  -7.158 -0.04 -0.00    +0.000 HD
DOCKED: ENDBRANCH  23  25
DOCKED: ENDBRANCH  20  22
DOCKED: ENDBRANCH  19  20
DOCKED: ENDBRANCH  18  19
DOCKED: ENDBRANCH  17  18
DOCKED: ENDBRANCH  16  17
DOCKED: ENDBRANCH   1  16
DOCKED: TORSDOF 7
DOCKED: TER
DOCKED: ENDMDL
________________________________________________________________________________


	BEGINNING GENETIC ALGORITHM DOCKING 27 of 100
Run: 27 Seed: 1718100089 1544119520 [ Run 27 of 100 GA/GALS ]
Beginning LAMARCKIAN GENETIC ALGORITHM (LGA), with a maximum of 2500000 energy evaluations.

Final-Value: -13.236


	FINAL GENETIC ALGORITHM DOCKED STATE
	_______________________________________________


Detailed state:  trans 17.312 -12.358 -2.045 quatxyzw -0.954034 0.246472 0.163639 0.047881 center 0.154 0.111 -0.146 ntor 7 -2.6862 172.4780 13.9822 -151.1610 -139.5357 60.7446 -162.5247
State:	 17.312 -12.358  -2.045  -0.955  0.247  0.164 174.511     -2.69  172.48   13.98 -151.16 -139.54   60.74 -162.52

DOCKED: MODEL       27
DOCKED: USER    Run = 27
DOCKED: USER    DPF = ligand_dock.biased.dpf
DOCKED: USER  
DOCKED: USER    Estimated Free Energy of Binding    =   -8.13 kcal/mol  [=(1)+(2)+(3)-(4)]
DOCKED: USER    Estimated Inhibition Constant, Ki   =    1.10 uM (micromolar)  [Temperature = 298.15 K]
DOCKED: USER    
DOCKED: USER    (1) Final Intermolecular Energy     =  -10.22 kcal/mol
DOCKED: USER        vdW + Hbond + desolv Energy     =  -10.22 kcal/mol
DOCKED: USER        Electrostatic Energy            =   +0.00 kcal/mol
DOCKED: USER    (2) Final Total Internal Energy     =   -3.02 kcal/mol
DOCKED: USER    (3) Torsional Free Energy           =   +2.09 kcal/mol
DOCKED: USER    (4) Unbound System's Energy  [=(2)] =   -3.02 kcal/mol
DOCKED: USER    
DOCKED: USER    
DOCKED: USER    NEWDPF move ligand.pdbqt
DOCKED: USER    NEWDPF about 0.154000 0.111000 -0.146000
DOCKED: USER    NEWDPF tran0 17.311511 -12.357518 -2.045391
DOCKED: USER    NEWDPF quaternion0 -0.954034 0.246472 0.163639 0.047881
DOCKED: USER    NEWDPF axisangle0 -0.955130 0.246755 0.163827 174.511097
DOCKED: USER    NEWDPF quat0 -0.955130 0.246755 0.163827 174.511097
DOCKED: USER    NEWDPF dihe0 -2.69 172.48 13.98 -151.16 -139.54 60.74 -162.52 
DOCKED: USER  keepresnum = 1 
DOCKED: USER  
DOCKED: REMARK  Name = 
DOCKED: REMARK  7 active torsions:
DOCKED: REMARK  status: ('A' for Active; 'I' for Inactive)
DOCKED: REMARK    1  A    between atoms: C_2  and  C_5
DOCKED: REMARK    2  A    between atoms: N_3  and  O_4
DOCKED: REMARK    3  A    between atoms: C_5  and  C_6
DOCKED: REMARK    4  A    between atoms: C_6  and  C_7
DOCKED: REMARK    5  A    between atoms: C_7  and  C_8
DOCKED: REMARK    6  A    between atoms: C_8  and  C_9
DOCKED: REMARK    7  A    between atoms: C_9  and  N_10
DOCKED: REMARK                            x       y       z     vdW  Elec       q    Type
DOCKED: REMARK                         _______ _______ _______ _____ _____    ______ ____
DOCKED: USER                              x       y       z     vdW  Elec       q    Type
DOCKED: USER                           _______ _______ _______ _____ _____    ______ ____
DOCKED: ROOT
DOCKED: ATOM      1  N   UNL     1      17.521 -11.416  -0.899 -0.36 -0.00    +0.000 N 
DOCKED: ATOM      2  C   UNL     1      16.673 -11.994   0.112 -0.48 +0.00    +0.000 C 
DOCKED: ATOM      3  C   UNL     1      15.220 -11.709   0.114 -0.38 +0.00    +0.000 A 
DOCKED: ATOM      4  C   UNL     1      14.380 -12.289   1.081 -0.38 +0.00    +0.000 A 
DOCKED: ATOM      5  C   UNL     1      13.010 -12.024   1.083 -0.35 +0.00    +0.000 A 
DOCKED: ATOM      6  C   UNL     1      12.456 -11.176   0.123 -0.33 +0.00    +0.000 A 
DOCKED: ATOM      7  C   UNL     1      13.273 -10.586  -0.852 -0.26 +0.00    +0.000 A 
DOCKED: ATOM      8  C   UNL     1      12.717  -9.733  -1.816 -0.20 -0.00    +0.000 A 
DOCKED: ATOM      9  C   UNL     1      13.529  -9.144  -2.783 -0.16 -0.00    +0.000 A 
DOCKED: ATOM     10  C   UNL     1      14.901  -9.397  -2.802 -0.20 -0.00    +0.000 A 
DOCKED: ATOM     11  C   UNL     1      15.483 -10.248  -1.845 -0.25 -0.00    +0.000 A 
DOCKED: ATOM     12  C   UNL     1      14.667 -10.850  -0.862 -0.28 +0.00    +0.000 A 
DOCKED: ATOM     13  O   UNL     1      17.168 -12.744   0.998 -1.08 +0.00    +0.000 OA
DOCKED: ATOM     14  C   UNL     1      16.939 -10.517  -1.866 -0.27 -0.00    +0.000 C 
DOCKED: ATOM     15  O   UNL     1      17.667  -9.958  -2.730 -0.28 -0.00    +0.000 OA
DOCKED: ENDROOT
DOCKED: BRANCH   1  16
DOCKED: ATOM     16  C   UNL     1      18.949 -11.770  -0.957 -0.29 -0.00    +0.000 C 
DOCKED: BRANCH  16  17
DOCKED: ATOM     17  C   UNL     1      19.792 -10.871  -0.036 -0.60 -0.00    +0.000 C 
DOCKED: BRANCH  17  18
DOCKED: ATOM     18  C   UNL     1      20.646 -11.642   0.989 -0.70 -0.00    +0.000 C 
DOCKED: BRANCH  18  19
DOCKED: ATOM     19  C   UNL     1      19.843 -12.322   2.117 -0.72 -0.00    +0.000 C 
DOCKED: BRANCH  19  20
DOCKED: ATOM     20  C   UNL     1      19.519 -11.409   3.310 -0.71 -0.00    +0.000 C 
DOCKED: BRANCH  20  22
DOCKED: ATOM     21  O   UNL     1      18.665  -9.221   2.868 -0.55 -0.00    +0.000 OA
DOCKED: ATOM     22  C   UNL     1      18.408 -10.448   2.999 -0.48 -0.00    +0.000 C 
DOCKED: ATOM     23  N   UNL     1      17.060 -10.912   2.883 -0.46 +0.00    +0.000 N 
DOCKED: ATOM     24  H   UNL     1      16.862 -11.869   2.994 -0.01 +0.00    +0.000 HD
DOCKED: BRANCH  23  25
DOCKED: ATOM     25  O   UNL     1      16.054 -10.043   2.625 -0.42 +0.00    +0.000 OA
DOCKED: ATOM     26  H   UNL     1      16.407  -9.140   2.587 -0.02 +0.00    +0.000 HD
DOCKED: ENDBRANCH  23  25
DOCKED: ENDBRANCH  20  22
DOCKED: ENDBRANCH  19  20
DOCKED: ENDBRANCH  18  19
DOCKED: ENDBRANCH  17  18
DOCKED: ENDBRANCH  16  17
DOCKED: ENDBRANCH   1  16
DOCKED: TORSDOF 7
DOCKED: TER
DOCKED: ENDMDL
________________________________________________________________________________


	BEGINNING GENETIC ALGORITHM DOCKING 28 of 100
Run: 28 Seed: 779476960 376311594 [ Run 28 of 100 GA/GALS ]
Beginning LAMARCKIAN GENETIC ALGORITHM (LGA), with a maximum of 2500000 energy evaluations.

Final-Value: -14.410


	FINAL GENETIC ALGORITHM DOCKED STATE
	_______________________________________________


Detailed state:  trans 19.159 -9.767 1.257 quatxyzw 0.427708 0.033102 -0.224162 0.875055 center 0.154 0.111 -0.146 ntor 7 -10.3069 -155.0510 -116.6556 180.0000 90.5782 -170.8602 -10.2783
State:	 19.159  -9.767   1.257   0.884  0.068 -0.463 57.897    -10.31 -155.05 -116.66  180.00   90.58 -170.86  -10.28

DOCKED: MODEL       28
DOCKED: USER    Run = 28
DOCKED: USER    DPF = ligand_dock.biased.dpf
DOCKED: USER  
DOCKED: USER    Estimated Free Energy of Binding    =  -10.03 kcal/mol  [=(1)+(2)+(3)-(4)]
DOCKED: USER    Estimated Inhibition Constant, Ki   =   44.47 nM (nanomolar)  [Temperature = 298.15 K]
DOCKED: USER    
DOCKED: USER    (1) Final Intermolecular Energy     =  -12.12 kcal/mol
DOCKED: USER        vdW + Hbond + desolv Energy     =  -12.12 kcal/mol
DOCKED: USER        Electrostatic Energy            =   +0.00 kcal/mol
DOCKED: USER    (2) Final Total Internal Energy     =   -2.29 kcal/mol
DOCKED: USER    (3) Torsional Free Energy           =   +2.09 kcal/mol
DOCKED: USER    (4) Unbound System's Energy  [=(2)] =   -2.29 kcal/mol
DOCKED: USER    
DOCKED: USER    
DOCKED: USER    NEWDPF move ligand.pdbqt
DOCKED: USER    NEWDPF about 0.154000 0.111000 -0.146000
DOCKED: USER    NEWDPF tran0 19.158827 -9.767002 1.257432
DOCKED: USER    NEWDPF quaternion0 0.427708 0.033102 -0.224162 0.875055
DOCKED: USER    NEWDPF axisangle0 0.883651 0.068389 -0.463123 57.897027
DOCKED: USER    NEWDPF quat0 0.883651 0.068389 -0.463123 57.897027
DOCKED: USER    NEWDPF dihe0 -10.31 -155.05 -116.66 180.00 90.58 -170.86 -10.28 
DOCKED: USER  keepresnum = 1 
DOCKED: USER  
DOCKED: REMARK  Name = 
DOCKED: REMARK  7 active torsions:
DOCKED: REMARK  status: ('A' for Active; 'I' for Inactive)
DOCKED: REMARK    1  A    between atoms: C_2  and  C_5
DOCKED: REMARK    2  A    between atoms: N_3  and  O_4
DOCKED: REMARK    3  A    between atoms: C_5  and  C_6
DOCKED: REMARK    4  A    between atoms: C_6  and  C_7
DOCKED: REMARK    5  A    between atoms: C_7  and  C_8
DOCKED: REMARK    6  A    between atoms: C_8  and  C_9
DOCKED: REMARK    7  A    between atoms: C_9  and  N_10
DOCKED: REMARK                            x       y       z     vdW  Elec       q    Type
DOCKED: REMARK                         _______ _______ _______ _____ _____    ______ ____
DOCKED: USER                              x       y       z     vdW  Elec       q    Type
DOCKED: USER                           _______ _______ _______ _____ _____    ______ ____
DOCKED: ROOT
DOCKED: ATOM      1  N   UNL     1      19.158 -11.262   1.157 -0.52 -0.00    +0.000 N 
DOCKED: ATOM      2  C   UNL     1      18.298 -11.477   0.022 -0.51 -0.00    +0.000 C 
DOCKED: ATOM      3  C   UNL     1      16.827 -11.466   0.191 -0.38 +0.00    +0.000 A 
DOCKED: ATOM      4  C   UNL     1      15.980 -11.650  -0.915 -0.30 +0.00    +0.000 A 
DOCKED: ATOM      5  C   UNL     1      14.593 -11.637  -0.757 -0.36 +0.00    +0.000 A 
DOCKED: ATOM      6  C   UNL     1      14.031 -11.441   0.504 -0.36 +0.00    +0.000 A 
DOCKED: ATOM      7  C   UNL     1      14.855 -11.256   1.623 -0.38 +0.00    +0.000 A 
DOCKED: ATOM      8  C   UNL     1      14.290 -11.061   2.891 -0.38 +0.00    +0.000 A 
DOCKED: ATOM      9  C   UNL     1      15.109 -10.879   4.004 -0.42 +0.00    +0.000 A 
DOCKED: ATOM     10  C   UNL     1      16.498 -10.889   3.867 -0.40 +0.00    +0.000 A 
DOCKED: ATOM     11  C   UNL     1      17.089 -11.083   2.605 -0.38 +0.00    +0.000 A 
DOCKED: ATOM     12  C   UNL     1      16.266 -11.268   1.472 -0.38 +0.00    +0.000 A 
DOCKED: ATOM     13  O   UNL     1      18.798 -11.677  -1.120 -0.50 -0.00    +0.000 OA
DOCKED: ATOM     14  C   UNL     1      18.563 -11.092   2.459 -0.58 -0.00    +0.000 C 
DOCKED: ATOM     15  O   UNL     1      19.294 -10.953   3.478 -0.73 -0.00    +0.000 OA
DOCKED: ENDROOT
DOCKED: BRANCH   1  16
DOCKED: ATOM     16  C   UNL     1      20.617 -11.183   0.975 -0.73 -0.00    +0.000 C 
DOCKED: BRANCH  16  17
DOCKED: ATOM     17  C   UNL     1      21.018  -9.947   0.150 -0.69 -0.00    +0.000 C 
DOCKED: BRANCH  17  18
DOCKED: ATOM     18  C   UNL     1      21.478 -10.269  -1.285 -0.61 -0.00    +0.000 C 
DOCKED: BRANCH  18  19
DOCKED: ATOM     19  C   UNL     1      21.408  -9.081  -2.266 -0.51 -0.00    +0.000 C 
DOCKED: BRANCH  19  20
DOCKED: ATOM     20  C   UNL     1      20.380  -9.245  -3.397 -0.41 -0.00    +0.000 C 
DOCKED: BRANCH  20  22
DOCKED: ATOM     21  O   UNL     1      21.522 -10.585  -5.014 -0.47 -0.00    +0.000 OA
DOCKED: ATOM     22  C   UNL     1      20.590 -10.517  -4.168 -0.48 -0.00    +0.000 C 
DOCKED: ATOM     23  N   UNL     1      19.720 -11.635  -3.973 -0.46 -0.00    +0.000 N 
DOCKED: ATOM     24  H   UNL     1      18.989 -11.575  -3.317 -0.02 -0.00    +0.000 HD
DOCKED: BRANCH  23  25
DOCKED: ATOM     25  O   UNL     1      19.894 -12.774  -4.684 -0.61 -0.00    +0.000 OA
DOCKED: ATOM     26  H   UNL     1      20.541 -12.619  -5.391 -0.56 -0.00    +0.000 HD
DOCKED: ENDBRANCH  23  25
DOCKED: ENDBRANCH  20  22
DOCKED: ENDBRANCH  19  20
DOCKED: ENDBRANCH  18  19
DOCKED: ENDBRANCH  17  18
DOCKED: ENDBRANCH  16  17
DOCKED: ENDBRANCH   1  16
DOCKED: TORSDOF 7
DOCKED: TER
DOCKED: ENDMDL
________________________________________________________________________________


	BEGINNING GENETIC ALGORITHM DOCKING 29 of 100
Run: 29 Seed: 84548703 1701073298 [ Run 29 of 100 GA/GALS ]
Beginning LAMARCKIAN GENETIC ALGORITHM (LGA), with a maximum of 2500000 energy evaluations.

Final-Value: -13.979


	FINAL GENETIC ALGORITHM DOCKED STATE
	_______________________________________________


Detailed state:  trans 18.722 -10.165 0.425 quatxyzw -0.636579 0.108294 0.235362 -0.726392 center 0.154 0.111 -0.146 ntor 7 0.0896 7.5091 40.7378 97.5590 -11.3619 -179.7889 43.5304
State:	 18.722 -10.165   0.425  -0.926  0.158  0.342 -86.831      0.09    7.51   40.74   97.56  -11.36 -179.79   43.53

DOCKED: MODEL       29
DOCKED: USER    Run = 29
DOCKED: USER    DPF = ligand_dock.biased.dpf
DOCKED: USER  
DOCKED: USER    Estimated Free Energy of Binding    =  -10.45 kcal/mol  [=(1)+(2)+(3)-(4)]
DOCKED: USER    Estimated Inhibition Constant, Ki   =   22.04 nM (nanomolar)  [Temperature = 298.15 K]
DOCKED: USER    
DOCKED: USER    (1) Final Intermolecular Energy     =  -12.53 kcal/mol
DOCKED: USER        vdW + Hbond + desolv Energy     =  -12.53 kcal/mol
DOCKED: USER        Electrostatic Energy            =   +0.00 kcal/mol
DOCKED: USER    (2) Final Total Internal Energy     =   -1.45 kcal/mol
DOCKED: USER    (3) Torsional Free Energy           =   +2.09 kcal/mol
DOCKED: USER    (4) Unbound System's Energy  [=(2)] =   -1.45 kcal/mol
DOCKED: USER    
DOCKED: USER    
DOCKED: USER    NEWDPF move ligand.pdbqt
DOCKED: USER    NEWDPF about 0.154000 0.111000 -0.146000
DOCKED: USER    NEWDPF tran0 18.721904 -10.164513 0.425189
DOCKED: USER    NEWDPF quaternion0 -0.636579 0.108294 0.235362 -0.726392
DOCKED: USER    NEWDPF axisangle0 -0.926228 0.157568 0.342454 -86.830530
DOCKED: USER    NEWDPF quat0 -0.926228 0.157568 0.342454 -86.830530
DOCKED: USER    NEWDPF dihe0 0.09 7.51 40.74 97.56 -11.36 -179.79 43.53 
DOCKED: USER  keepresnum = 1 
DOCKED: USER  
DOCKED: REMARK  Name = 
DOCKED: REMARK  7 active torsions:
DOCKED: REMARK  status: ('A' for Active; 'I' for Inactive)
DOCKED: REMARK    1  A    between atoms: C_2  and  C_5
DOCKED: REMARK    2  A    between atoms: N_3  and  O_4
DOCKED: REMARK    3  A    between atoms: C_5  and  C_6
DOCKED: REMARK    4  A    between atoms: C_6  and  C_7
DOCKED: REMARK    5  A    between atoms: C_7  and  C_8
DOCKED: REMARK    6  A    between atoms: C_8  and  C_9
DOCKED: REMARK    7  A    between atoms: C_9  and  N_10
DOCKED: REMARK                            x       y       z     vdW  Elec       q    Type
DOCKED: REMARK                         _______ _______ _______ _____ _____    ______ ____
DOCKED: USER                              x       y       z     vdW  Elec       q    Type
DOCKED: USER                           _______ _______ _______ _____ _____    ______ ____
DOCKED: ROOT
DOCKED: ATOM      1  N   UNL     1      18.700 -11.479   1.144 -0.50 -0.00    +0.000 N 
DOCKED: ATOM      2  C   UNL     1      17.668 -12.185   0.428 -0.54 +0.00    +0.000 C 
DOCKED: ATOM      3  C   UNL     1      16.243 -11.954   0.760 -0.42 +0.00    +0.000 A 
DOCKED: ATOM      4  C   UNL     1      15.228 -12.620   0.050 -0.48 +0.00    +0.000 A 
DOCKED: ATOM      5  C   UNL     1      13.885 -12.401   0.360 -0.35 +0.00    +0.000 A 
DOCKED: ATOM      6  C   UNL     1      13.533 -11.518   1.381 -0.39 +0.00    +0.000 A 
DOCKED: ATOM      7  C   UNL     1      14.527 -10.844   2.103 -0.35 +0.00    +0.000 A 
DOCKED: ATOM      8  C   UNL     1      14.173  -9.957   3.130 -0.31 +0.00    +0.000 A 
DOCKED: ATOM      9  C   UNL     1      15.161  -9.288   3.851 -0.36 +0.00    +0.000 A 
DOCKED: ATOM     10  C   UNL     1      16.510  -9.493   3.556 -0.22 +0.00    +0.000 A 
DOCKED: ATOM     11  C   UNL     1      16.891 -10.377   2.531 -0.42 +0.00    +0.000 A 
DOCKED: ATOM     12  C   UNL     1      15.895 -11.059   1.796 -0.37 +0.00    +0.000 A 
DOCKED: ATOM     13  O   UNL     1      17.977 -13.002  -0.483 -0.51 -0.00    +0.000 OA
DOCKED: ATOM     14  C   UNL     1      18.322 -10.594   2.218 -0.56 -0.00    +0.000 C 
DOCKED: ATOM     15  O   UNL     1      19.207 -10.002   2.894 -0.68 -0.00    +0.000 OA
DOCKED: ENDROOT
DOCKED: BRANCH   1  16
DOCKED: ATOM     16  C   UNL     1      20.111 -11.638   0.755 -0.67 -0.00    +0.000 C 
DOCKED: BRANCH  16  17
DOCKED: ATOM     17  C   UNL     1      20.735 -10.298   0.329 -0.68 -0.00    +0.000 C 
DOCKED: BRANCH  17  18
DOCKED: ATOM     18  C   UNL     1      21.174 -10.247  -1.147 -0.66 -0.00    +0.000 C 
DOCKED: BRANCH  18  19
DOCKED: ATOM     19  C   UNL     1      20.049 -10.528  -2.165 -0.50 -0.00    +0.000 C 
DOCKED: BRANCH  19  20
DOCKED: ATOM     20  C   UNL     1      20.370 -10.100  -3.605 -0.45 -0.00    +0.000 C 
DOCKED: BRANCH  20  22
DOCKED: ATOM     21  O   UNL     1      19.837 -11.940  -5.035 -0.63 -0.00    +0.000 OA
DOCKED: ATOM     22  C   UNL     1      20.743 -11.269  -4.471 -0.52 -0.00    +0.000 C 
DOCKED: ATOM     23  N   UNL     1      22.113 -11.645  -4.630 -0.47 -0.00    +0.000 N 
DOCKED: ATOM     24  H   UNL     1      22.817 -11.125  -4.182 -0.00 -0.00    +0.000 HD
DOCKED: BRANCH  23  25
DOCKED: ATOM     25  O   UNL     1      22.449 -12.713  -5.393 -0.84 -0.00    +0.000 OA
DOCKED: ATOM     26  H   UNL     1      21.646 -13.114  -5.762 -0.64 -0.00    +0.000 HD
DOCKED: ENDBRANCH  23  25
DOCKED: ENDBRANCH  20  22
DOCKED: ENDBRANCH  19  20
DOCKED: ENDBRANCH  18  19
DOCKED: ENDBRANCH  17  18
DOCKED: ENDBRANCH  16  17
DOCKED: ENDBRANCH   1  16
DOCKED: TORSDOF 7
DOCKED: TER
DOCKED: ENDMDL
________________________________________________________________________________


	BEGINNING GENETIC ALGORITHM DOCKING 30 of 100
Run: 30 Seed: 1765490141 279610327 [ Run 30 of 100 GA/GALS ]
Beginning LAMARCKIAN GENETIC ALGORITHM (LGA), with a maximum of 2500000 energy evaluations.

Final-Value: -13.718


	FINAL GENETIC ALGORITHM DOCKED STATE
	_______________________________________________


Detailed state:  trans 19.156 -9.344 -0.051 quatxyzw 0.342546 -0.094278 -0.336881 0.871943 center 0.154 0.111 -0.146 ntor 7 -6.0401 -160.5948 153.6724 21.1146 -101.4556 177.0993 50.1651
State:	 19.156  -9.344  -0.051   0.700 -0.193 -0.688 58.629     -6.04 -160.59  153.67   21.11 -101.46  177.10   50.17

DOCKED: MODEL       30
DOCKED: USER    Run = 30
DOCKED: USER    DPF = ligand_dock.biased.dpf
DOCKED: USER  
DOCKED: USER    Estimated Free Energy of Binding    =   -9.27 kcal/mol  [=(1)+(2)+(3)-(4)]
DOCKED: USER    Estimated Inhibition Constant, Ki   =  159.55 nM (nanomolar)  [Temperature = 298.15 K]
DOCKED: USER    
DOCKED: USER    (1) Final Intermolecular Energy     =  -11.36 kcal/mol
DOCKED: USER        vdW + Hbond + desolv Energy     =  -11.36 kcal/mol
DOCKED: USER        Electrostatic Energy            =   +0.00 kcal/mol
DOCKED: USER    (2) Final Total Internal Energy     =   -2.36 kcal/mol
DOCKED: USER    (3) Torsional Free Energy           =   +2.09 kcal/mol
DOCKED: USER    (4) Unbound System's Energy  [=(2)] =   -2.36 kcal/mol
DOCKED: USER    
DOCKED: USER    
DOCKED: USER    NEWDPF move ligand.pdbqt
DOCKED: USER    NEWDPF about 0.154000 0.111000 -0.146000
DOCKED: USER    NEWDPF tran0 19.156354 -9.344397 -0.051127
DOCKED: USER    NEWDPF quaternion0 0.342546 -0.094278 -0.336881 0.871943
DOCKED: USER    NEWDPF axisangle0 0.699636 -0.192558 -0.688064 58.629480
DOCKED: USER    NEWDPF quat0 0.699636 -0.192558 -0.688064 58.629480
DOCKED: USER    NEWDPF dihe0 -6.04 -160.59 153.67 21.11 -101.46 177.10 50.17 
DOCKED: USER  keepresnum = 1 
DOCKED: USER  
DOCKED: REMARK  Name = 
DOCKED: REMARK  7 active torsions:
DOCKED: REMARK  status: ('A' for Active; 'I' for Inactive)
DOCKED: REMARK    1  A    between atoms: C_2  and  C_5
DOCKED: REMARK    2  A    between atoms: N_3  and  O_4
DOCKED: REMARK    3  A    between atoms: C_5  and  C_6
DOCKED: REMARK    4  A    between atoms: C_6  and  C_7
DOCKED: REMARK    5  A    between atoms: C_7  and  C_8
DOCKED: REMARK    6  A    between atoms: C_8  and  C_9
DOCKED: REMARK    7  A    between atoms: C_9  and  N_10
DOCKED: REMARK                            x       y       z     vdW  Elec       q    Type
DOCKED: REMARK                         _______ _______ _______ _____ _____    ______ ____
DOCKED: USER                              x       y       z     vdW  Elec       q    Type
DOCKED: USER                           _______ _______ _______ _____ _____    ______ ____
DOCKED: ROOT
DOCKED: ATOM      1  N   UNL     1      19.238 -10.821  -0.290 -0.46 -0.00    +0.000 N 
DOCKED: ATOM      2  C   UNL     1      18.051 -11.056  -1.072 -0.40 -0.00    +0.000 C 
DOCKED: ATOM      3  C   UNL     1      16.740 -11.215  -0.402 -0.33 -0.00    +0.000 A 
DOCKED: ATOM      4  C   UNL     1      15.573 -11.419  -1.158 -0.29 +0.00    +0.000 A 
DOCKED: ATOM      5  C   UNL     1      14.336 -11.566  -0.528 -0.36 +0.00    +0.000 A 
DOCKED: ATOM      6  C   UNL     1      14.244 -11.513   0.863 -0.37 +0.00    +0.000 A 
DOCKED: ATOM      7  C   UNL     1      15.394 -11.311   1.638 -0.38 +0.00    +0.000 A 
DOCKED: ATOM      8  C   UNL     1      15.302 -11.258   3.036 -0.47 +0.00    +0.000 A 
DOCKED: ATOM      9  C   UNL     1      16.446 -11.060   3.808 -0.36 +0.00    +0.000 A 
DOCKED: ATOM     10  C   UNL     1      17.692 -10.911   3.197 -0.38 +0.00    +0.000 A 
DOCKED: ATOM     11  C   UNL     1      17.810 -10.959   1.796 -0.44 -0.00    +0.000 A 
DOCKED: ATOM     12  C   UNL     1      16.656 -11.160   1.007 -0.36 +0.00    +0.000 A 
DOCKED: ATOM     13  O   UNL     1      18.128 -11.128  -2.330 -0.22 -0.00    +0.000 OA
DOCKED: ATOM     14  C   UNL     1      19.132 -10.800   1.148 -0.58 -0.00    +0.000 C 
DOCKED: ATOM     15  O   UNL     1      20.163 -10.647   1.858 -0.87 -0.00    +0.000 OA
DOCKED: ENDROOT
DOCKED: BRANCH   1  16
DOCKED: ATOM     16  C   UNL     1      20.527 -10.573  -0.958 -0.60 -0.00    +0.000 C 
DOCKED: BRANCH  16  17
DOCKED: ATOM     17  C   UNL     1      21.175  -9.266  -0.469 -0.61 -0.00    +0.000 C 
DOCKED: BRANCH  17  18
DOCKED: ATOM     18  C   UNL     1      21.390  -8.216  -1.575 -0.49 -0.00    +0.000 C 
DOCKED: BRANCH  18  19
DOCKED: ATOM     19  C   UNL     1      21.691  -8.800  -2.971 -0.36 -0.00    +0.000 C 
DOCKED: BRANCH  19  20
DOCKED: ATOM     20  C   UNL     1      20.444  -9.124  -3.809 -0.37 -0.00    +0.000 C 
DOCKED: BRANCH  20  22
DOCKED: ATOM     21  O   UNL     1      21.228 -10.267  -5.756 -0.35 -0.00    +0.000 OA
DOCKED: ATOM     22  C   UNL     1      20.634 -10.355  -4.649 -0.44 -0.00    +0.000 C 
DOCKED: ATOM     23  N   UNL     1      20.116 -11.615  -4.215 -0.48 -0.00    +0.000 N 
DOCKED: ATOM     24  H   UNL     1      19.645 -11.679  -3.354 -0.03 -0.00    +0.000 HD
DOCKED: BRANCH  23  25
DOCKED: ATOM     25  O   UNL     1      20.267 -12.722  -4.982 -0.77 -0.00    +0.000 OA
DOCKED: ATOM     26  H   UNL     1      20.663 -12.475  -5.833 -0.56 -0.00    +0.000 HD
DOCKED: ENDBRANCH  23  25
DOCKED: ENDBRANCH  20  22
DOCKED: ENDBRANCH  19  20
DOCKED: ENDBRANCH  18  19
DOCKED: ENDBRANCH  17  18
DOCKED: ENDBRANCH  16  17
DOCKED: ENDBRANCH   1  16
DOCKED: TORSDOF 7
DOCKED: TER
DOCKED: ENDMDL
________________________________________________________________________________


	BEGINNING GENETIC ALGORITHM DOCKING 31 of 100
Run: 31 Seed: 1577544524 1418301279 [ Run 31 of 100 GA/GALS ]
Beginning LAMARCKIAN GENETIC ALGORITHM (LGA), with a maximum of 2500000 energy evaluations.

Final-Value: -12.777


	FINAL GENETIC ALGORITHM DOCKED STATE
	_______________________________________________


Detailed state:  trans 19.846 -9.000 -1.802 quatxyzw 0.127637 -0.377502 -0.436572 0.806602 center 0.154 0.111 -0.146 ntor 7 161.7393 -36.9193 -128.8790 -175.8622 -151.2953 169.8458 -164.2684
State:	 19.846  -9.000  -1.802   0.216 -0.639 -0.739 72.470    161.74  -36.92 -128.88 -175.86 -151.30  169.85 -164.27

DOCKED: MODEL       31
DOCKED: USER    Run = 31
DOCKED: USER    DPF = ligand_dock.biased.dpf
DOCKED: USER  
DOCKED: USER    Estimated Free Energy of Binding    =  -10.04 kcal/mol  [=(1)+(2)+(3)-(4)]
DOCKED: USER    Estimated Inhibition Constant, Ki   =   43.57 nM (nanomolar)  [Temperature = 298.15 K]
DOCKED: USER    
DOCKED: USER    (1) Final Intermolecular Energy     =  -12.13 kcal/mol
DOCKED: USER        vdW + Hbond + desolv Energy     =  -12.13 kcal/mol
DOCKED: USER        Electrostatic Energy            =   +0.00 kcal/mol
DOCKED: USER    (2) Final Total Internal Energy     =   -0.65 kcal/mol
DOCKED: USER    (3) Torsional Free Energy           =   +2.09 kcal/mol
DOCKED: USER    (4) Unbound System's Energy  [=(2)] =   -0.65 kcal/mol
DOCKED: USER    
DOCKED: USER    
DOCKED: USER    NEWDPF move ligand.pdbqt
DOCKED: USER    NEWDPF about 0.154000 0.111000 -0.146000
DOCKED: USER    NEWDPF tran0 19.845817 -8.999581 -1.801932
DOCKED: USER    NEWDPF quaternion0 0.127637 -0.377502 -0.436572 0.806602
DOCKED: USER    NEWDPF axisangle0 0.215934 -0.638648 -0.738581 72.469557
DOCKED: USER    NEWDPF quat0 0.215934 -0.638648 -0.738581 72.469557
DOCKED: USER    NEWDPF dihe0 161.74 -36.92 -128.88 -175.86 -151.30 169.85 -164.27 
DOCKED: USER  keepresnum = 1 
DOCKED: USER  
DOCKED: REMARK  Name = 
DOCKED: REMARK  7 active torsions:
DOCKED: REMARK  status: ('A' for Active; 'I' for Inactive)
DOCKED: REMARK    1  A    between atoms: C_2  and  C_5
DOCKED: REMARK    2  A    between atoms: N_3  and  O_4
DOCKED: REMARK    3  A    between atoms: C_5  and  C_6
DOCKED: REMARK    4  A    between atoms: C_6  and  C_7
DOCKED: REMARK    5  A    between atoms: C_7  and  C_8
DOCKED: REMARK    6  A    between atoms: C_8  and  C_9
DOCKED: REMARK    7  A    between atoms: C_9  and  N_10
DOCKED: REMARK                            x       y       z     vdW  Elec       q    Type
DOCKED: REMARK                         _______ _______ _______ _____ _____    ______ ____
DOCKED: USER                              x       y       z     vdW  Elec       q    Type
DOCKED: USER                           _______ _______ _______ _____ _____    ______ ____
DOCKED: ROOT
DOCKED: ATOM      1  N   UNL     1      19.640 -10.418  -2.239 -0.41 -0.00    +0.000 N 
DOCKED: ATOM      2  C   UNL     1      18.222 -10.579  -2.047 -0.31 -0.00    +0.000 C 
DOCKED: ATOM      3  C   UNL     1      17.686 -10.892  -0.702 -0.34 -0.00    +0.000 A 
DOCKED: ATOM      4  C   UNL     1      16.301 -11.027  -0.500 -0.31 +0.00    +0.000 A 
DOCKED: ATOM      5  C   UNL     1      15.794 -11.320   0.768 -0.35 +0.00    +0.000 A 
DOCKED: ATOM      6  C   UNL     1      16.658 -11.483   1.850 -0.38 +0.00    +0.000 A 
DOCKED: ATOM      7  C   UNL     1      18.043 -11.355   1.673 -0.45 -0.00    +0.000 A 
DOCKED: ATOM      8  C   UNL     1      18.911 -11.520   2.761 -0.45 -0.00    +0.000 A 
DOCKED: ATOM      9  C   UNL     1      20.288 -11.395   2.585 -0.68 -0.00    +0.000 A 
DOCKED: ATOM     10  C   UNL     1      20.815 -11.103   1.326 -0.55 -0.00    +0.000 A 
DOCKED: ATOM     11  C   UNL     1      19.964 -10.932   0.219 -0.56 -0.00    +0.000 A 
DOCKED: ATOM     12  C   UNL     1      18.568 -11.057   0.389 -0.44 -0.00    +0.000 A 
DOCKED: ATOM     13  O   UNL     1      17.433 -10.455  -3.025 -0.30 -0.00    +0.000 OA
DOCKED: ATOM     14  C   UNL     1      20.523 -10.621  -1.117 -0.57 -0.00    +0.000 C 
DOCKED: ATOM     15  O   UNL     1      21.772 -10.536  -1.268 -0.72 -0.00    +0.000 OA
DOCKED: ENDROOT
DOCKED: BRANCH   1  16
DOCKED: ATOM     16  C   UNL     1      20.167 -10.018  -3.554 -0.43 -0.00    +0.000 C 
DOCKED: BRANCH  16  17
DOCKED: ATOM     17  C   UNL     1      20.437 -11.238  -4.451 -0.51 -0.00    +0.000 C 
DOCKED: BRANCH  17  18
DOCKED: ATOM     18  C   UNL     1      21.866 -11.298  -5.023 -0.53 -0.00    +0.000 C 
DOCKED: BRANCH  18  19
DOCKED: ATOM     19  C   UNL     1      22.093 -10.439  -6.285 -0.39 -0.00    +0.000 C 
DOCKED: BRANCH  19  20
DOCKED: ATOM     20  C   UNL     1      22.291 -11.245  -7.579 -0.36 -0.00    +0.000 C 
DOCKED: BRANCH  20  22
DOCKED: ATOM     21  O   UNL     1      23.924 -12.622  -6.507 -1.14 +0.00    +0.000 OA
DOCKED: ATOM     22  C   UNL     1      23.570 -12.031  -7.562 -0.53 -0.00    +0.000 C 
DOCKED: ATOM     23  N   UNL     1      24.403 -12.084  -8.724 -0.41 -0.00    +0.000 N 
DOCKED: ATOM     24  H   UNL     1      24.128 -11.614  -9.543 +0.00 -0.00    +0.000 HD
DOCKED: BRANCH  23  25
DOCKED: ATOM     25  O   UNL     1      25.568 -12.773  -8.704 -0.50 -0.00    +0.000 OA
DOCKED: ATOM     26  H   UNL     1      25.856 -12.949  -9.614 -0.50 -0.00    +0.000 HD
DOCKED: ENDBRANCH  23  25
DOCKED: ENDBRANCH  20  22
DOCKED: ENDBRANCH  19  20
DOCKED: ENDBRANCH  18  19
DOCKED: ENDBRANCH  17  18
DOCKED: ENDBRANCH  16  17
DOCKED: ENDBRANCH   1  16
DOCKED: TORSDOF 7
DOCKED: TER
DOCKED: ENDMDL
________________________________________________________________________________


	BEGINNING GENETIC ALGORITHM DOCKING 32 of 100
Run: 32 Seed: 1634760770 772076257 [ Run 32 of 100 GA/GALS ]
Beginning LAMARCKIAN GENETIC ALGORITHM (LGA), with a maximum of 2500000 energy evaluations.

Final-Value: -13.231


	FINAL GENETIC ALGORITHM DOCKED STATE
	_______________________________________________


Detailed state:  trans 19.038 -9.260 -1.630 quatxyzw -0.096668 0.503195 0.398688 -0.760590 center 0.154 0.111 -0.146 ntor 7 1.6429 92.6332 58.1361 -172.9386 -14.5276 161.4721 164.3837
State:	 19.038  -9.260  -1.630  -0.149  0.775  0.614 -80.967      1.64   92.63   58.14 -172.94  -14.53  161.47  164.38

DOCKED: MODEL       32
DOCKED: USER    Run = 32
DOCKED: USER    DPF = ligand_dock.biased.dpf
DOCKED: USER  
DOCKED: USER    Estimated Free Energy of Binding    =   -8.50 kcal/mol  [=(1)+(2)+(3)-(4)]
DOCKED: USER    Estimated Inhibition Constant, Ki   =  588.59 nM (nanomolar)  [Temperature = 298.15 K]
DOCKED: USER    
DOCKED: USER    (1) Final Intermolecular Energy     =  -10.59 kcal/mol
DOCKED: USER        vdW + Hbond + desolv Energy     =  -10.59 kcal/mol
DOCKED: USER        Electrostatic Energy            =   +0.00 kcal/mol
DOCKED: USER    (2) Final Total Internal Energy     =   -2.64 kcal/mol
DOCKED: USER    (3) Torsional Free Energy           =   +2.09 kcal/mol
DOCKED: USER    (4) Unbound System's Energy  [=(2)] =   -2.64 kcal/mol
DOCKED: USER    
DOCKED: USER    
DOCKED: USER    NEWDPF move ligand.pdbqt
DOCKED: USER    NEWDPF about 0.154000 0.111000 -0.146000
DOCKED: USER    NEWDPF tran0 19.038143 -9.260153 -1.629791
DOCKED: USER    NEWDPF quaternion0 -0.096668 0.503195 0.398688 -0.760590
DOCKED: USER    NEWDPF axisangle0 -0.148895 0.775062 0.614092 -80.967492
DOCKED: USER    NEWDPF quat0 -0.148895 0.775062 0.614092 -80.967492
DOCKED: USER    NEWDPF dihe0 1.64 92.63 58.14 -172.94 -14.53 161.47 164.38 
DOCKED: USER  keepresnum = 1 
DOCKED: USER  
DOCKED: REMARK  Name = 
DOCKED: REMARK  7 active torsions:
DOCKED: REMARK  status: ('A' for Active; 'I' for Inactive)
DOCKED: REMARK    1  A    between atoms: C_2  and  C_5
DOCKED: REMARK    2  A    between atoms: N_3  and  O_4
DOCKED: REMARK    3  A    between atoms: C_5  and  C_6
DOCKED: REMARK    4  A    between atoms: C_6  and  C_7
DOCKED: REMARK    5  A    between atoms: C_7  and  C_8
DOCKED: REMARK    6  A    between atoms: C_8  and  C_9
DOCKED: REMARK    7  A    between atoms: C_9  and  N_10
DOCKED: REMARK                            x       y       z     vdW  Elec       q    Type
DOCKED: REMARK                         _______ _______ _______ _____ _____    ______ ____
DOCKED: USER                              x       y       z     vdW  Elec       q    Type
DOCKED: USER                           _______ _______ _______ _____ _____    ______ ____
DOCKED: ROOT
DOCKED: ATOM      1  N   UNL     1      18.639 -10.688  -1.845 -0.36 -0.00    +0.000 N 
DOCKED: ATOM      2  C   UNL     1      17.310 -10.706  -1.290 -0.30 -0.00    +0.000 C 
DOCKED: ATOM      3  C   UNL     1      17.117 -10.849   0.171 -0.33 -0.00    +0.000 A 
DOCKED: ATOM      4  C   UNL     1      15.824 -10.842   0.725 -0.31 +0.00    +0.000 A 
DOCKED: ATOM      5  C   UNL     1      15.642 -10.974   2.103 -0.38 +0.00    +0.000 A 
DOCKED: ATOM      6  C   UNL     1      16.742 -11.116   2.948 -0.36 +0.00    +0.000 A 
DOCKED: ATOM      7  C   UNL     1      18.041 -11.127   2.419 -0.45 -0.00    +0.000 A 
DOCKED: ATOM      8  C   UNL     1      19.147 -11.271   3.269 -0.57 -0.00    +0.000 A 
DOCKED: ATOM      9  C   UNL     1      20.438 -11.284   2.743 -0.64 -0.00    +0.000 A 
DOCKED: ATOM     10  C   UNL     1      20.642 -11.153   1.369 -0.65 -0.00    +0.000 A 
DOCKED: ATOM     11  C   UNL     1      19.549 -11.007   0.496 -0.54 -0.00    +0.000 A 
DOCKED: ATOM     12  C   UNL     1      18.237 -10.993   1.020 -0.44 -0.00    +0.000 A 
DOCKED: ATOM     13  O   UNL     1      16.307 -10.600  -2.049 -0.30 -0.00    +0.000 OA
DOCKED: ATOM     14  C   UNL     1      19.765 -10.867  -0.962 -0.52 -0.00    +0.000 C 
DOCKED: ATOM     15  O   UNL     1      20.937 -10.907  -1.428 -0.60 -0.00    +0.000 OA
DOCKED: ENDROOT
DOCKED: BRANCH   1  16
DOCKED: ATOM     16  C   UNL     1      18.835 -10.455  -3.286 -0.37 -0.00    +0.000 C 
DOCKED: BRANCH  16  17
DOCKED: ATOM     17  C   UNL     1      19.542 -11.644  -3.959 -0.38 -0.00    +0.000 C 
DOCKED: BRANCH  17  18
DOCKED: ATOM     18  C   UNL     1      20.681 -11.242  -4.916 -0.53 -0.00    +0.000 C 
DOCKED: BRANCH  18  19
DOCKED: ATOM     19  C   UNL     1      21.761 -10.337  -4.290 -0.46 -0.00    +0.000 C 
DOCKED: BRANCH  19  20
DOCKED: ATOM     20  C   UNL     1      21.714  -8.872  -4.752 -0.32 -0.00    +0.000 C 
DOCKED: BRANCH  20  22
DOCKED: ATOM     21  O   UNL     1      21.612  -6.685  -3.793 -0.32 -0.00    +0.000 OA
DOCKED: ATOM     22  C   UNL     1      21.498  -7.926  -3.606 -0.35 -0.00    +0.000 C 
DOCKED: ATOM     23  N   UNL     1      21.197  -8.426  -2.300 -0.47 -0.00    +0.000 N 
DOCKED: ATOM     24  H   UNL     1      21.116  -9.396  -2.156 -0.02 -0.00    +0.000 HD
DOCKED: BRANCH  23  25
DOCKED: ATOM     25  O   UNL     1      21.024  -7.575  -1.261 -0.56 -0.00    +0.000 OA
DOCKED: ATOM     26  H   UNL     1      21.111  -6.660  -1.573 -0.05 +0.00    +0.000 HD
DOCKED: ENDBRANCH  23  25
DOCKED: ENDBRANCH  20  22
DOCKED: ENDBRANCH  19  20
DOCKED: ENDBRANCH  18  19
DOCKED: ENDBRANCH  17  18
DOCKED: ENDBRANCH  16  17
DOCKED: ENDBRANCH   1  16
DOCKED: TORSDOF 7
DOCKED: TER
DOCKED: ENDMDL
________________________________________________________________________________


	BEGINNING GENETIC ALGORITHM DOCKING 33 of 100
Run: 33 Seed: 1207969035 278929486 [ Run 33 of 100 GA/GALS ]
Beginning LAMARCKIAN GENETIC ALGORITHM (LGA), with a maximum of 2500000 energy evaluations.

Final-Value: -13.783


	FINAL GENETIC ALGORITHM DOCKED STATE
	_______________________________________________


Detailed state:  trans 19.110 -12.619 -0.226 quatxyzw -0.898601 0.162628 0.185369 0.362914 center 0.154 0.111 -0.146 ntor 7 -13.5171 -177.0080 -27.9280 134.5140 28.2697 -165.9674 -178.3553
State:	 19.110 -12.619  -0.226  -0.964  0.175  0.199 137.442    -13.52 -177.01  -27.93  134.51   28.27 -165.97 -178.36

DOCKED: MODEL       33
DOCKED: USER    Run = 33
DOCKED: USER    DPF = ligand_dock.biased.dpf
DOCKED: USER  
DOCKED: USER    Estimated Free Energy of Binding    =   -9.33 kcal/mol  [=(1)+(2)+(3)-(4)]
DOCKED: USER    Estimated Inhibition Constant, Ki   =  144.15 nM (nanomolar)  [Temperature = 298.15 K]
DOCKED: USER    
DOCKED: USER    (1) Final Intermolecular Energy     =  -11.42 kcal/mol
DOCKED: USER        vdW + Hbond + desolv Energy     =  -11.42 kcal/mol
DOCKED: USER        Electrostatic Energy            =   +0.00 kcal/mol
DOCKED: USER    (2) Final Total Internal Energy     =   -2.36 kcal/mol
DOCKED: USER    (3) Torsional Free Energy           =   +2.09 kcal/mol
DOCKED: USER    (4) Unbound System's Energy  [=(2)] =   -2.36 kcal/mol
DOCKED: USER    
DOCKED: USER    
DOCKED: USER    NEWDPF move ligand.pdbqt
DOCKED: USER    NEWDPF about 0.154000 0.111000 -0.146000
DOCKED: USER    NEWDPF tran0 19.110327 -12.619183 -0.226293
DOCKED: USER    NEWDPF quaternion0 -0.898601 0.162628 0.185369 0.362914
DOCKED: USER    NEWDPF axisangle0 -0.964348 0.174526 0.198932 137.441531
DOCKED: USER    NEWDPF quat0 -0.964348 0.174526 0.198932 137.441531
DOCKED: USER    NEWDPF dihe0 -13.52 -177.01 -27.93 134.51 28.27 -165.97 -178.36 
DOCKED: USER  keepresnum = 1 
DOCKED: USER  
DOCKED: REMARK  Name = 
DOCKED: REMARK  7 active torsions:
DOCKED: REMARK  status: ('A' for Active; 'I' for Inactive)
DOCKED: REMARK    1  A    between atoms: C_2  and  C_5
DOCKED: REMARK    2  A    between atoms: N_3  and  O_4
DOCKED: REMARK    3  A    between atoms: C_5  and  C_6
DOCKED: REMARK    4  A    between atoms: C_6  and  C_7
DOCKED: REMARK    5  A    between atoms: C_7  and  C_8
DOCKED: REMARK    6  A    between atoms: C_8  and  C_9
DOCKED: REMARK    7  A    between atoms: C_9  and  N_10
DOCKED: REMARK                            x       y       z     vdW  Elec       q    Type
DOCKED: REMARK                         _______ _______ _______ _____ _____    ______ ____
DOCKED: USER                              x       y       z     vdW  Elec       q    Type
DOCKED: USER                           _______ _______ _______ _____ _____    ______ ____
DOCKED: ROOT
DOCKED: ATOM      1  N   UNL     1      19.206 -11.177   0.167 -0.49 -0.00    +0.000 N 
DOCKED: ATOM      2  C   UNL     1      18.713 -11.210   1.520 -0.58 -0.00    +0.000 C 
DOCKED: ATOM      3  C   UNL     1      17.255 -11.207   1.779 -0.41 +0.00    +0.000 A 
DOCKED: ATOM      4  C   UNL     1      16.763 -11.265   3.095 -0.28 +0.00    +0.000 A 
DOCKED: ATOM      5  C   UNL     1      15.389 -11.264   3.340 -0.49 +0.00    +0.000 A 
DOCKED: ATOM      6  C   UNL     1      14.485 -11.205   2.279 -0.40 +0.00    +0.000 A 
DOCKED: ATOM      7  C   UNL     1      14.951 -11.146   0.959 -0.33 +0.00    +0.000 A 
DOCKED: ATOM      8  C   UNL     1      14.042 -11.085  -0.107 -0.30 +0.00    +0.000 A 
DOCKED: ATOM      9  C   UNL     1      14.505 -11.023  -1.421 -0.30 -0.00    +0.000 A 
DOCKED: ATOM     10  C   UNL     1      15.875 -11.023  -1.687 -0.22 -0.00    +0.000 A 
DOCKED: ATOM     11  C   UNL     1      16.807 -11.083  -0.635 -0.32 -0.00    +0.000 A 
DOCKED: ATOM     12  C   UNL     1      16.346 -11.146   0.699 -0.35 +0.00    +0.000 A 
DOCKED: ATOM     13  O   UNL     1      19.523 -11.242   2.488 -1.02 -0.00    +0.000 OA
DOCKED: ATOM     14  C   UNL     1      18.261 -11.084  -0.917 -0.43 -0.00    +0.000 C 
DOCKED: ATOM     15  O   UNL     1      18.667 -11.002  -2.109 -0.41 -0.00    +0.000 OA
DOCKED: ENDROOT
DOCKED: BRANCH   1  16
DOCKED: ATOM     16  C   UNL     1      20.652 -11.272  -0.095 -0.45 -0.00    +0.000 C 
DOCKED: BRANCH  16  17
DOCKED: ATOM     17  C   UNL     1      21.258  -9.897  -0.426 -0.70 -0.00    +0.000 C 
DOCKED: BRANCH  17  18
DOCKED: ATOM     18  C   UNL     1      21.518  -9.666  -1.927 -0.47 -0.00    +0.000 C 
DOCKED: BRANCH  18  19
DOCKED: ATOM     19  C   UNL     1      20.412  -8.878  -2.660 -0.37 -0.00    +0.000 C 
DOCKED: BRANCH  19  20
DOCKED: ATOM     20  C   UNL     1      20.398  -9.067  -4.185 -0.34 -0.00    +0.000 C 
DOCKED: BRANCH  20  22
DOCKED: ATOM     21  O   UNL     1      21.994 -10.664  -4.967 -0.50 -0.00    +0.000 OA
DOCKED: ATOM     22  C   UNL     1      20.811 -10.454  -4.585 -0.46 -0.00    +0.000 C 
DOCKED: ATOM     23  N   UNL     1      19.865 -11.525  -4.568 -0.48 -0.00    +0.000 N 
DOCKED: ATOM     24  H   UNL     1      18.941 -11.356  -4.277 -0.02 -0.00    +0.000 HD
DOCKED: BRANCH  23  25
DOCKED: ATOM     25  O   UNL     1      20.231 -12.772  -4.950 -0.72 -0.00    +0.000 OA
DOCKED: ATOM     26  H   UNL     1      21.089 -12.734  -5.403 -0.59 -0.00    +0.000 HD
DOCKED: ENDBRANCH  23  25
DOCKED: ENDBRANCH  20  22
DOCKED: ENDBRANCH  19  20
DOCKED: ENDBRANCH  18  19
DOCKED: ENDBRANCH  17  18
DOCKED: ENDBRANCH  16  17
DOCKED: ENDBRANCH   1  16
DOCKED: TORSDOF 7
DOCKED: TER
DOCKED: ENDMDL
________________________________________________________________________________


	BEGINNING GENETIC ALGORITHM DOCKING 34 of 100
Run: 34 Seed: 2034447066 1407425573 [ Run 34 of 100 GA/GALS ]
Beginning LAMARCKIAN GENETIC ALGORITHM (LGA), with a maximum of 2500000 energy evaluations.

Final-Value: -13.537


	FINAL GENETIC ALGORITHM DOCKED STATE
	_______________________________________________


Detailed state:  trans 20.341 -9.218 -1.288 quatxyzw 0.225852 -0.310955 -0.408931 0.827691 center 0.154 0.111 -0.146 ntor 7 2.2798 38.7464 -163.9525 -59.4084 14.0457 81.1130 -15.1813
State:	 20.341  -9.218  -1.288   0.402 -0.554 -0.729 68.275      2.28   38.75 -163.95  -59.41   14.05   81.11  -15.18

DOCKED: MODEL       34
DOCKED: USER    Run = 34
DOCKED: USER    DPF = ligand_dock.biased.dpf
DOCKED: USER  
DOCKED: USER    Estimated Free Energy of Binding    =   -9.92 kcal/mol  [=(1)+(2)+(3)-(4)]
DOCKED: USER    Estimated Inhibition Constant, Ki   =   53.40 nM (nanomolar)  [Temperature = 298.15 K]
DOCKED: USER    
DOCKED: USER    (1) Final Intermolecular Energy     =  -12.01 kcal/mol
DOCKED: USER        vdW + Hbond + desolv Energy     =  -12.01 kcal/mol
DOCKED: USER        Electrostatic Energy            =   +0.00 kcal/mol
DOCKED: USER    (2) Final Total Internal Energy     =   -1.53 kcal/mol
DOCKED: USER    (3) Torsional Free Energy           =   +2.09 kcal/mol
DOCKED: USER    (4) Unbound System's Energy  [=(2)] =   -1.53 kcal/mol
DOCKED: USER    
DOCKED: USER    
DOCKED: USER    NEWDPF move ligand.pdbqt
DOCKED: USER    NEWDPF about 0.154000 0.111000 -0.146000
DOCKED: USER    NEWDPF tran0 20.340780 -9.217832 -1.287903
DOCKED: USER    NEWDPF quaternion0 0.225852 -0.310955 -0.408931 0.827691
DOCKED: USER    NEWDPF axisangle0 0.402458 -0.554106 -0.728693 68.275353
DOCKED: USER    NEWDPF quat0 0.402458 -0.554106 -0.728693 68.275353
DOCKED: USER    NEWDPF dihe0 2.28 38.75 -163.95 -59.41 14.05 81.11 -15.18 
DOCKED: USER  keepresnum = 1 
DOCKED: USER  
DOCKED: REMARK  Name = 
DOCKED: REMARK  7 active torsions:
DOCKED: REMARK  status: ('A' for Active; 'I' for Inactive)
DOCKED: REMARK    1  A    between atoms: C_2  and  C_5
DOCKED: REMARK    2  A    between atoms: N_3  and  O_4
DOCKED: REMARK    3  A    between atoms: C_5  and  C_6
DOCKED: REMARK    4  A    between atoms: C_6  and  C_7
DOCKED: REMARK    5  A    between atoms: C_7  and  C_8
DOCKED: REMARK    6  A    between atoms: C_8  and  C_9
DOCKED: REMARK    7  A    between atoms: C_9  and  N_10
DOCKED: REMARK                            x       y       z     vdW  Elec       q    Type
DOCKED: REMARK                         _______ _______ _______ _____ _____    ______ ____
DOCKED: USER                              x       y       z     vdW  Elec       q    Type
DOCKED: USER                           _______ _______ _______ _____ _____    ______ ____
DOCKED: ROOT
DOCKED: ATOM      1  N   UNL     1      20.256 -10.683  -1.588 -0.48 -0.00    +0.000 N 
DOCKED: ATOM      2  C   UNL     1      18.833 -10.879  -1.685 -0.43 -0.00    +0.000 C 
DOCKED: ATOM      3  C   UNL     1      18.023 -11.061  -0.458 -0.37 -0.00    +0.000 A 
DOCKED: ATOM      4  C   UNL     1      16.630 -11.228  -0.540 -0.32 -0.00    +0.000 A 
DOCKED: ATOM      5  C   UNL     1      15.866 -11.398   0.616 -0.36 +0.00    +0.000 A 
DOCKED: ATOM      6  C   UNL     1      16.478 -11.404   1.869 -0.39 +0.00    +0.000 A 
DOCKED: ATOM      7  C   UNL     1      17.866 -11.240   1.977 -0.44 -0.00    +0.000 A 
DOCKED: ATOM      8  C   UNL     1      18.481 -11.248   3.237 -0.37 -0.00    +0.000 A 
DOCKED: ATOM      9  C   UNL     1      19.862 -11.088   3.344 -0.65 -0.00    +0.000 A 
DOCKED: ATOM     10  C   UNL     1      20.643 -10.917   2.200 -0.57 -0.00    +0.000 A 
DOCKED: ATOM     11  C   UNL     1      20.050 -10.906   0.925 -0.60 -0.00    +0.000 A 
DOCKED: ATOM     12  C   UNL     1      18.651 -11.068   0.808 -0.47 -0.00    +0.000 A 
DOCKED: ATOM     13  O   UNL     1      18.272 -10.897  -2.816 -0.32 -0.00    +0.000 OA
DOCKED: ATOM     14  C   UNL     1      20.879 -10.724  -0.288 -0.66 -0.00    +0.000 C 
DOCKED: ATOM     15  O   UNL     1      22.130 -10.605  -0.179 -0.73 -0.00    +0.000 OA
DOCKED: ENDROOT
DOCKED: BRANCH   1  16
DOCKED: ATOM     16  C   UNL     1      21.049 -10.412  -2.799 -0.55 -0.00    +0.000 C 
DOCKED: BRANCH  16  17
DOCKED: ATOM     17  C   UNL     1      20.593  -9.118  -3.495 -0.41 -0.00    +0.000 C 
DOCKED: BRANCH  17  18
DOCKED: ATOM     18  C   UNL     1      21.735  -8.317  -4.151 -0.29 -0.00    +0.000 C 
DOCKED: BRANCH  18  19
DOCKED: ATOM     19  C   UNL     1      22.136  -8.802  -5.559 -0.27 -0.00    +0.000 C 
DOCKED: BRANCH  19  20
DOCKED: ATOM     20  C   UNL     1      21.227  -9.895  -6.142 -0.31 -0.00    +0.000 C 
DOCKED: BRANCH  20  22
DOCKED: ATOM     21  O   UNL     1      21.294 -12.143  -5.333 -0.75 -0.00    +0.000 OA
DOCKED: ATOM     22  C   UNL     1      21.848 -11.259  -6.039 -0.49 -0.00    +0.000 C 
DOCKED: ATOM     23  N   UNL     1      23.078 -11.546  -6.708 -0.47 -0.00    +0.000 N 
DOCKED: ATOM     24  H   UNL     1      23.513 -10.851  -7.252 -0.01 -0.00    +0.000 HD
DOCKED: BRANCH  23  25
DOCKED: ATOM     25  O   UNL     1      23.652 -12.769  -6.598 -1.15 -0.00    +0.000 OA
DOCKED: ATOM     26  H   UNL     1      23.085 -13.345  -6.062 -0.13 -0.00    +0.000 HD
DOCKED: ENDBRANCH  23  25
DOCKED: ENDBRANCH  20  22
DOCKED: ENDBRANCH  19  20
DOCKED: ENDBRANCH  18  19
DOCKED: ENDBRANCH  17  18
DOCKED: ENDBRANCH  16  17
DOCKED: ENDBRANCH   1  16
DOCKED: TORSDOF 7
DOCKED: TER
DOCKED: ENDMDL
________________________________________________________________________________


	BEGINNING GENETIC ALGORITHM DOCKING 35 of 100
Run: 35 Seed: 2083613264 1224406978 [ Run 35 of 100 GA/GALS ]
Beginning LAMARCKIAN GENETIC ALGORITHM (LGA), with a maximum of 2500000 energy evaluations.

Final-Value: -12.653


	FINAL GENETIC ALGORITHM DOCKED STATE
	_______________________________________________


Detailed state:  trans 18.454 -11.735 -3.089 quatxyzw 0.651737 0.206218 -0.641193 -0.348689 center 0.154 0.111 -0.146 ntor 7 -3.0392 170.8964 -3.5560 -43.4285 -10.4794 108.6751 7.6129
State:	 18.454 -11.735  -3.089   0.695  0.220 -0.684 -139.186     -3.04  170.90   -3.56  -43.43  -10.48  108.68    7.61

DOCKED: MODEL       35
DOCKED: USER    Run = 35
DOCKED: USER    DPF = ligand_dock.biased.dpf
DOCKED: USER  
DOCKED: USER    Estimated Free Energy of Binding    =   -8.98 kcal/mol  [=(1)+(2)+(3)-(4)]
DOCKED: USER    Estimated Inhibition Constant, Ki   =  260.35 nM (nanomolar)  [Temperature = 298.15 K]
DOCKED: USER    
DOCKED: USER    (1) Final Intermolecular Energy     =  -11.07 kcal/mol
DOCKED: USER        vdW + Hbond + desolv Energy     =  -11.07 kcal/mol
DOCKED: USER        Electrostatic Energy            =   +0.00 kcal/mol
DOCKED: USER    (2) Final Total Internal Energy     =   -1.58 kcal/mol
DOCKED: USER    (3) Torsional Free Energy           =   +2.09 kcal/mol
DOCKED: USER    (4) Unbound System's Energy  [=(2)] =   -1.58 kcal/mol
DOCKED: USER    
DOCKED: USER    
DOCKED: USER    NEWDPF move ligand.pdbqt
DOCKED: USER    NEWDPF about 0.154000 0.111000 -0.146000
DOCKED: USER    NEWDPF tran0 18.454480 -11.735399 -3.089489
DOCKED: USER    NEWDPF quaternion0 0.651737 0.206218 -0.641193 -0.348689
DOCKED: USER    NEWDPF axisangle0 0.695381 0.220027 -0.684130 -139.185651
DOCKED: USER    NEWDPF quat0 0.695381 0.220027 -0.684130 -139.185651
DOCKED: USER    NEWDPF dihe0 -3.04 170.90 -3.56 -43.43 -10.48 108.68 7.61 
DOCKED: USER  keepresnum = 1 
DOCKED: USER  
DOCKED: REMARK  Name = 
DOCKED: REMARK  7 active torsions:
DOCKED: REMARK  status: ('A' for Active; 'I' for Inactive)
DOCKED: REMARK    1  A    between atoms: C_2  and  C_5
DOCKED: REMARK    2  A    between atoms: N_3  and  O_4
DOCKED: REMARK    3  A    between atoms: C_5  and  C_6
DOCKED: REMARK    4  A    between atoms: C_6  and  C_7
DOCKED: REMARK    5  A    between atoms: C_7  and  C_8
DOCKED: REMARK    6  A    between atoms: C_8  and  C_9
DOCKED: REMARK    7  A    between atoms: C_9  and  N_10
DOCKED: REMARK                            x       y       z     vdW  Elec       q    Type
DOCKED: REMARK                         _______ _______ _______ _____ _____    ______ ____
DOCKED: USER                              x       y       z     vdW  Elec       q    Type
DOCKED: USER                           _______ _______ _______ _____ _____    ______ ____
DOCKED: ROOT
DOCKED: ATOM      1  N   UNL     1      18.684 -10.307  -2.699 -0.32 -0.00    +0.000 N 
DOCKED: ATOM      2  C   UNL     1      19.838 -10.421  -1.844 -0.49 -0.00    +0.000 C 
DOCKED: ATOM      3  C   UNL     1      19.675 -10.806  -0.424 -0.49 -0.00    +0.000 A 
DOCKED: ATOM      4  C   UNL     1      20.797 -10.944   0.412 -0.61 -0.00    +0.000 A 
DOCKED: ATOM      5  C   UNL     1      20.645 -11.310   1.750 -0.66 -0.00    +0.000 A 
DOCKED: ATOM      6  C   UNL     1      19.374 -11.542   2.276 -0.62 -0.00    +0.000 A 
DOCKED: ATOM      7  C   UNL     1      18.240 -11.411   1.463 -0.47 -0.00    +0.000 A 
DOCKED: ATOM      8  C   UNL     1      16.962 -11.643   1.991 -0.31 +0.00    +0.000 A 
DOCKED: ATOM      9  C   UNL     1      15.833 -11.510   1.184 -0.38 +0.00    +0.000 A 
DOCKED: ATOM     10  C   UNL     1      15.965 -11.145  -0.157 -0.31 +0.00    +0.000 A 
DOCKED: ATOM     11  C   UNL     1      17.235 -10.906  -0.711 -0.32 -0.00    +0.000 A 
DOCKED: ATOM     12  C   UNL     1      18.384 -11.039   0.101 -0.42 -0.00    +0.000 A 
DOCKED: ATOM     13  O   UNL     1      20.990 -10.191  -2.305 -0.58 -0.00    +0.000 OA
DOCKED: ATOM     14  C   UNL     1      17.375 -10.520  -2.134 -0.25 -0.00    +0.000 C 
DOCKED: ATOM     15  O   UNL     1      16.344 -10.378  -2.847 -0.28 -0.00    +0.000 OA
DOCKED: ENDROOT
DOCKED: BRANCH   1  16
DOCKED: ATOM     16  C   UNL     1      18.851 -10.013  -4.132 -0.32 -0.00    +0.000 C 
DOCKED: BRANCH  16  17
DOCKED: ATOM     17  C   UNL     1      19.144 -11.289  -4.940 -0.44 -0.00    +0.000 C 
DOCKED: BRANCH  17  18
DOCKED: ATOM     18  C   UNL     1      19.150 -11.082  -6.467 -0.36 -0.00    +0.000 C 
DOCKED: BRANCH  18  19
DOCKED: ATOM     19  C   UNL     1      20.169 -10.041  -6.974 -0.26 -0.00    +0.000 C 
DOCKED: BRANCH  19  20
DOCKED: ATOM     20  C   UNL     1      21.350  -9.788  -6.023 -0.31 -0.00    +0.000 C 
DOCKED: BRANCH  20  22
DOCKED: ATOM     21  O   UNL     1      22.086 -11.552  -4.588 -0.59 -0.00    +0.000 OA
DOCKED: ATOM     22  C   UNL     1      22.124 -11.044  -5.741 -0.49 -0.00    +0.000 C 
DOCKED: ATOM     23  N   UNL     1      22.928 -11.645  -6.759 -0.50 -0.00    +0.000 N 
DOCKED: ATOM     24  H   UNL     1      22.962 -11.241  -7.655 -0.02 -0.00    +0.000 HD
DOCKED: BRANCH  23  25
DOCKED: ATOM     25  O   UNL     1      23.644 -12.764  -6.499 -1.17 -0.00    +0.000 OA
DOCKED: ATOM     26  H   UNL     1      23.541 -13.005  -5.564 -0.09 -0.00    +0.000 HD
DOCKED: ENDBRANCH  23  25
DOCKED: ENDBRANCH  20  22
DOCKED: ENDBRANCH  19  20
DOCKED: ENDBRANCH  18  19
DOCKED: ENDBRANCH  17  18
DOCKED: ENDBRANCH  16  17
DOCKED: ENDBRANCH   1  16
DOCKED: TORSDOF 7
DOCKED: TER
DOCKED: ENDMDL
________________________________________________________________________________


	BEGINNING GENETIC ALGORITHM DOCKING 36 of 100
Run: 36 Seed: 863619619 467505554 [ Run 36 of 100 GA/GALS ]
Beginning LAMARCKIAN GENETIC ALGORITHM (LGA), with a maximum of 2500000 energy evaluations.

Final-Value: -13.926


	FINAL GENETIC ALGORITHM DOCKED STATE
	_______________________________________________


Detailed state:  trans 19.130 -12.834 1.143 quatxyzw -0.802120 0.147994 0.127076 0.564405 center 0.154 0.111 -0.146 ntor 7 177.1821 -85.2015 -117.4506 163.9777 8.4861 -167.6330 -161.6041
State:	 19.130 -12.834   1.143  -0.972  0.179  0.154 111.278    177.18  -85.20 -117.45  163.98    8.49 -167.63 -161.60

DOCKED: MODEL       36
DOCKED: USER    Run = 36
DOCKED: USER    DPF = ligand_dock.biased.dpf
DOCKED: USER  
DOCKED: USER    Estimated Free Energy of Binding    =  -10.85 kcal/mol  [=(1)+(2)+(3)-(4)]
DOCKED: USER    Estimated Inhibition Constant, Ki   =   11.11 nM (nanomolar)  [Temperature = 298.15 K]
DOCKED: USER    
DOCKED: USER    (1) Final Intermolecular Energy     =  -12.94 kcal/mol
DOCKED: USER        vdW + Hbond + desolv Energy     =  -12.94 kcal/mol
DOCKED: USER        Electrostatic Energy            =   +0.00 kcal/mol
DOCKED: USER    (2) Final Total Internal Energy     =   -0.99 kcal/mol
DOCKED: USER    (3) Torsional Free Energy           =   +2.09 kcal/mol
DOCKED: USER    (4) Unbound System's Energy  [=(2)] =   -0.99 kcal/mol
DOCKED: USER    
DOCKED: USER    
DOCKED: USER    NEWDPF move ligand.pdbqt
DOCKED: USER    NEWDPF about 0.154000 0.111000 -0.146000
DOCKED: USER    NEWDPF tran0 19.130396 -12.834032 1.143152
DOCKED: USER    NEWDPF quaternion0 -0.802120 0.147994 0.127076 0.564405
DOCKED: USER    NEWDPF axisangle0 -0.971680 0.179279 0.153938 111.278047
DOCKED: USER    NEWDPF quat0 -0.971680 0.179279 0.153938 111.278047
DOCKED: USER    NEWDPF dihe0 177.18 -85.20 -117.45 163.98 8.49 -167.63 -161.60 
DOCKED: USER  keepresnum = 1 
DOCKED: USER  
DOCKED: REMARK  Name = 
DOCKED: REMARK  7 active torsions:
DOCKED: REMARK  status: ('A' for Active; 'I' for Inactive)
DOCKED: REMARK    1  A    between atoms: C_2  and  C_5
DOCKED: REMARK    2  A    between atoms: N_3  and  O_4
DOCKED: REMARK    3  A    between atoms: C_5  and  C_6
DOCKED: REMARK    4  A    between atoms: C_6  and  C_7
DOCKED: REMARK    5  A    between atoms: C_7  and  C_8
DOCKED: REMARK    6  A    between atoms: C_8  and  C_9
DOCKED: REMARK    7  A    between atoms: C_9  and  N_10
DOCKED: REMARK                            x       y       z     vdW  Elec       q    Type
DOCKED: REMARK                         _______ _______ _______ _____ _____    ______ ____
DOCKED: USER                              x       y       z     vdW  Elec       q    Type
DOCKED: USER                           _______ _______ _______ _____ _____    ______ ____
DOCKED: ROOT
DOCKED: ATOM      1  N   UNL     1      19.059 -11.363   0.869 -0.51 -0.00    +0.000 N 
DOCKED: ATOM      2  C   UNL     1      18.548 -10.858   2.118 -0.58 -0.00    +0.000 C 
DOCKED: ATOM      3  C   UNL     1      17.094 -10.899   2.396 -0.43 +0.00    +0.000 A 
DOCKED: ATOM      4  C   UNL     1      16.589 -10.433   3.623 -0.37 +0.00    +0.000 A 
DOCKED: ATOM      5  C   UNL     1      15.219 -10.473   3.887 -0.45 +0.00    +0.000 A 
DOCKED: ATOM      6  C   UNL     1      14.333 -10.978   2.935 -0.38 +0.00    +0.000 A 
DOCKED: ATOM      7  C   UNL     1      14.813 -11.448   1.705 -0.40 +0.00    +0.000 A 
DOCKED: ATOM      8  C   UNL     1      13.923 -11.954   0.747 -0.41 +0.00    +0.000 A 
DOCKED: ATOM      9  C   UNL     1      14.400 -12.420  -0.478 -0.40 +0.00    +0.000 A 
DOCKED: ATOM     10  C   UNL     1      15.765 -12.387  -0.761 -0.33 +0.00    +0.000 A 
DOCKED: ATOM     11  C   UNL     1      16.679 -11.885   0.183 -0.42 +0.00    +0.000 A 
DOCKED: ATOM     12  C   UNL     1      16.204 -11.411   1.426 -0.38 +0.00    +0.000 A 
DOCKED: ATOM     13  O   UNL     1      19.340 -10.380   2.977 -0.72 -0.00    +0.000 OA
DOCKED: ATOM     14  C   UNL     1      18.129 -11.852  -0.117 -0.52 -0.00    +0.000 C 
DOCKED: ATOM     15  O   UNL     1      18.545 -12.252  -1.239 -0.38 -0.00    +0.000 OA
DOCKED: ENDROOT
DOCKED: BRANCH   1  16
DOCKED: ATOM     16  C   UNL     1      20.511 -11.406   0.628 -0.65 -0.00    +0.000 C 
DOCKED: BRANCH  16  17
DOCKED: ATOM     17  C   UNL     1      21.034 -10.067   0.081 -0.70 -0.00    +0.000 C 
DOCKED: BRANCH  17  18
DOCKED: ATOM     18  C   UNL     1      21.335 -10.077  -1.430 -0.64 -0.00    +0.000 C 
DOCKED: BRANCH  18  19
DOCKED: ATOM     19  C   UNL     1      20.091  -9.976  -2.337 -0.47 -0.00    +0.000 C 
DOCKED: BRANCH  19  20
DOCKED: ATOM     20  C   UNL     1      20.021 -11.037  -3.446 -0.45 -0.00    +0.000 C 
DOCKED: BRANCH  20  22
DOCKED: ATOM     21  O   UNL     1      22.113 -10.125  -4.157 -0.46 -0.00    +0.000 OA
DOCKED: ATOM     22  C   UNL     1      21.250 -11.031  -4.309 -0.51 -0.00    +0.000 C 
DOCKED: ATOM     23  N   UNL     1      21.430 -12.024  -5.322 -0.53 -0.00    +0.000 N 
DOCKED: ATOM     24  H   UNL     1      20.751 -12.726  -5.443 -0.61 -0.00    +0.000 HD
DOCKED: BRANCH  23  25
DOCKED: ATOM     25  O   UNL     1      22.527 -12.007  -6.116 -0.66 -0.00    +0.000 OA
DOCKED: ATOM     26  H   UNL     1      22.507 -12.773  -6.712 -0.58 -0.00    +0.000 HD
DOCKED: ENDBRANCH  23  25
DOCKED: ENDBRANCH  20  22
DOCKED: ENDBRANCH  19  20
DOCKED: ENDBRANCH  18  19
DOCKED: ENDBRANCH  17  18
DOCKED: ENDBRANCH  16  17
DOCKED: ENDBRANCH   1  16
DOCKED: TORSDOF 7
DOCKED: TER
DOCKED: ENDMDL
________________________________________________________________________________


	BEGINNING GENETIC ALGORITHM DOCKING 37 of 100
Run: 37 Seed: 37733334 1013020136 [ Run 37 of 100 GA/GALS ]
Beginning LAMARCKIAN GENETIC ALGORITHM (LGA), with a maximum of 2500000 energy evaluations.

Final-Value: -14.234


	FINAL GENETIC ALGORITHM DOCKED STATE
	_______________________________________________


Detailed state:  trans 19.640 -9.530 0.241 quatxyzw -0.327094 0.075698 0.238601 -0.911235 center 0.154 0.111 -0.146 ntor 7 -0.1806 98.4028 76.7271 -159.2280 -93.5168 -141.0169 29.2255
State:	 19.640  -9.530   0.241  -0.794  0.184  0.579 -48.647     -0.18   98.40   76.73 -159.23  -93.52 -141.02   29.23

DOCKED: MODEL       37
DOCKED: USER    Run = 37
DOCKED: USER    DPF = ligand_dock.biased.dpf
DOCKED: USER  
DOCKED: USER    Estimated Free Energy of Binding    =   -9.72 kcal/mol  [=(1)+(2)+(3)-(4)]
DOCKED: USER    Estimated Inhibition Constant, Ki   =   75.08 nM (nanomolar)  [Temperature = 298.15 K]
DOCKED: USER    
DOCKED: USER    (1) Final Intermolecular Energy     =  -11.81 kcal/mol
DOCKED: USER        vdW + Hbond + desolv Energy     =  -11.81 kcal/mol
DOCKED: USER        Electrostatic Energy            =   +0.00 kcal/mol
DOCKED: USER    (2) Final Total Internal Energy     =   -2.43 kcal/mol
DOCKED: USER    (3) Torsional Free Energy           =   +2.09 kcal/mol
DOCKED: USER    (4) Unbound System's Energy  [=(2)] =   -2.43 kcal/mol
DOCKED: USER    
DOCKED: USER    
DOCKED: USER    NEWDPF move ligand.pdbqt
DOCKED: USER    NEWDPF about 0.154000 0.111000 -0.146000
DOCKED: USER    NEWDPF tran0 19.639703 -9.529756 0.240963
DOCKED: USER    NEWDPF quaternion0 -0.327094 0.075698 0.238601 -0.911235
DOCKED: USER    NEWDPF axisangle0 -0.794135 0.183784 0.579287 -48.646916
DOCKED: USER    NEWDPF quat0 -0.794135 0.183784 0.579287 -48.646916
DOCKED: USER    NEWDPF dihe0 -0.18 98.40 76.73 -159.23 -93.52 -141.02 29.23 
DOCKED: USER  keepresnum = 1 
DOCKED: USER  
DOCKED: REMARK  Name = 
DOCKED: REMARK  7 active torsions:
DOCKED: REMARK  status: ('A' for Active; 'I' for Inactive)
DOCKED: REMARK    1  A    between atoms: C_2  and  C_5
DOCKED: REMARK    2  A    between atoms: N_3  and  O_4
DOCKED: REMARK    3  A    between atoms: C_5  and  C_6
DOCKED: REMARK    4  A    between atoms: C_6  and  C_7
DOCKED: REMARK    5  A    between atoms: C_7  and  C_8
DOCKED: REMARK    6  A    between atoms: C_8  and  C_9
DOCKED: REMARK    7  A    between atoms: C_9  and  N_10
DOCKED: REMARK                            x       y       z     vdW  Elec       q    Type
DOCKED: REMARK                         _______ _______ _______ _____ _____    ______ ____
DOCKED: USER                              x       y       z     vdW  Elec       q    Type
DOCKED: USER                           _______ _______ _______ _____ _____    ______ ____
DOCKED: ROOT
DOCKED: ATOM      1  N   UNL     1      19.471 -10.985  -0.073 -0.49 -0.00    +0.000 N 
DOCKED: ATOM      2  C   UNL     1      18.346 -10.961  -0.972 -0.43 -0.00    +0.000 C 
DOCKED: ATOM      3  C   UNL     1      16.968 -10.894  -0.435 -0.32 -0.00    +0.000 A 
DOCKED: ATOM      4  C   UNL     1      15.864 -10.845  -1.306 -0.28 -0.00    +0.000 A 
DOCKED: ATOM      5  C   UNL     1      14.565 -10.779  -0.801 -0.28 +0.00    +0.000 A 
DOCKED: ATOM      6  C   UNL     1      14.345 -10.763   0.576 -0.27 +0.00    +0.000 A 
DOCKED: ATOM      7  C   UNL     1      15.429 -10.812   1.464 -0.32 +0.00    +0.000 A 
DOCKED: ATOM      8  C   UNL     1      15.207 -10.797   2.849 -0.42 +0.00    +0.000 A 
DOCKED: ATOM      9  C   UNL     1      16.285 -10.848   3.732 -0.45 +0.00    +0.000 A 
DOCKED: ATOM     10  C   UNL     1      17.591 -10.914   3.247 -0.37 +0.00    +0.000 A 
DOCKED: ATOM     11  C   UNL     1      17.840 -10.931   1.863 -0.44 -0.00    +0.000 A 
DOCKED: ATOM     12  C   UNL     1      16.754 -10.879   0.961 -0.35 +0.00    +0.000 A 
DOCKED: ATOM     13  O   UNL     1      18.534 -10.998  -2.220 -0.39 -0.00    +0.000 OA
DOCKED: ATOM     14  C   UNL     1      19.227 -10.999   1.348 -0.62 -0.00    +0.000 C 
DOCKED: ATOM     15  O   UNL     1      20.192 -11.071   2.158 -1.08 -0.00    +0.000 OA
DOCKED: ENDROOT
DOCKED: BRANCH   1  16
DOCKED: ATOM     16  C   UNL     1      20.844 -10.960  -0.605 -0.48 -0.00    +0.000 C 
DOCKED: BRANCH  16  17
DOCKED: ATOM     17  C   UNL     1      21.499  -9.581  -0.414 -0.63 -0.00    +0.000 C 
DOCKED: BRANCH  17  18
DOCKED: ATOM     18  C   UNL     1      21.027  -8.514  -1.421 -0.51 -0.00    +0.000 C 
DOCKED: BRANCH  18  19
DOCKED: ATOM     19  C   UNL     1      20.488  -9.076  -2.752 -0.43 -0.00    +0.000 C 
DOCKED: BRANCH  19  20
DOCKED: ATOM     20  C   UNL     1      21.536  -9.184  -3.871 -0.39 -0.00    +0.000 C 
DOCKED: BRANCH  20  22
DOCKED: ATOM     21  O   UNL     1      22.143 -10.665  -5.647 -0.46 -0.00    +0.000 OA
DOCKED: ATOM     22  C   UNL     1      21.399 -10.461  -4.650 -0.49 -0.00    +0.000 C 
DOCKED: ATOM     23  N   UNL     1      20.409 -11.427  -4.289 -0.47 -0.00    +0.000 N 
DOCKED: ATOM     24  H   UNL     1      19.824 -11.261  -3.516 -0.02 -0.00    +0.000 HD
DOCKED: BRANCH  23  25
DOCKED: ATOM     25  O   UNL     1      20.268 -12.569  -5.004 -0.81 -0.00    +0.000 OA
DOCKED: ATOM     26  H   UNL     1      20.913 -12.578  -5.730 -0.61 -0.00    +0.000 HD
DOCKED: ENDBRANCH  23  25
DOCKED: ENDBRANCH  20  22
DOCKED: ENDBRANCH  19  20
DOCKED: ENDBRANCH  18  19
DOCKED: ENDBRANCH  17  18
DOCKED: ENDBRANCH  16  17
DOCKED: ENDBRANCH   1  16
DOCKED: TORSDOF 7
DOCKED: TER
DOCKED: ENDMDL
________________________________________________________________________________


	BEGINNING GENETIC ALGORITHM DOCKING 38 of 100
Run: 38 Seed: 252049856 1522206504 [ Run 38 of 100 GA/GALS ]
Beginning LAMARCKIAN GENETIC ALGORITHM (LGA), with a maximum of 2500000 energy evaluations.

Final-Value: -14.270


	FINAL GENETIC ALGORITHM DOCKED STATE
	_______________________________________________


Detailed state:  trans 19.142 -9.850 0.859 quatxyzw -0.459471 -0.005796 0.272779 -0.845248 center 0.154 0.111 -0.146 ntor 7 3.0700 -179.4193 -137.5643 -155.6166 75.6319 180.0000 1.3983
State:	 19.142  -9.850   0.859  -0.860 -0.011  0.510 -64.603      3.07 -179.42 -137.56 -155.62   75.63  180.00    1.40

DOCKED: MODEL       38
DOCKED: USER    Run = 38
DOCKED: USER    DPF = ligand_dock.biased.dpf
DOCKED: USER  
DOCKED: USER    Estimated Free Energy of Binding    =   -9.80 kcal/mol  [=(1)+(2)+(3)-(4)]
DOCKED: USER    Estimated Inhibition Constant, Ki   =   65.69 nM (nanomolar)  [Temperature = 298.15 K]
DOCKED: USER    
DOCKED: USER    (1) Final Intermolecular Energy     =  -11.89 kcal/mol
DOCKED: USER        vdW + Hbond + desolv Energy     =  -11.89 kcal/mol
DOCKED: USER        Electrostatic Energy            =   +0.00 kcal/mol
DOCKED: USER    (2) Final Total Internal Energy     =   -2.38 kcal/mol
DOCKED: USER    (3) Torsional Free Energy           =   +2.09 kcal/mol
DOCKED: USER    (4) Unbound System's Energy  [=(2)] =   -2.38 kcal/mol
DOCKED: USER    
DOCKED: USER    
DOCKED: USER    NEWDPF move ligand.pdbqt
DOCKED: USER    NEWDPF about 0.154000 0.111000 -0.146000
DOCKED: USER    NEWDPF tran0 19.142177 -9.850110 0.858516
DOCKED: USER    NEWDPF quaternion0 -0.459471 -0.005796 0.272779 -0.845248
DOCKED: USER    NEWDPF axisangle0 -0.859830 -0.010846 0.510465 -64.602924
DOCKED: USER    NEWDPF quat0 -0.859830 -0.010846 0.510465 -64.602924
DOCKED: USER    NEWDPF dihe0 3.07 -179.42 -137.56 -155.62 75.63 180.00 1.40 
DOCKED: USER  keepresnum = 1 
DOCKED: USER  
DOCKED: REMARK  Name = 
DOCKED: REMARK  7 active torsions:
DOCKED: REMARK  status: ('A' for Active; 'I' for Inactive)
DOCKED: REMARK    1  A    between atoms: C_2  and  C_5
DOCKED: REMARK    2  A    between atoms: N_3  and  O_4
DOCKED: REMARK    3  A    between atoms: C_5  and  C_6
DOCKED: REMARK    4  A    between atoms: C_6  and  C_7
DOCKED: REMARK    5  A    between atoms: C_7  and  C_8
DOCKED: REMARK    6  A    between atoms: C_8  and  C_9
DOCKED: REMARK    7  A    between atoms: C_9  and  N_10
DOCKED: REMARK                            x       y       z     vdW  Elec       q    Type
DOCKED: REMARK                         _______ _______ _______ _____ _____    ______ ____
DOCKED: USER                              x       y       z     vdW  Elec       q    Type
DOCKED: USER                           _______ _______ _______ _____ _____    ______ ____
DOCKED: ROOT
DOCKED: ATOM      1  N   UNL     1      19.249 -11.344   0.899 -0.53 -0.00    +0.000 N 
DOCKED: ATOM      2  C   UNL     1      18.331 -11.730  -0.142 -0.52 -0.00    +0.000 C 
DOCKED: ATOM      3  C   UNL     1      16.879 -11.804   0.138 -0.41 +0.00    +0.000 A 
DOCKED: ATOM      4  C   UNL     1      15.973 -12.155  -0.879 -0.25 +0.00    +0.000 A 
DOCKED: ATOM      5  C   UNL     1      14.603 -12.222  -0.617 -0.42 +0.00    +0.000 A 
DOCKED: ATOM      6  C   UNL     1      14.117 -11.942   0.660 -0.41 +0.00    +0.000 A 
DOCKED: ATOM      7  C   UNL     1      15.000 -11.590   1.690 -0.41 +0.00    +0.000 A 
DOCKED: ATOM      8  C   UNL     1      14.511 -11.310   2.974 -0.39 +0.00    +0.000 A 
DOCKED: ATOM      9  C   UNL     1      15.390 -10.963   3.999 -0.48 +0.00    +0.000 A 
DOCKED: ATOM     10  C   UNL     1      16.762 -10.890   3.757 -0.33 +0.00    +0.000 A 
DOCKED: ATOM     11  C   UNL     1      17.278 -11.166   2.478 -0.38 +0.00    +0.000 A 
DOCKED: ATOM     12  C   UNL     1      16.394 -11.519   1.434 -0.39 +0.00    +0.000 A 
DOCKED: ATOM     13  O   UNL     1      18.764 -12.007  -1.295 -0.46 -0.00    +0.000 OA
DOCKED: ATOM     14  C   UNL     1      18.734 -11.088   2.221 -0.60 -0.00    +0.000 C 
DOCKED: ATOM     15  O   UNL     1      19.521 -10.798   3.164 -0.79 -0.00    +0.000 OA
DOCKED: ENDROOT
DOCKED: BRANCH   1  16
DOCKED: ATOM     16  C   UNL     1      20.681 -11.182   0.600 -0.70 -0.00    +0.000 C 
DOCKED: BRANCH  16  17
DOCKED: ATOM     17  C   UNL     1      20.961  -9.853  -0.123 -0.69 -0.00    +0.000 C 
DOCKED: BRANCH  17  18
DOCKED: ATOM     18  C   UNL     1      21.512 -10.015  -1.553 -0.54 -0.00    +0.000 C 
DOCKED: BRANCH  18  19
DOCKED: ATOM     19  C   UNL     1      21.031  -8.947  -2.555 -0.50 -0.00    +0.000 C 
DOCKED: BRANCH  19  20
DOCKED: ATOM     20  C   UNL     1      19.729  -9.302  -3.292 -0.32 -0.00    +0.000 C 
DOCKED: BRANCH  20  22
DOCKED: ATOM     21  O   UNL     1      20.020  -9.961  -5.571 -0.26 -0.00    +0.000 OA
DOCKED: ATOM     22  C   UNL     1      19.952 -10.327  -4.367 -0.40 -0.00    +0.000 C 
DOCKED: ATOM     23  N   UNL     1      20.054 -11.714  -4.035 -0.42 -0.00    +0.000 N 
DOCKED: ATOM     24  H   UNL     1      19.993 -11.997  -3.095 -0.02 -0.00    +0.000 HD
DOCKED: BRANCH  23  25
DOCKED: ATOM     25  O   UNL     1      20.233 -12.642  -5.006 -0.78 -0.00    +0.000 OA
DOCKED: ATOM     26  H   UNL     1      20.320 -12.199  -5.865 -0.48 -0.00    +0.000 HD
DOCKED: ENDBRANCH  23  25
DOCKED: ENDBRANCH  20  22
DOCKED: ENDBRANCH  19  20
DOCKED: ENDBRANCH  18  19
DOCKED: ENDBRANCH  17  18
DOCKED: ENDBRANCH  16  17
DOCKED: ENDBRANCH   1  16
DOCKED: TORSDOF 7
DOCKED: TER
DOCKED: ENDMDL
________________________________________________________________________________


	BEGINNING GENETIC ALGORITHM DOCKING 39 of 100
Run: 39 Seed: 1192736040 1422968319 [ Run 39 of 100 GA/GALS ]
Beginning LAMARCKIAN GENETIC ALGORITHM (LGA), with a maximum of 2500000 energy evaluations.

Final-Value: -14.470


	FINAL GENETIC ALGORITHM DOCKED STATE
	_______________________________________________


Detailed state:  trans 19.248 -12.849 1.176 quatxyzw 0.827171 -0.147865 -0.107780 -0.531326 center 0.154 0.111 -0.146 ntor 7 -3.2938 79.7454 -128.8989 -174.5598 68.1786 -167.7881 179.5781
State:	 19.248 -12.849   1.176   0.976 -0.175 -0.127 -115.810     -3.29   79.75 -128.90 -174.56   68.18 -167.79  179.58

DOCKED: MODEL       39
DOCKED: USER    Run = 39
DOCKED: USER    DPF = ligand_dock.biased.dpf
DOCKED: USER  
DOCKED: USER    Estimated Free Energy of Binding    =  -10.67 kcal/mol  [=(1)+(2)+(3)-(4)]
DOCKED: USER    Estimated Inhibition Constant, Ki   =   15.04 nM (nanomolar)  [Temperature = 298.15 K]
DOCKED: USER    
DOCKED: USER    (1) Final Intermolecular Energy     =  -12.76 kcal/mol
DOCKED: USER        vdW + Hbond + desolv Energy     =  -12.76 kcal/mol
DOCKED: USER        Electrostatic Energy            =   +0.00 kcal/mol
DOCKED: USER    (2) Final Total Internal Energy     =   -1.71 kcal/mol
DOCKED: USER    (3) Torsional Free Energy           =   +2.09 kcal/mol
DOCKED: USER    (4) Unbound System's Energy  [=(2)] =   -1.71 kcal/mol
DOCKED: USER    
DOCKED: USER    
DOCKED: USER    NEWDPF move ligand.pdbqt
DOCKED: USER    NEWDPF about 0.154000 0.111000 -0.146000
DOCKED: USER    NEWDPF tran0 19.247817 -12.848866 1.175609
DOCKED: USER    NEWDPF quaternion0 0.827171 -0.147865 -0.107780 -0.531326
DOCKED: USER    NEWDPF axisangle0 0.976396 -0.174541 -0.127224 -115.809835
DOCKED: USER    NEWDPF quat0 0.976396 -0.174541 -0.127224 -115.809835
DOCKED: USER    NEWDPF dihe0 -3.29 79.75 -128.90 -174.56 68.18 -167.79 179.58 
DOCKED: USER  keepresnum = 1 
DOCKED: USER  
DOCKED: REMARK  Name = 
DOCKED: REMARK  7 active torsions:
DOCKED: REMARK  status: ('A' for Active; 'I' for Inactive)
DOCKED: REMARK    1  A    between atoms: C_2  and  C_5
DOCKED: REMARK    2  A    between atoms: N_3  and  O_4
DOCKED: REMARK    3  A    between atoms: C_5  and  C_6
DOCKED: REMARK    4  A    between atoms: C_6  and  C_7
DOCKED: REMARK    5  A    between atoms: C_7  and  C_8
DOCKED: REMARK    6  A    between atoms: C_8  and  C_9
DOCKED: REMARK    7  A    between atoms: C_9  and  N_10
DOCKED: REMARK                            x       y       z     vdW  Elec       q    Type
DOCKED: REMARK                         _______ _______ _______ _____ _____    ______ ____
DOCKED: USER                              x       y       z     vdW  Elec       q    Type
DOCKED: USER                           _______ _______ _______ _____ _____    ______ ____
DOCKED: ROOT
DOCKED: ATOM      1  N   UNL     1      19.156 -11.363   1.010 -0.53 -0.00    +0.000 N 
DOCKED: ATOM      2  C   UNL     1      18.577 -10.965   2.268 -0.59 -0.00    +0.000 C 
DOCKED: ATOM      3  C   UNL     1      17.113 -11.055   2.472 -0.40 +0.00    +0.000 A 
DOCKED: ATOM      4  C   UNL     1      16.541 -10.692   3.704 -0.39 +0.00    +0.000 A 
DOCKED: ATOM      5  C   UNL     1      15.161 -10.779   3.899 -0.45 +0.00    +0.000 A 
DOCKED: ATOM      6  C   UNL     1      14.332 -11.227   2.871 -0.39 +0.00    +0.000 A 
DOCKED: ATOM      7  C   UNL     1      14.879 -11.593   1.633 -0.41 +0.00    +0.000 A 
DOCKED: ATOM      8  C   UNL     1      14.045 -12.041   0.599 -0.41 +0.00    +0.000 A 
DOCKED: ATOM      9  C   UNL     1      14.589 -12.403  -0.633 -0.42 +0.00    +0.000 A 
DOCKED: ATOM     10  C   UNL     1      15.965 -12.323  -0.848 -0.23 +0.00    +0.000 A 
DOCKED: ATOM     11  C   UNL     1      16.822 -11.877   0.174 -0.42 +0.00    +0.000 A 
DOCKED: ATOM     12  C   UNL     1      16.280 -11.508   1.425 -0.39 +0.00    +0.000 A 
DOCKED: ATOM     13  O   UNL     1      19.316 -10.538   3.197 -0.72 -0.00    +0.000 OA
DOCKED: ATOM     14  C   UNL     1      18.283 -11.793  -0.054 -0.53 -0.00    +0.000 C 
DOCKED: ATOM     15  O   UNL     1      18.760 -12.099  -1.181 -0.45 -0.00    +0.000 OA
DOCKED: ENDROOT
DOCKED: BRANCH   1  16
DOCKED: ATOM     16  C   UNL     1      20.618 -11.360   0.836 -0.70 -0.00    +0.000 C 
DOCKED: BRANCH  16  17
DOCKED: ATOM     17  C   UNL     1      21.084 -10.162  -0.009 -0.70 -0.00    +0.000 C 
DOCKED: BRANCH  17  18
DOCKED: ATOM     18  C   UNL     1      21.464 -10.521  -1.458 -0.60 -0.00    +0.000 C 
DOCKED: BRANCH  18  19
DOCKED: ATOM     19  C   UNL     1      20.953  -9.530  -2.524 -0.54 -0.00    +0.000 C 
DOCKED: BRANCH  19  20
DOCKED: ATOM     20  C   UNL     1      19.810 -10.067  -3.401 -0.41 -0.00    +0.000 C 
DOCKED: BRANCH  20  22
DOCKED: ATOM     21  O   UNL     1      19.413 -12.009  -4.736 -0.57 -0.00    +0.000 OA
DOCKED: ATOM     22  C   UNL     1      20.262 -11.194  -4.285 -0.51 -0.00    +0.000 C 
DOCKED: ATOM     23  N   UNL     1      21.648 -11.366  -4.589 -0.51 -0.00    +0.000 N 
DOCKED: ATOM     24  H   UNL     1      22.309 -10.733  -4.229 -0.04 -0.00    +0.000 HD
DOCKED: BRANCH  23  25
DOCKED: ATOM     25  O   UNL     1      22.059 -12.395  -5.368 -0.82 -0.00    +0.000 OA
DOCKED: ATOM     26  H   UNL     1      21.298 -12.952  -5.597 -0.63 -0.00    +0.000 HD
DOCKED: ENDBRANCH  23  25
DOCKED: ENDBRANCH  20  22
DOCKED: ENDBRANCH  19  20
DOCKED: ENDBRANCH  18  19
DOCKED: ENDBRANCH  17  18
DOCKED: ENDBRANCH  16  17
DOCKED: ENDBRANCH   1  16
DOCKED: TORSDOF 7
DOCKED: TER
DOCKED: ENDMDL
________________________________________________________________________________


	BEGINNING GENETIC ALGORITHM DOCKING 40 of 100
Run: 40 Seed: 1338962518 2077986532 [ Run 40 of 100 GA/GALS ]
Beginning LAMARCKIAN GENETIC ALGORITHM (LGA), with a maximum of 2500000 energy evaluations.

Final-Value: -12.904


	FINAL GENETIC ALGORITHM DOCKED STATE
	_______________________________________________


Detailed state:  trans 14.420 -12.396 2.576 quatxyzw -0.737828 0.346622 0.243670 0.525441 center 0.154 0.111 -0.146 ntor 7 7.4235 -49.2362 -4.4517 -47.7632 139.4323 168.7266 180.0000
State:	 14.420 -12.396   2.576  -0.867  0.407  0.286 116.604      7.42  -49.24   -4.45  -47.76  139.43  168.73  180.00

DOCKED: MODEL       40
DOCKED: USER    Run = 40
DOCKED: USER    DPF = ligand_dock.biased.dpf
DOCKED: USER  
DOCKED: USER    Estimated Free Energy of Binding    =   -9.45 kcal/mol  [=(1)+(2)+(3)-(4)]
DOCKED: USER    Estimated Inhibition Constant, Ki   =  118.72 nM (nanomolar)  [Temperature = 298.15 K]
DOCKED: USER    
DOCKED: USER    (1) Final Intermolecular Energy     =  -11.54 kcal/mol
DOCKED: USER        vdW + Hbond + desolv Energy     =  -11.54 kcal/mol
DOCKED: USER        Electrostatic Energy            =   +0.00 kcal/mol
DOCKED: USER    (2) Final Total Internal Energy     =   -1.37 kcal/mol
DOCKED: USER    (3) Torsional Free Energy           =   +2.09 kcal/mol
DOCKED: USER    (4) Unbound System's Energy  [=(2)] =   -1.37 kcal/mol
DOCKED: USER    
DOCKED: USER    
DOCKED: USER    NEWDPF move ligand.pdbqt
DOCKED: USER    NEWDPF about 0.154000 0.111000 -0.146000
DOCKED: USER    NEWDPF tran0 14.419715 -12.396139 2.575581
DOCKED: USER    NEWDPF quaternion0 -0.737828 0.346622 0.243670 0.525441
DOCKED: USER    NEWDPF axisangle0 -0.867186 0.407393 0.286391 116.604145
DOCKED: USER    NEWDPF quat0 -0.867186 0.407393 0.286391 116.604145
DOCKED: USER    NEWDPF dihe0 7.42 -49.24 -4.45 -47.76 139.43 168.73 180.00 
DOCKED: USER  keepresnum = 1 
DOCKED: USER  
DOCKED: REMARK  Name = 
DOCKED: REMARK  7 active torsions:
DOCKED: REMARK  status: ('A' for Active; 'I' for Inactive)
DOCKED: REMARK    1  A    between atoms: C_2  and  C_5
DOCKED: REMARK    2  A    between atoms: N_3  and  O_4
DOCKED: REMARK    3  A    between atoms: C_5  and  C_6
DOCKED: REMARK    4  A    between atoms: C_6  and  C_7
DOCKED: REMARK    5  A    between atoms: C_7  and  C_8
DOCKED: REMARK    6  A    between atoms: C_8  and  C_9
DOCKED: REMARK    7  A    between atoms: C_9  and  N_10
DOCKED: REMARK                            x       y       z     vdW  Elec       q    Type
DOCKED: REMARK                         _______ _______ _______ _____ _____    ______ ____
DOCKED: USER                              x       y       z     vdW  Elec       q    Type
DOCKED: USER                           _______ _______ _______ _____ _____    ______ ____
DOCKED: ROOT
DOCKED: ATOM      1  N   UNL     1      15.049 -11.070   2.274 -0.40 +0.00    +0.000 N 
DOCKED: ATOM      2  C   UNL     1      14.800 -10.345   3.493 -0.45 +0.00    +0.000 C 
DOCKED: ATOM      3  C   UNL     1      13.488  -9.697   3.717 -0.27 +0.00    +0.000 A 
DOCKED: ATOM      4  C   UNL     1      13.227  -9.008   4.915 -0.36 +0.00    +0.000 A 
DOCKED: ATOM      5  C   UNL     1      11.989  -8.399   5.129 -0.28 +0.00    +0.000 A 
DOCKED: ATOM      6  C   UNL     1      10.995  -8.465   4.152 -0.16 +0.00    +0.000 A 
DOCKED: ATOM      7  C   UNL     1      11.232  -9.145   2.950 -0.10 +0.00    +0.000 A 
DOCKED: ATOM      8  C   UNL     1      10.232  -9.211   1.968 -0.12 +0.00    +0.000 A 
DOCKED: ATOM      9  C   UNL     1      10.468  -9.885   0.771 -0.16 +0.00    +0.000 A 
DOCKED: ATOM     10  C   UNL     1      11.699 -10.500   0.539 -0.25 +0.00    +0.000 A 
DOCKED: ATOM     11  C   UNL     1      12.717 -10.449   1.507 -0.25 +0.00    +0.000 A 
DOCKED: ATOM     12  C   UNL     1      12.486  -9.768   2.723 -0.16 +0.00    +0.000 A 
DOCKED: ATOM     13  O   UNL     1      15.701 -10.261   4.373 -0.54 +0.00    +0.000 OA
DOCKED: ATOM     14  C   UNL     1      14.023 -11.103   1.261 -0.38 +0.00    +0.000 C 
DOCKED: ATOM     15  O   UNL     1      14.232 -11.688   0.163 -0.42 +0.00    +0.000 OA
DOCKED: ENDROOT
DOCKED: BRANCH   1  16
DOCKED: ATOM     16  C   UNL     1      16.319 -11.792   2.088 -0.36 +0.00    +0.000 C 
DOCKED: BRANCH  16  17
DOCKED: ATOM     17  C   UNL     1      17.265 -11.035   1.140 -0.44 +0.00    +0.000 C 
DOCKED: BRANCH  17  18
DOCKED: ATOM     18  C   UNL     1      17.803 -11.885  -0.027 -0.51 -0.00    +0.000 C 
DOCKED: BRANCH  18  19
DOCKED: ATOM     19  C   UNL     1      19.187 -11.455  -0.555 -0.49 -0.00    +0.000 C 
DOCKED: BRANCH  19  20
DOCKED: ATOM     20  C   UNL     1      19.993 -10.573   0.411 -0.63 -0.00    +0.000 C 
DOCKED: BRANCH  20  22
DOCKED: ATOM     21  O   UNL     1      20.260 -12.500   1.799 -1.62 -0.00    +0.000 OA
DOCKED: ATOM     22  C   UNL     1      20.211 -11.242   1.738 -0.75 -0.00    +0.000 C 
DOCKED: ATOM     23  N   UNL     1      20.327 -10.465   2.932 -0.63 -0.00    +0.000 N 
DOCKED: ATOM     24  H   UNL     1      20.280  -9.483   2.882 -0.55 -0.00    +0.000 HD
DOCKED: BRANCH  23  25
DOCKED: ATOM     25  O   UNL     1      20.501 -11.068   4.132 -0.74 -0.00    +0.000 OA
DOCKED: ATOM     26  H   UNL     1      20.643 -12.019   3.999 -0.54 -0.00    +0.000 HD
DOCKED: ENDBRANCH  23  25
DOCKED: ENDBRANCH  20  22
DOCKED: ENDBRANCH  19  20
DOCKED: ENDBRANCH  18  19
DOCKED: ENDBRANCH  17  18
DOCKED: ENDBRANCH  16  17
DOCKED: ENDBRANCH   1  16
DOCKED: TORSDOF 7
DOCKED: TER
DOCKED: ENDMDL
________________________________________________________________________________


	BEGINNING GENETIC ALGORITHM DOCKING 41 of 100
Run: 41 Seed: 1185571651 356231922 [ Run 41 of 100 GA/GALS ]
Beginning LAMARCKIAN GENETIC ALGORITHM (LGA), with a maximum of 2500000 energy evaluations.

Final-Value: -13.819


	FINAL GENETIC ALGORITHM DOCKED STATE
	_______________________________________________


Detailed state:  trans 20.594 -9.023 -1.352 quatxyzw 0.213903 -0.270831 -0.401871 0.848172 center 0.154 0.111 -0.146 ntor 7 -27.2535 176.1775 -123.9216 48.6537 -135.1197 167.2054 1.7773
State:	 20.594  -9.023  -1.352   0.404 -0.511 -0.759 63.973    -27.25  176.18 -123.92   48.65 -135.12  167.21    1.78

DOCKED: MODEL       41
DOCKED: USER    Run = 41
DOCKED: USER    DPF = ligand_dock.biased.dpf
DOCKED: USER  
DOCKED: USER    Estimated Free Energy of Binding    =   -9.57 kcal/mol  [=(1)+(2)+(3)-(4)]
DOCKED: USER    Estimated Inhibition Constant, Ki   =   97.40 nM (nanomolar)  [Temperature = 298.15 K]
DOCKED: USER    
DOCKED: USER    (1) Final Intermolecular Energy     =  -11.65 kcal/mol
DOCKED: USER        vdW + Hbond + desolv Energy     =  -11.65 kcal/mol
DOCKED: USER        Electrostatic Energy            =   +0.00 kcal/mol
DOCKED: USER    (2) Final Total Internal Energy     =   -2.17 kcal/mol
DOCKED: USER    (3) Torsional Free Energy           =   +2.09 kcal/mol
DOCKED: USER    (4) Unbound System's Energy  [=(2)] =   -2.17 kcal/mol
DOCKED: USER    
DOCKED: USER    
DOCKED: USER    NEWDPF move ligand.pdbqt
DOCKED: USER    NEWDPF about 0.154000 0.111000 -0.146000
DOCKED: USER    NEWDPF tran0 20.594295 -9.022942 -1.352078
DOCKED: USER    NEWDPF quaternion0 0.213903 -0.270831 -0.401871 0.848172
DOCKED: USER    NEWDPF axisangle0 0.403803 -0.511271 -0.758646 63.973292
DOCKED: USER    NEWDPF quat0 0.403803 -0.511271 -0.758646 63.973292
DOCKED: USER    NEWDPF dihe0 -27.25 176.18 -123.92 48.65 -135.12 167.21 1.78 
DOCKED: USER  keepresnum = 1 
DOCKED: USER  
DOCKED: REMARK  Name = 
DOCKED: REMARK  7 active torsions:
DOCKED: REMARK  status: ('A' for Active; 'I' for Inactive)
DOCKED: REMARK    1  A    between atoms: C_2  and  C_5
DOCKED: REMARK    2  A    between atoms: N_3  and  O_4
DOCKED: REMARK    3  A    between atoms: C_5  and  C_6
DOCKED: REMARK    4  A    between atoms: C_6  and  C_7
DOCKED: REMARK    5  A    between atoms: C_7  and  C_8
DOCKED: REMARK    6  A    between atoms: C_8  and  C_9
DOCKED: REMARK    7  A    between atoms: C_9  and  N_10
DOCKED: REMARK                            x       y       z     vdW  Elec       q    Type
DOCKED: REMARK                         _______ _______ _______ _____ _____    ______ ____
DOCKED: USER                              x       y       z     vdW  Elec       q    Type
DOCKED: USER                           _______ _______ _______ _____ _____    ______ ____
DOCKED: ROOT
DOCKED: ATOM      1  N   UNL     1      20.509 -10.467  -1.742 -0.51 -0.00    +0.000 N 
DOCKED: ATOM      2  C   UNL     1      19.093 -10.629  -1.952 -0.42 -0.00    +0.000 C 
DOCKED: ATOM      3  C   UNL     1      18.194 -10.864  -0.799 -0.35 -0.00    +0.000 A 
DOCKED: ATOM      4  C   UNL     1      16.807 -10.999  -0.991 -0.29 -0.00    +0.000 A 
DOCKED: ATOM      5  C   UNL     1      15.959 -11.218   0.095 -0.33 +0.00    +0.000 A 
DOCKED: ATOM      6  C   UNL     1      16.478 -11.308   1.386 -0.38 +0.00    +0.000 A 
DOCKED: ATOM      7  C   UNL     1      17.856 -11.178   1.603 -0.44 -0.00    +0.000 A 
DOCKED: ATOM      8  C   UNL     1      18.378 -11.269   2.902 -0.41 -0.00    +0.000 A 
DOCKED: ATOM      9  C   UNL     1      19.749 -11.143   3.117 -0.65 -0.00    +0.000 A 
DOCKED: ATOM     10  C   UNL     1      20.615 -10.923   2.044 -0.59 -0.00    +0.000 A 
DOCKED: ATOM     11  C   UNL     1      20.116 -10.828   0.733 -0.59 -0.00    +0.000 A 
DOCKED: ATOM     12  C   UNL     1      18.728 -10.955   0.506 -0.46 -0.00    +0.000 A 
DOCKED: ATOM     13  O   UNL     1      18.617 -10.572  -3.120 -0.36 -0.00    +0.000 OA
DOCKED: ATOM     14  C   UNL     1      21.034 -10.593  -0.405 -0.68 -0.00    +0.000 C 
DOCKED: ATOM     15  O   UNL     1      22.276 -10.506  -0.200 -0.63 -0.00    +0.000 OA
DOCKED: ENDROOT
DOCKED: BRANCH   1  16
DOCKED: ATOM     16  C   UNL     1      21.392 -10.143  -2.875 -0.54 -0.00    +0.000 C 
DOCKED: BRANCH  16  17
DOCKED: ATOM     17  C   UNL     1      21.299  -8.656  -3.257 -0.43 -0.00    +0.000 C 
DOCKED: BRANCH  17  18
DOCKED: ATOM     18  C   UNL     1      21.042  -8.403  -4.755 -0.29 -0.00    +0.000 C 
DOCKED: BRANCH  18  19
DOCKED: ATOM     19  C   UNL     1      22.194  -8.832  -5.688 -0.26 -0.00    +0.000 C 
DOCKED: BRANCH  19  20
DOCKED: ATOM     20  C   UNL     1      21.845  -9.983  -6.645 -0.32 -0.00    +0.000 C 
DOCKED: BRANCH  20  22
DOCKED: ATOM     21  O   UNL     1      22.311 -12.198  -5.876 -0.68 -0.00    +0.000 OA
DOCKED: ATOM     22  C   UNL     1      21.490 -11.242  -5.906 -0.47 -0.00    +0.000 C 
DOCKED: ATOM     23  N   UNL     1      20.217 -11.373  -5.268 -0.46 -0.00    +0.000 N 
DOCKED: ATOM     24  H   UNL     1      19.576 -10.628  -5.301 -0.00 -0.00    +0.000 HD
DOCKED: BRANCH  23  25
DOCKED: ATOM     25  O   UNL     1      19.887 -12.516  -4.621 -0.70 -0.00    +0.000 OA
DOCKED: ATOM     26  H   UNL     1      20.371 -13.261  -5.012 -0.40 -0.00    +0.000 HD
DOCKED: ENDBRANCH  23  25
DOCKED: ENDBRANCH  20  22
DOCKED: ENDBRANCH  19  20
DOCKED: ENDBRANCH  18  19
DOCKED: ENDBRANCH  17  18
DOCKED: ENDBRANCH  16  17
DOCKED: ENDBRANCH   1  16
DOCKED: TORSDOF 7
DOCKED: TER
DOCKED: ENDMDL
________________________________________________________________________________


	BEGINNING GENETIC ALGORITHM DOCKING 42 of 100
Run: 42 Seed: 463578846 2042862160 [ Run 42 of 100 GA/GALS ]
Beginning LAMARCKIAN GENETIC ALGORITHM (LGA), with a maximum of 2500000 energy evaluations.

Final-Value: -13.750


	FINAL GENETIC ALGORITHM DOCKED STATE
	_______________________________________________


Detailed state:  trans 16.112 -10.114 -0.724 quatxyzw 0.072083 0.779601 0.613192 -0.104988 center 0.154 0.111 -0.146 ntor 7 6.0133 -31.4789 41.5912 -130.8303 64.1937 171.7558 -5.6343
State:	 16.112 -10.114  -0.724   0.072  0.784  0.617 -167.947      6.01  -31.48   41.59 -130.83   64.19  171.76   -5.63

DOCKED: MODEL       42
DOCKED: USER    Run = 42
DOCKED: USER    DPF = ligand_dock.biased.dpf
DOCKED: USER  
DOCKED: USER    Estimated Free Energy of Binding    =   -8.76 kcal/mol  [=(1)+(2)+(3)-(4)]
DOCKED: USER    Estimated Inhibition Constant, Ki   =  379.21 nM (nanomolar)  [Temperature = 298.15 K]
DOCKED: USER    
DOCKED: USER    (1) Final Intermolecular Energy     =  -10.85 kcal/mol
DOCKED: USER        vdW + Hbond + desolv Energy     =  -10.85 kcal/mol
DOCKED: USER        Electrostatic Energy            =   +0.00 kcal/mol
DOCKED: USER    (2) Final Total Internal Energy     =   -2.90 kcal/mol
DOCKED: USER    (3) Torsional Free Energy           =   +2.09 kcal/mol
DOCKED: USER    (4) Unbound System's Energy  [=(2)] =   -2.90 kcal/mol
DOCKED: USER    
DOCKED: USER    
DOCKED: USER    NEWDPF move ligand.pdbqt
DOCKED: USER    NEWDPF about 0.154000 0.111000 -0.146000
DOCKED: USER    NEWDPF tran0 16.111667 -10.114435 -0.724052
DOCKED: USER    NEWDPF quaternion0 0.072083 0.779601 0.613192 -0.104988
DOCKED: USER    NEWDPF axisangle0 0.072483 0.783933 0.616600 -167.947088
DOCKED: USER    NEWDPF quat0 0.072483 0.783933 0.616600 -167.947088
DOCKED: USER    NEWDPF dihe0 6.01 -31.48 41.59 -130.83 64.19 171.76 -5.63 
DOCKED: USER  keepresnum = 1 
DOCKED: USER  
DOCKED: REMARK  Name = 
DOCKED: REMARK  7 active torsions:
DOCKED: REMARK  status: ('A' for Active; 'I' for Inactive)
DOCKED: REMARK    1  A    between atoms: C_2  and  C_5
DOCKED: REMARK    2  A    between atoms: N_3  and  O_4
DOCKED: REMARK    3  A    between atoms: C_5  and  C_6
DOCKED: REMARK    4  A    between atoms: C_6  and  C_7
DOCKED: REMARK    5  A    between atoms: C_7  and  C_8
DOCKED: REMARK    6  A    between atoms: C_8  and  C_9
DOCKED: REMARK    7  A    between atoms: C_9  and  N_10
DOCKED: REMARK                            x       y       z     vdW  Elec       q    Type
DOCKED: REMARK                         _______ _______ _______ _____ _____    ______ ____
DOCKED: USER                              x       y       z     vdW  Elec       q    Type
DOCKED: USER                           _______ _______ _______ _____ _____    ______ ____
DOCKED: ROOT
DOCKED: ATOM      1  N   UNL     1      16.427 -11.526  -1.116 -0.27 -0.00    +0.000 N 
DOCKED: ATOM      2  C   UNL     1      16.930 -12.066   0.121 -0.50 +0.00    +0.000 C 
DOCKED: ATOM      3  C   UNL     1      18.340 -11.836   0.513 -0.49 -0.00    +0.000 A 
DOCKED: ATOM      4  C   UNL     1      18.833 -12.338   1.730 -0.45 -0.00    +0.000 A 
DOCKED: ATOM      5  C   UNL     1      20.161 -12.120   2.102 -0.65 -0.00    +0.000 A 
DOCKED: ATOM      6  C   UNL     1      21.016 -11.401   1.267 -0.50 -0.00    +0.000 A 
DOCKED: ATOM      7  C   UNL     1      20.547 -10.891   0.048 -0.60 -0.00    +0.000 A 
DOCKED: ATOM      8  C   UNL     1      21.407 -10.169  -0.791 -0.62 -0.00    +0.000 A 
DOCKED: ATOM      9  C   UNL     1      20.942  -9.664  -2.005 -0.52 -0.00    +0.000 A 
DOCKED: ATOM     10  C   UNL     1      19.619  -9.872  -2.394 -0.30 -0.00    +0.000 A 
DOCKED: ATOM     11  C   UNL     1      18.736 -10.592  -1.570 -0.33 -0.00    +0.000 A 
DOCKED: ATOM     12  C   UNL     1      19.199 -11.107  -0.339 -0.47 -0.00    +0.000 A 
DOCKED: ATOM     13  O   UNL     1      16.170 -12.737   0.873 -1.08 +0.00    +0.000 OA
DOCKED: ATOM     14  C   UNL     1      17.331 -10.811  -1.983 -0.15 -0.00    +0.000 C 
DOCKED: ATOM     15  O   UNL     1      16.930 -10.372  -3.095 -0.28 -0.00    +0.000 OA
DOCKED: ENDROOT
DOCKED: BRANCH   1  16
DOCKED: ATOM     16  C   UNL     1      15.004 -11.675  -1.464 -0.37 +0.00    +0.000 C 
DOCKED: BRANCH  16  17
DOCKED: ATOM     17  C   UNL     1      14.108 -10.807  -0.564 -0.32 +0.00    +0.000 C 
DOCKED: BRANCH  17  18
DOCKED: ATOM     18  C   UNL     1      13.005 -11.590   0.174 -0.40 +0.00    +0.000 C 
DOCKED: BRANCH  18  19
DOCKED: ATOM     19  C   UNL     1      12.874 -11.262   1.675 -0.41 +0.00    +0.000 C 
DOCKED: BRANCH  19  20
DOCKED: ATOM     20  C   UNL     1      14.098 -11.646   2.522 -0.44 +0.00    +0.000 C 
DOCKED: BRANCH  20  22
DOCKED: ATOM     21  O   UNL     1      14.375  -9.408   3.314 -0.33 +0.00    +0.000 OA
DOCKED: ATOM     22  C   UNL     1      14.934 -10.451   2.879 -0.43 +0.00    +0.000 C 
DOCKED: ATOM     23  N   UNL     1      16.352 -10.477   2.697 -0.41 +0.00    +0.000 N 
DOCKED: ATOM     24  H   UNL     1      16.784 -11.289   2.350 -0.01 +0.00    +0.000 HD
DOCKED: BRANCH  23  25
DOCKED: ATOM     25  O   UNL     1      17.104  -9.392   2.997 -0.51 +0.00    +0.000 OA
DOCKED: ATOM     26  H   UNL     1      16.546  -8.715   3.413 -0.03 +0.00    +0.000 HD
DOCKED: ENDBRANCH  23  25
DOCKED: ENDBRANCH  20  22
DOCKED: ENDBRANCH  19  20
DOCKED: ENDBRANCH  18  19
DOCKED: ENDBRANCH  17  18
DOCKED: ENDBRANCH  16  17
DOCKED: ENDBRANCH   1  16
DOCKED: TORSDOF 7
DOCKED: TER
DOCKED: ENDMDL
________________________________________________________________________________


	BEGINNING GENETIC ALGORITHM DOCKING 43 of 100
Run: 43 Seed: 416160045 517546270 [ Run 43 of 100 GA/GALS ]
Beginning LAMARCKIAN GENETIC ALGORITHM (LGA), with a maximum of 2500000 energy evaluations.

Final-Value: -13.572


	FINAL GENETIC ALGORITHM DOCKED STATE
	_______________________________________________


Detailed state:  trans 16.213 -10.084 -0.745 quatxyzw -0.058157 -0.764077 -0.630763 0.122242 center 0.154 0.111 -0.146 ntor 7 12.9617 58.7869 7.4562 31.8146 -176.6202 -89.5824 18.5537
State:	 16.213 -10.084  -0.745  -0.059 -0.770 -0.636 165.957     12.96   58.79    7.46   31.81 -176.62  -89.58   18.55

DOCKED: MODEL       43
DOCKED: USER    Run = 43
DOCKED: USER    DPF = ligand_dock.biased.dpf
DOCKED: USER  
DOCKED: USER    Estimated Free Energy of Binding    =   -8.80 kcal/mol  [=(1)+(2)+(3)-(4)]
DOCKED: USER    Estimated Inhibition Constant, Ki   =  352.82 nM (nanomolar)  [Temperature = 298.15 K]
DOCKED: USER    
DOCKED: USER    (1) Final Intermolecular Energy     =  -10.89 kcal/mol
DOCKED: USER        vdW + Hbond + desolv Energy     =  -10.89 kcal/mol
DOCKED: USER        Electrostatic Energy            =   +0.00 kcal/mol
DOCKED: USER    (2) Final Total Internal Energy     =   -2.68 kcal/mol
DOCKED: USER    (3) Torsional Free Energy           =   +2.09 kcal/mol
DOCKED: USER    (4) Unbound System's Energy  [=(2)] =   -2.68 kcal/mol
DOCKED: USER    
DOCKED: USER    
DOCKED: USER    NEWDPF move ligand.pdbqt
DOCKED: USER    NEWDPF about 0.154000 0.111000 -0.146000
DOCKED: USER    NEWDPF tran0 16.213098 -10.084264 -0.745398
DOCKED: USER    NEWDPF quaternion0 -0.058157 -0.764077 -0.630763 0.122242
DOCKED: USER    NEWDPF axisangle0 -0.058597 -0.769850 -0.635529 165.956964
DOCKED: USER    NEWDPF quat0 -0.058597 -0.769850 -0.635529 165.956964
DOCKED: USER    NEWDPF dihe0 12.96 58.79 7.46 31.81 -176.62 -89.58 18.55 
DOCKED: USER  keepresnum = 1 
DOCKED: USER  
DOCKED: REMARK  Name = 
DOCKED: REMARK  7 active torsions:
DOCKED: REMARK  status: ('A' for Active; 'I' for Inactive)
DOCKED: REMARK    1  A    between atoms: C_2  and  C_5
DOCKED: REMARK    2  A    between atoms: N_3  and  O_4
DOCKED: REMARK    3  A    between atoms: C_5  and  C_6
DOCKED: REMARK    4  A    between atoms: C_6  and  C_7
DOCKED: REMARK    5  A    between atoms: C_7  and  C_8
DOCKED: REMARK    6  A    between atoms: C_8  and  C_9
DOCKED: REMARK    7  A    between atoms: C_9  and  N_10
DOCKED: REMARK                            x       y       z     vdW  Elec       q    Type
DOCKED: REMARK                         _______ _______ _______ _____ _____    ______ ____
DOCKED: USER                              x       y       z     vdW  Elec       q    Type
DOCKED: USER                           _______ _______ _______ _____ _____    ______ ____
DOCKED: ROOT
DOCKED: ATOM      1  N   UNL     1      16.552 -11.478  -1.178 -0.26 -0.00    +0.000 N 
DOCKED: ATOM      2  C   UNL     1      16.994 -12.068   0.059 -0.50 +0.00    +0.000 C 
DOCKED: ATOM      3  C   UNL     1      18.382 -11.853   0.530 -0.50 -0.00    +0.000 A 
DOCKED: ATOM      4  C   UNL     1      18.816 -12.404   1.748 -0.41 -0.00    +0.000 A 
DOCKED: ATOM      5  C   UNL     1      20.123 -12.200   2.194 -0.62 -0.00    +0.000 A 
DOCKED: ATOM      6  C   UNL     1      21.016 -11.446   1.433 -0.49 -0.00    +0.000 A 
DOCKED: ATOM      7  C   UNL     1      20.607 -10.887   0.214 -0.61 -0.00    +0.000 A 
DOCKED: ATOM      8  C   UNL     1      21.506 -10.131  -0.551 -0.61 -0.00    +0.000 A 
DOCKED: ATOM      9  C   UNL     1      21.100  -9.577  -1.765 -0.53 -0.00    +0.000 A 
DOCKED: ATOM     10  C   UNL     1      19.798  -9.770  -2.228 -0.31 -0.00    +0.000 A 
DOCKED: ATOM     11  C   UNL     1      18.878 -10.525  -1.478 -0.33 -0.00    +0.000 A 
DOCKED: ATOM     12  C   UNL     1      19.281 -11.089  -0.248 -0.48 -0.00    +0.000 A 
DOCKED: ATOM     13  O   UNL     1      16.200 -12.770   0.744 -1.12 +0.00    +0.000 OA
DOCKED: ATOM     14  C   UNL     1      17.496 -10.728  -1.969 -0.20 -0.00    +0.000 C 
DOCKED: ATOM     15  O   UNL     1      17.149 -10.243  -3.081 -0.29 -0.00    +0.000 OA
DOCKED: ENDROOT
DOCKED: BRANCH   1  16
DOCKED: ATOM     16  C   UNL     1      15.148 -11.615  -1.602 -0.32 +0.00    +0.000 C 
DOCKED: BRANCH  16  17
DOCKED: ATOM     17  C   UNL     1      14.306 -10.404  -1.166 -0.29 -0.00    +0.000 C 
DOCKED: BRANCH  17  18
DOCKED: ATOM     18  C   UNL     1      14.851  -9.668   0.073 -0.27 +0.00    +0.000 C 
DOCKED: BRANCH  18  19
DOCKED: ATOM     19  C   UNL     1      14.029  -9.877   1.362 -0.25 +0.00    +0.000 C 
DOCKED: BRANCH  19  20
DOCKED: ATOM     20  C   UNL     1      14.586 -10.954   2.307 -0.43 +0.00    +0.000 C 
DOCKED: BRANCH  20  22
DOCKED: ATOM     21  O   UNL     1      16.062 -10.745   4.174 -0.59 +0.00    +0.000 OA
DOCKED: ATOM     22  C   UNL     1      15.876 -10.530   2.947 -0.48 +0.00    +0.000 C 
DOCKED: ATOM     23  N   UNL     1      16.877  -9.854   2.181 -0.39 +0.00    +0.000 N 
DOCKED: ATOM     24  H   UNL     1      16.726  -9.680   1.225 -0.02 -0.00    +0.000 HD
DOCKED: BRANCH  23  25
DOCKED: ATOM     25  O   UNL     1      18.032  -9.451   2.762 -0.57 -0.00    +0.000 OA
DOCKED: ATOM     26  H   UNL     1      18.119  -9.868   3.634 -0.01 -0.00    +0.000 HD
DOCKED: ENDBRANCH  23  25
DOCKED: ENDBRANCH  20  22
DOCKED: ENDBRANCH  19  20
DOCKED: ENDBRANCH  18  19
DOCKED: ENDBRANCH  17  18
DOCKED: ENDBRANCH  16  17
DOCKED: ENDBRANCH   1  16
DOCKED: TORSDOF 7
DOCKED: TER
DOCKED: ENDMDL
________________________________________________________________________________


	BEGINNING GENETIC ALGORITHM DOCKING 44 of 100
Run: 44 Seed: 1765093632 1409825951 [ Run 44 of 100 GA/GALS ]
Beginning LAMARCKIAN GENETIC ALGORITHM (LGA), with a maximum of 2500000 energy evaluations.

Final-Value: -13.694


	FINAL GENETIC ALGORITHM DOCKED STATE
	_______________________________________________


Detailed state:  trans 18.570 -10.663 1.579 quatxyzw 0.194362 0.634659 0.167274 0.729007 center 0.154 0.111 -0.146 ntor 7 -113.4330 -129.4807 168.3801 -87.5648 46.8014 -67.4380 20.0576
State:	 18.570 -10.663   1.579   0.284  0.927  0.244 86.394   -113.43 -129.48  168.38  -87.56   46.80  -67.44   20.06

DOCKED: MODEL       44
DOCKED: USER    Run = 44
DOCKED: USER    DPF = ligand_dock.biased.dpf
DOCKED: USER  
DOCKED: USER    Estimated Free Energy of Binding    =   -9.32 kcal/mol  [=(1)+(2)+(3)-(4)]
DOCKED: USER    Estimated Inhibition Constant, Ki   =  146.87 nM (nanomolar)  [Temperature = 298.15 K]
DOCKED: USER    
DOCKED: USER    (1) Final Intermolecular Energy     =  -11.41 kcal/mol
DOCKED: USER        vdW + Hbond + desolv Energy     =  -11.41 kcal/mol
DOCKED: USER        Electrostatic Energy            =   +0.00 kcal/mol
DOCKED: USER    (2) Final Total Internal Energy     =   -2.28 kcal/mol
DOCKED: USER    (3) Torsional Free Energy           =   +2.09 kcal/mol
DOCKED: USER    (4) Unbound System's Energy  [=(2)] =   -2.28 kcal/mol
DOCKED: USER    
DOCKED: USER    
DOCKED: USER    NEWDPF move ligand.pdbqt
DOCKED: USER    NEWDPF about 0.154000 0.111000 -0.146000
DOCKED: USER    NEWDPF tran0 18.569924 -10.663308 1.578932
DOCKED: USER    NEWDPF quaternion0 0.194362 0.634659 0.167274 0.729007
DOCKED: USER    NEWDPF axisangle0 0.283945 0.927177 0.244372 86.393604
DOCKED: USER    NEWDPF quat0 0.283945 0.927177 0.244372 86.393604
DOCKED: USER    NEWDPF dihe0 -113.43 -129.48 168.38 -87.56 46.80 -67.44 20.06 
DOCKED: USER  keepresnum = 1 
DOCKED: USER  
DOCKED: REMARK  Name = 
DOCKED: REMARK  7 active torsions:
DOCKED: REMARK  status: ('A' for Active; 'I' for Inactive)
DOCKED: REMARK    1  A    between atoms: C_2  and  C_5
DOCKED: REMARK    2  A    between atoms: N_3  and  O_4
DOCKED: REMARK    3  A    between atoms: C_5  and  C_6
DOCKED: REMARK    4  A    between atoms: C_6  and  C_7
DOCKED: REMARK    5  A    between atoms: C_7  and  C_8
DOCKED: REMARK    6  A    between atoms: C_8  and  C_9
DOCKED: REMARK    7  A    between atoms: C_9  and  N_10
DOCKED: REMARK                            x       y       z     vdW  Elec       q    Type
DOCKED: REMARK                         _______ _______ _______ _____ _____    ______ ____
DOCKED: USER                              x       y       z     vdW  Elec       q    Type
DOCKED: USER                           _______ _______ _______ _____ _____    ______ ____
DOCKED: ROOT
DOCKED: ATOM      1  N   UNL     1      19.129 -11.866   0.882 -0.56 -0.00    +0.000 N 
DOCKED: ATOM      2  C   UNL     1      20.122 -11.271   0.025 -0.59 -0.00    +0.000 C 
DOCKED: ATOM      3  C   UNL     1      19.723 -10.677  -1.272 -0.44 -0.00    +0.000 A 
DOCKED: ATOM      4  C   UNL     1      20.681 -10.072  -2.105 -0.50 -0.00    +0.000 A 
DOCKED: ATOM      5  C   UNL     1      20.306  -9.510  -3.326 -0.37 -0.00    +0.000 A 
DOCKED: ATOM      6  C   UNL     1      18.973  -9.544  -3.736 -0.25 -0.00    +0.000 A 
DOCKED: ATOM      7  C   UNL     1      18.000 -10.142  -2.924 -0.23 -0.00    +0.000 A 
DOCKED: ATOM      8  C   UNL     1      16.661 -10.177  -3.337 -0.21 -0.00    +0.000 A 
DOCKED: ATOM      9  C   UNL     1      15.693 -10.775  -2.531 -0.18 -0.00    +0.000 A 
DOCKED: ATOM     10  C   UNL     1      16.048 -11.342  -1.307 -0.21 -0.00    +0.000 A 
DOCKED: ATOM     11  C   UNL     1      17.385 -11.320  -0.870 -0.32 -0.00    +0.000 A 
DOCKED: ATOM     12  C   UNL     1      18.371 -10.717  -1.681 -0.30 -0.00    +0.000 A 
DOCKED: ATOM     13  O   UNL     1      21.334 -11.255   0.377 -0.77 -0.00    +0.000 OA
DOCKED: ATOM     14  C   UNL     1      17.761 -11.921   0.430 -0.53 -0.00    +0.000 C 
DOCKED: ATOM     15  O   UNL     1      16.880 -12.482   1.139 -0.96 +0.00    +0.000 OA
DOCKED: ENDROOT
DOCKED: BRANCH   1  16
DOCKED: ATOM     16  C   UNL     1      19.509 -12.375   2.211 -0.64 -0.00    +0.000 C 
DOCKED: BRANCH  16  17
DOCKED: ATOM     17  C   UNL     1      19.239 -11.336   3.312 -0.64 -0.00    +0.000 C 
DOCKED: BRANCH  17  18
DOCKED: ATOM     18  C   UNL     1      18.724  -9.981   2.790 -0.54 -0.00    +0.000 C 
DOCKED: BRANCH  18  19
DOCKED: ATOM     19  C   UNL     1      17.294  -9.616   3.241 -0.23 +0.00    +0.000 C 
DOCKED: BRANCH  19  20
DOCKED: ATOM     20  C   UNL     1      16.436 -10.814   3.676 -0.50 +0.00    +0.000 C 
DOCKED: BRANCH  20  22
DOCKED: ATOM     21  O   UNL     1      14.378  -9.787   3.027 -0.33 +0.00    +0.000 OA
DOCKED: ATOM     22  C   UNL     1      15.096 -10.823   2.999 -0.49 +0.00    +0.000 C 
DOCKED: ATOM     23  N   UNL     1      14.617 -12.005   2.354 -0.51 +0.00    +0.000 N 
DOCKED: ATOM     24  H   UNL     1      15.176 -12.814   2.341 -0.10 +0.00    +0.000 HD
DOCKED: BRANCH  23  25
DOCKED: ATOM     25  O   UNL     1      13.399 -12.021   1.762 -0.51 +0.00    +0.000 OA
DOCKED: ATOM     26  H   UNL     1      12.812 -12.624   2.246 -0.48 +0.00    +0.000 HD
DOCKED: ENDBRANCH  23  25
DOCKED: ENDBRANCH  20  22
DOCKED: ENDBRANCH  19  20
DOCKED: ENDBRANCH  18  19
DOCKED: ENDBRANCH  17  18
DOCKED: ENDBRANCH  16  17
DOCKED: ENDBRANCH   1  16
DOCKED: TORSDOF 7
DOCKED: TER
DOCKED: ENDMDL
________________________________________________________________________________


	BEGINNING GENETIC ALGORITHM DOCKING 45 of 100
Run: 45 Seed: 1441389838 913242641 [ Run 45 of 100 GA/GALS ]
Beginning LAMARCKIAN GENETIC ALGORITHM (LGA), with a maximum of 2500000 energy evaluations.

Final-Value: -13.615


	FINAL GENETIC ALGORITHM DOCKED STATE
	_______________________________________________


Detailed state:  trans 16.259 -10.055 -0.799 quatxyzw 0.055425 0.756921 0.636159 -0.138923 center 0.154 0.111 -0.146 ntor 7 -2.6579 90.7275 72.1041 -179.6039 -149.0151 -30.1325 -4.5348
State:	 16.259 -10.055  -0.799   0.056  0.764  0.642 -164.029     -2.66   90.73   72.10 -179.60 -149.02  -30.13   -4.53

DOCKED: MODEL       45
DOCKED: USER    Run = 45
DOCKED: USER    DPF = ligand_dock.biased.dpf
DOCKED: USER  
DOCKED: USER    Estimated Free Energy of Binding    =   -8.77 kcal/mol  [=(1)+(2)+(3)-(4)]
DOCKED: USER    Estimated Inhibition Constant, Ki   =  369.98 nM (nanomolar)  [Temperature = 298.15 K]
DOCKED: USER    
DOCKED: USER    (1) Final Intermolecular Energy     =  -10.86 kcal/mol
DOCKED: USER        vdW + Hbond + desolv Energy     =  -10.86 kcal/mol
DOCKED: USER        Electrostatic Energy            =   +0.00 kcal/mol
DOCKED: USER    (2) Final Total Internal Energy     =   -2.75 kcal/mol
DOCKED: USER    (3) Torsional Free Energy           =   +2.09 kcal/mol
DOCKED: USER    (4) Unbound System's Energy  [=(2)] =   -2.75 kcal/mol
DOCKED: USER    
DOCKED: USER    
DOCKED: USER    NEWDPF move ligand.pdbqt
DOCKED: USER    NEWDPF about 0.154000 0.111000 -0.146000
DOCKED: USER    NEWDPF tran0 16.258976 -10.054739 -0.799248
DOCKED: USER    NEWDPF quaternion0 0.055425 0.756921 0.636159 -0.138923
DOCKED: USER    NEWDPF axisangle0 0.055967 0.764333 0.642388 -164.028888
DOCKED: USER    NEWDPF quat0 0.055967 0.764333 0.642388 -164.028888
DOCKED: USER    NEWDPF dihe0 -2.66 90.73 72.10 -179.60 -149.02 -30.13 -4.53 
DOCKED: USER  keepresnum = 1 
DOCKED: USER  
DOCKED: REMARK  Name = 
DOCKED: REMARK  7 active torsions:
DOCKED: REMARK  status: ('A' for Active; 'I' for Inactive)
DOCKED: REMARK    1  A    between atoms: C_2  and  C_5
DOCKED: REMARK    2  A    between atoms: N_3  and  O_4
DOCKED: REMARK    3  A    between atoms: C_5  and  C_6
DOCKED: REMARK    4  A    between atoms: C_6  and  C_7
DOCKED: REMARK    5  A    between atoms: C_7  and  C_8
DOCKED: REMARK    6  A    between atoms: C_8  and  C_9
DOCKED: REMARK    7  A    between atoms: C_9  and  N_10
DOCKED: REMARK                            x       y       z     vdW  Elec       q    Type
DOCKED: REMARK                         _______ _______ _______ _____ _____    ______ ____
DOCKED: USER                              x       y       z     vdW  Elec       q    Type
DOCKED: USER                           _______ _______ _______ _____ _____    ______ ____
DOCKED: ROOT
DOCKED: ATOM      1  N   UNL     1      16.589 -11.448  -1.242 -0.25 -0.00    +0.000 N 
DOCKED: ATOM      2  C   UNL     1      16.982 -12.063  -0.001 -0.49 +0.00    +0.000 C 
DOCKED: ATOM      3  C   UNL     1      18.358 -11.878   0.516 -0.50 -0.00    +0.000 A 
DOCKED: ATOM      4  C   UNL     1      18.744 -12.453   1.740 -0.33 -0.00    +0.000 A 
DOCKED: ATOM      5  C   UNL     1      20.039 -12.277   2.229 -0.61 -0.00    +0.000 A 
DOCKED: ATOM      6  C   UNL     1      20.968 -11.528   1.507 -0.52 -0.00    +0.000 A 
DOCKED: ATOM      7  C   UNL     1      20.607 -10.945   0.285 -0.61 -0.00    +0.000 A 
DOCKED: ATOM      8  C   UNL     1      21.541 -10.192  -0.441 -0.61 -0.00    +0.000 A 
DOCKED: ATOM      9  C   UNL     1      21.183  -9.614  -1.658 -0.54 -0.00    +0.000 A 
DOCKED: ATOM     10  C   UNL     1      19.893  -9.778  -2.164 -0.35 -0.00    +0.000 A 
DOCKED: ATOM     11  C   UNL     1      18.938 -10.529  -1.455 -0.34 -0.00    +0.000 A 
DOCKED: ATOM     12  C   UNL     1      19.293 -11.117  -0.221 -0.48 -0.00    +0.000 A 
DOCKED: ATOM     13  O   UNL     1      16.155 -12.761   0.649 -1.12 +0.00    +0.000 OA
DOCKED: ATOM     14  C   UNL     1      17.569 -10.702  -1.992 -0.21 -0.00    +0.000 C 
DOCKED: ATOM     15  O   UNL     1      17.265 -10.195  -3.107 -0.30 -0.00    +0.000 OA
DOCKED: ENDROOT
DOCKED: BRANCH   1  16
DOCKED: ATOM     16  C   UNL     1      15.197 -11.555  -1.712 -0.29 +0.00    +0.000 C 
DOCKED: BRANCH  16  17
DOCKED: ATOM     17  C   UNL     1      14.245 -10.700  -0.857 -0.31 +0.00    +0.000 C 
DOCKED: BRANCH  17  18
DOCKED: ATOM     18  C   UNL     1      14.871  -9.396  -0.327 -0.27 -0.00    +0.000 C 
DOCKED: BRANCH  18  19
DOCKED: ATOM     19  C   UNL     1      15.764  -9.570   0.919 -0.27 +0.00    +0.000 C 
DOCKED: BRANCH  19  20
DOCKED: ATOM     20  C   UNL     1      15.215  -8.912   2.195 -0.33 +0.00    +0.000 C 
DOCKED: BRANCH  20  22
DOCKED: ATOM     21  O   UNL     1      15.099  -9.367   4.539 -0.43 +0.00    +0.000 OA
DOCKED: ATOM     22  C   UNL     1      15.306  -9.826   3.384 -0.44 +0.00    +0.000 C 
DOCKED: ATOM     23  N   UNL     1      15.659 -11.201   3.215 -0.51 +0.00    +0.000 N 
DOCKED: ATOM     24  H   UNL     1      15.828 -11.555   2.313 -0.01 +0.00    +0.000 HD
DOCKED: BRANCH  23  25
DOCKED: ATOM     25  O   UNL     1      15.763 -12.021   4.288 -0.41 +0.00    +0.000 OA
DOCKED: ATOM     26  H   UNL     1      15.609 -11.513   5.100 -0.36 +0.00    +0.000 HD
DOCKED: ENDBRANCH  23  25
DOCKED: ENDBRANCH  20  22
DOCKED: ENDBRANCH  19  20
DOCKED: ENDBRANCH  18  19
DOCKED: ENDBRANCH  17  18
DOCKED: ENDBRANCH  16  17
DOCKED: ENDBRANCH   1  16
DOCKED: TORSDOF 7
DOCKED: TER
DOCKED: ENDMDL
________________________________________________________________________________


	BEGINNING GENETIC ALGORITHM DOCKING 46 of 100
Run: 46 Seed: 405513828 29889828 [ Run 46 of 100 GA/GALS ]
Beginning LAMARCKIAN GENETIC ALGORITHM (LGA), with a maximum of 2500000 energy evaluations.

Final-Value: -13.011


	FINAL GENETIC ALGORITHM DOCKED STATE
	_______________________________________________


Detailed state:  trans 16.899 -9.561 1.559 quatxyzw -0.296378 -0.840938 -0.295515 -0.343008 center 0.154 0.111 -0.146 ntor 7 -2.8392 -144.2512 164.1189 172.0388 142.2480 -150.1776 44.4478
State:	 16.899  -9.561   1.559  -0.316 -0.895 -0.315 -139.879     -2.84 -144.25  164.12  172.04  142.25 -150.18   44.45

DOCKED: MODEL       46
DOCKED: USER    Run = 46
DOCKED: USER    DPF = ligand_dock.biased.dpf
DOCKED: USER  
DOCKED: USER    Estimated Free Energy of Binding    =   -9.73 kcal/mol  [=(1)+(2)+(3)-(4)]
DOCKED: USER    Estimated Inhibition Constant, Ki   =   73.90 nM (nanomolar)  [Temperature = 298.15 K]
DOCKED: USER    
DOCKED: USER    (1) Final Intermolecular Energy     =  -11.82 kcal/mol
DOCKED: USER        vdW + Hbond + desolv Energy     =  -11.82 kcal/mol
DOCKED: USER        Electrostatic Energy            =   +0.00 kcal/mol
DOCKED: USER    (2) Final Total Internal Energy     =   -1.19 kcal/mol
DOCKED: USER    (3) Torsional Free Energy           =   +2.09 kcal/mol
DOCKED: USER    (4) Unbound System's Energy  [=(2)] =   -1.19 kcal/mol
DOCKED: USER    
DOCKED: USER    
DOCKED: USER    NEWDPF move ligand.pdbqt
DOCKED: USER    NEWDPF about 0.154000 0.111000 -0.146000
DOCKED: USER    NEWDPF tran0 16.899383 -9.560549 1.559450
DOCKED: USER    NEWDPF quaternion0 -0.296378 -0.840938 -0.295515 -0.343008
DOCKED: USER    NEWDPF axisangle0 -0.315520 -0.895251 -0.314601 -139.879475
DOCKED: USER    NEWDPF quat0 -0.315520 -0.895251 -0.314601 -139.879475
DOCKED: USER    NEWDPF dihe0 -2.84 -144.25 164.12 172.04 142.25 -150.18 44.45 
DOCKED: USER  keepresnum = 1 
DOCKED: USER  
DOCKED: REMARK  Name = 
DOCKED: REMARK  7 active torsions:
DOCKED: REMARK  status: ('A' for Active; 'I' for Inactive)
DOCKED: REMARK    1  A    between atoms: C_2  and  C_5
DOCKED: REMARK    2  A    between atoms: N_3  and  O_4
DOCKED: REMARK    3  A    between atoms: C_5  and  C_6
DOCKED: REMARK    4  A    between atoms: C_6  and  C_7
DOCKED: REMARK    5  A    between atoms: C_7  and  C_8
DOCKED: REMARK    6  A    between atoms: C_8  and  C_9
DOCKED: REMARK    7  A    between atoms: C_9  and  N_10
DOCKED: REMARK                            x       y       z     vdW  Elec       q    Type
DOCKED: REMARK                         _______ _______ _______ _____ _____    ______ ____
DOCKED: USER                              x       y       z     vdW  Elec       q    Type
DOCKED: USER                           _______ _______ _______ _____ _____    ______ ____
DOCKED: ROOT
DOCKED: ATOM      1  N   UNL     1      17.223 -11.024   1.569 -0.39 +0.00    +0.000 N 
DOCKED: ATOM      2  C   UNL     1      18.653 -11.005   1.738 -0.57 -0.00    +0.000 C 
DOCKED: ATOM      3  C   UNL     1      19.536 -10.794   0.567 -0.53 -0.00    +0.000 A 
DOCKED: ATOM      4  C   UNL     1      20.933 -10.749   0.726 -0.59 -0.00    +0.000 A 
DOCKED: ATOM      5  C   UNL     1      21.766 -10.549  -0.376 -0.55 -0.00    +0.000 A 
DOCKED: ATOM      6  C   UNL     1      21.221 -10.391  -1.650 -0.54 -0.00    +0.000 A 
DOCKED: ATOM      7  C   UNL     1      19.832 -10.433  -1.834 -0.43 -0.00    +0.000 A 
DOCKED: ATOM      8  C   UNL     1      19.285 -10.276  -3.115 -0.35 -0.00    +0.000 A 
DOCKED: ATOM      9  C   UNL     1      17.903 -10.320  -3.298 -0.22 -0.00    +0.000 A 
DOCKED: ATOM     10  C   UNL     1      17.054 -10.520  -2.209 -0.20 -0.00    +0.000 A 
DOCKED: ATOM     11  C   UNL     1      17.578 -10.680  -0.914 -0.26 -0.00    +0.000 A 
DOCKED: ATOM     12  C   UNL     1      18.977 -10.636  -0.720 -0.37 -0.00    +0.000 A 
DOCKED: ATOM     13  O   UNL     1      19.156 -11.168   2.884 -0.81 -0.00    +0.000 OA
DOCKED: ATOM     14  C   UNL     1      16.676 -10.891   0.241 -0.37 +0.00    +0.000 C 
DOCKED: ATOM     15  O   UNL     1      15.429 -10.954   0.059 -0.31 +0.00    +0.000 OA
DOCKED: ENDROOT
DOCKED: BRANCH   1  16
DOCKED: ATOM     16  C   UNL     1      16.341 -11.141   2.743 -0.47 +0.00    +0.000 C 
DOCKED: BRANCH  16  17
DOCKED: ATOM     17  C   UNL     1      15.396  -9.934   2.863 -0.41 +0.00    +0.000 C 
DOCKED: BRANCH  17  18
DOCKED: ATOM     18  C   UNL     1      15.996  -8.735   3.622 -0.36 +0.00    +0.000 C 
DOCKED: BRANCH  18  19
DOCKED: ATOM     19  C   UNL     1      14.971  -7.886   4.402 -0.41 +0.00    +0.000 C 
DOCKED: BRANCH  19  20
DOCKED: ATOM     20  C   UNL     1      14.928  -6.404   3.996 -0.38 +0.00    +0.000 C 
DOCKED: BRANCH  20  22
DOCKED: ATOM     21  O   UNL     1      13.923  -5.492   5.963 -1.03 +0.00    +0.000 OA
DOCKED: ATOM     22  C   UNL     1      14.918  -5.494   5.190 -0.48 +0.00    +0.000 C 
DOCKED: ATOM     23  N   UNL     1      16.013  -4.607   5.435 -0.48 -0.00    +0.000 N 
DOCKED: ATOM     24  H   UNL     1      16.784  -4.604   4.825 -0.52 -0.00    +0.000 HD
DOCKED: BRANCH  23  25
DOCKED: ATOM     25  O   UNL     1      15.995  -3.769   6.499 -0.68 +0.00    +0.000 OA
DOCKED: ATOM     26  H   UNL     1      15.152  -3.862   6.970 -0.08 +0.00    +0.000 HD
DOCKED: ENDBRANCH  23  25
DOCKED: ENDBRANCH  20  22
DOCKED: ENDBRANCH  19  20
DOCKED: ENDBRANCH  18  19
DOCKED: ENDBRANCH  17  18
DOCKED: ENDBRANCH  16  17
DOCKED: ENDBRANCH   1  16
DOCKED: TORSDOF 7
DOCKED: TER
DOCKED: ENDMDL
________________________________________________________________________________


	BEGINNING GENETIC ALGORITHM DOCKING 47 of 100
Run: 47 Seed: 996754182 1227320920 [ Run 47 of 100 GA/GALS ]
Beginning LAMARCKIAN GENETIC ALGORITHM (LGA), with a maximum of 2500000 energy evaluations.

Final-Value: -13.766


	FINAL GENETIC ALGORITHM DOCKED STATE
	_______________________________________________


Detailed state:  trans 16.042 -10.298 -0.540 quatxyzw 0.089436 0.785786 0.611769 -0.016747 center 0.154 0.111 -0.146 ntor 7 -136.4547 -140.8595 155.2429 -4.8691 10.9898 -172.4711 7.2632
State:	 16.042 -10.298  -0.540   0.089  0.786  0.612 -178.081   -136.45 -140.86  155.24   -4.87   10.99 -172.47    7.26

DOCKED: MODEL       47
DOCKED: USER    Run = 47
DOCKED: USER    DPF = ligand_dock.biased.dpf
DOCKED: USER  
DOCKED: USER    Estimated Free Energy of Binding    =   -9.59 kcal/mol  [=(1)+(2)+(3)-(4)]
DOCKED: USER    Estimated Inhibition Constant, Ki   =   93.78 nM (nanomolar)  [Temperature = 298.15 K]
DOCKED: USER    
DOCKED: USER    (1) Final Intermolecular Energy     =  -11.68 kcal/mol
DOCKED: USER        vdW + Hbond + desolv Energy     =  -11.68 kcal/mol
DOCKED: USER        Electrostatic Energy            =   +0.00 kcal/mol
DOCKED: USER    (2) Final Total Internal Energy     =   -2.09 kcal/mol
DOCKED: USER    (3) Torsional Free Energy           =   +2.09 kcal/mol
DOCKED: USER    (4) Unbound System's Energy  [=(2)] =   -2.09 kcal/mol
DOCKED: USER    
DOCKED: USER    
DOCKED: USER    NEWDPF move ligand.pdbqt
DOCKED: USER    NEWDPF about 0.154000 0.111000 -0.146000
DOCKED: USER    NEWDPF tran0 16.042401 -10.297646 -0.540243
DOCKED: USER    NEWDPF quaternion0 0.089436 0.785786 0.611769 -0.016747
DOCKED: USER    NEWDPF axisangle0 0.089449 0.785896 0.611854 -178.080863
DOCKED: USER    NEWDPF quat0 0.089449 0.785896 0.611854 -178.080863
DOCKED: USER    NEWDPF dihe0 -136.45 -140.86 155.24 -4.87 10.99 -172.47 7.26 
DOCKED: USER  keepresnum = 1 
DOCKED: USER  
DOCKED: REMARK  Name = 
DOCKED: REMARK  7 active torsions:
DOCKED: REMARK  status: ('A' for Active; 'I' for Inactive)
DOCKED: REMARK    1  A    between atoms: C_2  and  C_5
DOCKED: REMARK    2  A    between atoms: N_3  and  O_4
DOCKED: REMARK    3  A    between atoms: C_5  and  C_6
DOCKED: REMARK    4  A    between atoms: C_6  and  C_7
DOCKED: REMARK    5  A    between atoms: C_7  and  C_8
DOCKED: REMARK    6  A    between atoms: C_8  and  C_9
DOCKED: REMARK    7  A    between atoms: C_9  and  N_10
DOCKED: REMARK                            x       y       z     vdW  Elec       q    Type
DOCKED: REMARK                         _______ _______ _______ _____ _____    ______ ____
DOCKED: USER                              x       y       z     vdW  Elec       q    Type
DOCKED: USER                           _______ _______ _______ _____ _____    ______ ____
DOCKED: ROOT
DOCKED: ATOM      1  N   UNL     1      16.404 -11.678  -0.996 -0.29 +0.00    +0.000 N 
DOCKED: ATOM      2  C   UNL     1      17.141 -12.176   0.138 -0.51 +0.00    +0.000 C 
DOCKED: ATOM      3  C   UNL     1      18.571 -11.831   0.303 -0.50 -0.00    +0.000 A 
DOCKED: ATOM      4  C   UNL     1      19.292 -12.291   1.420 -0.58 -0.00    +0.000 A 
DOCKED: ATOM      5  C   UNL     1      20.640 -11.965   1.578 -0.65 -0.00    +0.000 A 
DOCKED: ATOM      6  C   UNL     1      21.290 -11.178   0.627 -0.34 -0.00    +0.000 A 
DOCKED: ATOM      7  C   UNL     1      20.592 -10.708  -0.495 -0.56 -0.00    +0.000 A 
DOCKED: ATOM      8  C   UNL     1      21.246  -9.918  -1.452 -0.56 -0.00    +0.000 A 
DOCKED: ATOM      9  C   UNL     1      20.554  -9.453  -2.569 -0.43 -0.00    +0.000 A 
DOCKED: ATOM     10  C   UNL     1      19.206  -9.768  -2.745 -0.21 -0.00    +0.000 A 
DOCKED: ATOM     11  C   UNL     1      18.528 -10.559  -1.800 -0.30 -0.00    +0.000 A 
DOCKED: ATOM     12  C   UNL     1      19.222 -11.034  -0.665 -0.45 -0.00    +0.000 A 
DOCKED: ATOM     13  O   UNL     1      16.567 -12.907   0.993 -1.08 +0.00    +0.000 OA
DOCKED: ATOM     14  C   UNL     1      17.097 -10.892  -1.986 -0.10 -0.00    +0.000 C 
DOCKED: ATOM     15  O   UNL     1      16.489 -10.487  -3.014 -0.28 -0.00    +0.000 OA
DOCKED: ENDROOT
DOCKED: BRANCH   1  16
DOCKED: ATOM     16  C   UNL     1      14.961 -11.944  -1.114 -0.42 +0.00    +0.000 C 
DOCKED: BRANCH  16  17
DOCKED: ATOM     17  C   UNL     1      14.131 -10.932  -0.305 -0.33 +0.00    +0.000 C 
DOCKED: BRANCH  17  18
DOCKED: ATOM     18  C   UNL     1      13.473 -11.521   0.957 -0.43 +0.00    +0.000 C 
DOCKED: BRANCH  18  19
DOCKED: ATOM     19  C   UNL     1      14.413 -11.656   2.172 -0.49 +0.00    +0.000 C 
DOCKED: BRANCH  19  20
DOCKED: ATOM     20  C   UNL     1      14.999 -10.329   2.678 -0.41 +0.00    +0.000 C 
DOCKED: BRANCH  20  22
DOCKED: ATOM     21  O   UNL     1      16.683 -11.232   4.114 -0.58 +0.00    +0.000 OA
DOCKED: ATOM     22  C   UNL     1      16.421 -10.479   3.138 -0.50 +0.00    +0.000 C 
DOCKED: ATOM     23  N   UNL     1      17.470  -9.749   2.498 -0.45 -0.00    +0.000 N 
DOCKED: ATOM     24  H   UNL     1      17.261  -9.155   1.742 -0.02 -0.00    +0.000 HD
DOCKED: BRANCH  23  25
DOCKED: ATOM     25  O   UNL     1      18.750  -9.866   2.926 -0.64 -0.00    +0.000 OA
DOCKED: ATOM     26  H   UNL     1      19.162  -8.987   2.961 -0.58 -0.00    +0.000 HD
DOCKED: ENDBRANCH  23  25
DOCKED: ENDBRANCH  20  22
DOCKED: ENDBRANCH  19  20
DOCKED: ENDBRANCH  18  19
DOCKED: ENDBRANCH  17  18
DOCKED: ENDBRANCH  16  17
DOCKED: ENDBRANCH   1  16
DOCKED: TORSDOF 7
DOCKED: TER
DOCKED: ENDMDL
________________________________________________________________________________


	BEGINNING GENETIC ALGORITHM DOCKING 48 of 100
Run: 48 Seed: 170856254 1650485691 [ Run 48 of 100 GA/GALS ]
Beginning LAMARCKIAN GENETIC ALGORITHM (LGA), with a maximum of 2500000 energy evaluations.

Final-Value: -12.979


	FINAL GENETIC ALGORITHM DOCKED STATE
	_______________________________________________


Detailed state:  trans 18.556 -10.602 0.809 quatxyzw -0.716639 0.125328 0.050227 -0.684250 center 0.154 0.111 -0.146 ntor 7 120.7697 -80.9552 171.0859 -43.3632 148.8842 -6.6382 5.8162
State:	 18.556 -10.602   0.809  -0.983  0.172  0.069 -93.647    120.77  -80.96  171.09  -43.36  148.88   -6.64    5.82

DOCKED: MODEL       48
DOCKED: USER    Run = 48
DOCKED: USER    DPF = ligand_dock.biased.dpf
DOCKED: USER  
DOCKED: USER    Estimated Free Energy of Binding    =   -9.71 kcal/mol  [=(1)+(2)+(3)-(4)]
DOCKED: USER    Estimated Inhibition Constant, Ki   =   76.09 nM (nanomolar)  [Temperature = 298.15 K]
DOCKED: USER    
DOCKED: USER    (1) Final Intermolecular Energy     =  -11.80 kcal/mol
DOCKED: USER        vdW + Hbond + desolv Energy     =  -11.80 kcal/mol
DOCKED: USER        Electrostatic Energy            =   +0.00 kcal/mol
DOCKED: USER    (2) Final Total Internal Energy     =   -1.18 kcal/mol
DOCKED: USER    (3) Torsional Free Energy           =   +2.09 kcal/mol
DOCKED: USER    (4) Unbound System's Energy  [=(2)] =   -1.18 kcal/mol
DOCKED: USER    
DOCKED: USER    
DOCKED: USER    NEWDPF move ligand.pdbqt
DOCKED: USER    NEWDPF about 0.154000 0.111000 -0.146000
DOCKED: USER    NEWDPF tran0 18.555574 -10.602125 0.808785
DOCKED: USER    NEWDPF quaternion0 -0.716639 0.125328 0.050227 -0.684250
DOCKED: USER    NEWDPF axisangle0 -0.982711 0.171859 0.068875 -93.646687
DOCKED: USER    NEWDPF quat0 -0.982711 0.171859 0.068875 -93.646687
DOCKED: USER    NEWDPF dihe0 120.77 -80.96 171.09 -43.36 148.88 -6.64 5.82 
DOCKED: USER  keepresnum = 1 
DOCKED: USER  
DOCKED: REMARK  Name = 
DOCKED: REMARK  7 active torsions:
DOCKED: REMARK  status: ('A' for Active; 'I' for Inactive)
DOCKED: REMARK    1  A    between atoms: C_2  and  C_5
DOCKED: REMARK    2  A    between atoms: N_3  and  O_4
DOCKED: REMARK    3  A    between atoms: C_5  and  C_6
DOCKED: REMARK    4  A    between atoms: C_6  and  C_7
DOCKED: REMARK    5  A    between atoms: C_7  and  C_8
DOCKED: REMARK    6  A    between atoms: C_8  and  C_9
DOCKED: REMARK    7  A    between atoms: C_9  and  N_10
DOCKED: REMARK                            x       y       z     vdW  Elec       q    Type
DOCKED: REMARK                         _______ _______ _______ _____ _____    ______ ____
DOCKED: USER                              x       y       z     vdW  Elec       q    Type
DOCKED: USER                           _______ _______ _______ _____ _____    ______ ____
DOCKED: ROOT
DOCKED: ATOM      1  N   UNL     1      18.026 -11.663   1.725 -0.47 -0.00    +0.000 N 
DOCKED: ATOM      2  C   UNL     1      17.011 -12.275   0.905 -0.51 +0.00    +0.000 C 
DOCKED: ATOM      3  C   UNL     1      15.668 -11.660   0.804 -0.38 +0.00    +0.000 A 
DOCKED: ATOM      4  C   UNL     1      14.679 -12.236  -0.013 -0.44 +0.00    +0.000 A 
DOCKED: ATOM      5  C   UNL     1      13.413 -11.656  -0.111 -0.36 +0.00    +0.000 A 
DOCKED: ATOM      6  C   UNL     1      13.114 -10.496   0.602 -0.24 +0.00    +0.000 A 
DOCKED: ATOM      7  C   UNL     1      14.083  -9.903   1.424 -0.22 +0.00    +0.000 A 
DOCKED: ATOM      8  C   UNL     1      13.781  -8.737   2.142 -0.19 +0.00    +0.000 A 
DOCKED: ATOM      9  C   UNL     1      14.744  -8.149   2.961 -0.28 +0.00    +0.000 A 
DOCKED: ATOM     10  C   UNL     1      16.015  -8.714   3.073 -0.26 +0.00    +0.000 A 
DOCKED: ATOM     11  C   UNL     1      16.342  -9.883   2.363 -0.37 +0.00    +0.000 A 
DOCKED: ATOM     12  C   UNL     1      15.372 -10.485   1.531 -0.30 +0.00    +0.000 A 
DOCKED: ATOM     13  O   UNL     1      17.266 -13.337   0.273 -1.06 +0.00    +0.000 OA
DOCKED: ATOM     14  C   UNL     1      17.692 -10.481   2.481 -0.52 -0.00    +0.000 C 
DOCKED: ATOM     15  O   UNL     1      18.545  -9.954   3.245 -0.53 -0.00    +0.000 OA
DOCKED: ENDROOT
DOCKED: BRANCH   1  16
DOCKED: ATOM     16  C   UNL     1      19.388 -12.221   1.755 -0.69 -0.00    +0.000 C 
DOCKED: BRANCH  16  17
DOCKED: ATOM     17  C   UNL     1      20.221 -11.745   0.553 -0.48 -0.00    +0.000 C 
DOCKED: BRANCH  17  18
DOCKED: ATOM     18  C   UNL     1      20.336 -10.213   0.433 -0.64 -0.00    +0.000 C 
DOCKED: BRANCH  18  19
DOCKED: ATOM     19  C   UNL     1      20.295  -9.674  -1.012 -0.48 -0.00    +0.000 C 
DOCKED: BRANCH  19  20
DOCKED: ATOM     20  C   UNL     1      19.616 -10.612  -2.024 -0.46 -0.00    +0.000 C 
DOCKED: BRANCH  20  22
DOCKED: ATOM     21  O   UNL     1      21.611 -10.313  -3.307 -0.58 -0.00    +0.000 OA
DOCKED: ATOM     22  C   UNL     1      20.492 -10.885  -3.213 -0.47 -0.00    +0.000 C 
DOCKED: ATOM     23  N   UNL     1      20.049 -11.761  -4.253 -0.47 -0.00    +0.000 N 
DOCKED: ATOM     24  H   UNL     1      19.171 -12.200  -4.181 -0.05 -0.00    +0.000 HD
DOCKED: BRANCH  23  25
DOCKED: ATOM     25  O   UNL     1      20.827 -11.991  -5.337 -0.70 -0.00    +0.000 OA
DOCKED: ATOM     26  H   UNL     1      21.021 -12.940  -5.401 -0.65 -0.00    +0.000 HD
DOCKED: ENDBRANCH  23  25
DOCKED: ENDBRANCH  20  22
DOCKED: ENDBRANCH  19  20
DOCKED: ENDBRANCH  18  19
DOCKED: ENDBRANCH  17  18
DOCKED: ENDBRANCH  16  17
DOCKED: ENDBRANCH   1  16
DOCKED: TORSDOF 7
DOCKED: TER
DOCKED: ENDMDL
________________________________________________________________________________


	BEGINNING GENETIC ALGORITHM DOCKING 49 of 100
Run: 49 Seed: 622594451 1851197046 [ Run 49 of 100 GA/GALS ]
Beginning LAMARCKIAN GENETIC ALGORITHM (LGA), with a maximum of 2500000 energy evaluations.

Final-Value: -13.579


	FINAL GENETIC ALGORITHM DOCKED STATE
	_______________________________________________


Detailed state:  trans 20.556 -9.269 -1.353 quatxyzw 0.238768 -0.300412 -0.383603 0.839995 center 0.154 0.111 -0.146 ntor 7 -2.6420 165.8195 35.6308 -173.5548 -96.2339 -165.0248 -6.5452
State:	 20.556  -9.269  -1.353   0.440 -0.554 -0.707 65.721     -2.64  165.82   35.63 -173.55  -96.23 -165.02   -6.55

DOCKED: MODEL       49
DOCKED: USER    Run = 49
DOCKED: USER    DPF = ligand_dock.biased.dpf
DOCKED: USER  
DOCKED: USER    Estimated Free Energy of Binding    =   -9.96 kcal/mol  [=(1)+(2)+(3)-(4)]
DOCKED: USER    Estimated Inhibition Constant, Ki   =   50.14 nM (nanomolar)  [Temperature = 298.15 K]
DOCKED: USER    
DOCKED: USER    (1) Final Intermolecular Energy     =  -12.05 kcal/mol
DOCKED: USER        vdW + Hbond + desolv Energy     =  -12.05 kcal/mol
DOCKED: USER        Electrostatic Energy            =   +0.00 kcal/mol
DOCKED: USER    (2) Final Total Internal Energy     =   -1.53 kcal/mol
DOCKED: USER    (3) Torsional Free Energy           =   +2.09 kcal/mol
DOCKED: USER    (4) Unbound System's Energy  [=(2)] =   -1.53 kcal/mol
DOCKED: USER    
DOCKED: USER    
DOCKED: USER    NEWDPF move ligand.pdbqt
DOCKED: USER    NEWDPF about 0.154000 0.111000 -0.146000
DOCKED: USER    NEWDPF tran0 20.555764 -9.268541 -1.352692
DOCKED: USER    NEWDPF quaternion0 0.238768 -0.300412 -0.383603 0.839995
DOCKED: USER    NEWDPF axisangle0 0.440050 -0.553658 -0.706979 65.720856
DOCKED: USER    NEWDPF quat0 0.440050 -0.553658 -0.706979 65.720856
DOCKED: USER    NEWDPF dihe0 -2.64 165.82 35.63 -173.55 -96.23 -165.02 -6.55 
DOCKED: USER  keepresnum = 1 
DOCKED: USER  
DOCKED: REMARK  Name = 
DOCKED: REMARK  7 active torsions:
DOCKED: REMARK  status: ('A' for Active; 'I' for Inactive)
DOCKED: REMARK    1  A    between atoms: C_2  and  C_5
DOCKED: REMARK    2  A    between atoms: N_3  and  O_4
DOCKED: REMARK    3  A    between atoms: C_5  and  C_6
DOCKED: REMARK    4  A    between atoms: C_6  and  C_7
DOCKED: REMARK    5  A    between atoms: C_7  and  C_8
DOCKED: REMARK    6  A    between atoms: C_8  and  C_9
DOCKED: REMARK    7  A    between atoms: C_9  and  N_10
DOCKED: REMARK                            x       y       z     vdW  Elec       q    Type
DOCKED: REMARK                         _______ _______ _______ _____ _____    ______ ____
DOCKED: USER                              x       y       z     vdW  Elec       q    Type
DOCKED: USER                           _______ _______ _______ _____ _____    ______ ____
DOCKED: ROOT
DOCKED: ATOM      1  N   UNL     1      20.427 -10.736  -1.624 -0.49 -0.00    +0.000 N 
DOCKED: ATOM      2  C   UNL     1      19.003 -10.879  -1.784 -0.44 -0.00    +0.000 C 
DOCKED: ATOM      3  C   UNL     1      18.131 -11.001  -0.593 -0.37 -0.00    +0.000 A 
DOCKED: ATOM      4  C   UNL     1      16.737 -11.116  -0.738 -0.31 -0.00    +0.000 A 
DOCKED: ATOM      5  C   UNL     1      15.914 -11.228   0.384 -0.33 +0.00    +0.000 A 
DOCKED: ATOM      6  C   UNL     1      16.466 -11.228   1.664 -0.38 +0.00    +0.000 A 
DOCKED: ATOM      7  C   UNL     1      17.853 -11.115   1.834 -0.44 -0.00    +0.000 A 
DOCKED: ATOM      8  C   UNL     1      18.408 -11.117   3.122 -0.40 -0.00    +0.000 A 
DOCKED: ATOM      9  C   UNL     1      19.788 -11.007   3.291 -0.64 -0.00    +0.000 A 
DOCKED: ATOM     10  C   UNL     1      20.627 -10.895   2.183 -0.57 -0.00    +0.000 A 
DOCKED: ATOM     11  C   UNL     1      20.095 -10.891   0.881 -0.60 -0.00    +0.000 A 
DOCKED: ATOM     12  C   UNL     1      18.698 -11.001   0.701 -0.47 -0.00    +0.000 A 
DOCKED: ATOM     13  O   UNL     1      18.496 -10.903  -2.940 -0.35 -0.00    +0.000 OA
DOCKED: ATOM     14  C   UNL     1      20.986 -10.770  -0.296 -0.66 -0.00    +0.000 C 
DOCKED: ATOM     15  O   UNL     1      22.235 -10.697  -0.130 -0.64 -0.00    +0.000 OA
DOCKED: ENDROOT
DOCKED: BRANCH   1  16
DOCKED: ATOM     16  C   UNL     1      21.286 -10.525  -2.802 -0.55 -0.00    +0.000 C 
DOCKED: BRANCH  16  17
DOCKED: ATOM     17  C   UNL     1      21.062  -9.135  -3.422 -0.45 -0.00    +0.000 C 
DOCKED: BRANCH  17  18
DOCKED: ATOM     18  C   UNL     1      20.172  -9.141  -4.680 -0.28 -0.00    +0.000 C 
DOCKED: BRANCH  18  19
DOCKED: ATOM     19  C   UNL     1      20.194 -10.459  -5.480 -0.37 -0.00    +0.000 C 
DOCKED: BRANCH  19  20
DOCKED: ATOM     20  C   UNL     1      20.957 -10.385  -6.813 -0.31 -0.00    +0.000 C 
DOCKED: BRANCH  20  22
DOCKED: ATOM     21  O   UNL     1      23.332 -10.126  -6.876 -0.35 -0.00    +0.000 OA
DOCKED: ATOM     22  C   UNL     1      22.359 -10.906  -6.689 -0.43 -0.00    +0.000 C 
DOCKED: ATOM     23  N   UNL     1      22.597 -12.285  -6.395 -0.48 -0.00    +0.000 N 
DOCKED: ATOM     24  H   UNL     1      21.836 -12.893  -6.257 -0.57 -0.00    +0.000 HD
DOCKED: BRANCH  23  25
DOCKED: ATOM     25  O   UNL     1      23.861 -12.761  -6.305 -1.12 +0.00    +0.000 OA
DOCKED: ATOM     26  H   UNL     1      24.491 -12.051  -6.507 -0.02 +0.00    +0.000 HD
DOCKED: ENDBRANCH  23  25
DOCKED: ENDBRANCH  20  22
DOCKED: ENDBRANCH  19  20
DOCKED: ENDBRANCH  18  19
DOCKED: ENDBRANCH  17  18
DOCKED: ENDBRANCH  16  17
DOCKED: ENDBRANCH   1  16
DOCKED: TORSDOF 7
DOCKED: TER
DOCKED: ENDMDL
________________________________________________________________________________


	BEGINNING GENETIC ALGORITHM DOCKING 50 of 100
Run: 50 Seed: 349577783 422774393 [ Run 50 of 100 GA/GALS ]
Beginning LAMARCKIAN GENETIC ALGORITHM (LGA), with a maximum of 2500000 energy evaluations.

Final-Value: -14.358


	FINAL GENETIC ALGORITHM DOCKED STATE
	_______________________________________________


Detailed state:  trans 18.985 -13.001 1.432 quatxyzw -0.785792 0.161545 0.130373 0.582612 center 0.154 0.111 -0.146 ntor 7 -1.3582 3.9970 54.2005 108.1280 -35.8941 -161.3941 -147.4495
State:	 18.985 -13.001   1.432  -0.967  0.199  0.160 108.731     -1.36    4.00   54.20  108.13  -35.89 -161.39 -147.45

DOCKED: MODEL       50
DOCKED: USER    Run = 50
DOCKED: USER    DPF = ligand_dock.biased.dpf
DOCKED: USER  
DOCKED: USER    Estimated Free Energy of Binding    =  -10.75 kcal/mol  [=(1)+(2)+(3)-(4)]
DOCKED: USER    Estimated Inhibition Constant, Ki   =   13.24 nM (nanomolar)  [Temperature = 298.15 K]
DOCKED: USER    
DOCKED: USER    (1) Final Intermolecular Energy     =  -12.84 kcal/mol
DOCKED: USER        vdW + Hbond + desolv Energy     =  -12.84 kcal/mol
DOCKED: USER        Electrostatic Energy            =   +0.00 kcal/mol
DOCKED: USER    (2) Final Total Internal Energy     =   -1.52 kcal/mol
DOCKED: USER    (3) Torsional Free Energy           =   +2.09 kcal/mol
DOCKED: USER    (4) Unbound System's Energy  [=(2)] =   -1.52 kcal/mol
DOCKED: USER    
DOCKED: USER    
DOCKED: USER    NEWDPF move ligand.pdbqt
DOCKED: USER    NEWDPF about 0.154000 0.111000 -0.146000
DOCKED: USER    NEWDPF tran0 18.985364 -13.001231 1.432101
DOCKED: USER    NEWDPF quaternion0 -0.785792 0.161545 0.130373 0.582612
DOCKED: USER    NEWDPF axisangle0 -0.966831 0.198763 0.160409 108.731086
DOCKED: USER    NEWDPF quat0 -0.966831 0.198763 0.160409 108.731086
DOCKED: USER    NEWDPF dihe0 -1.36 4.00 54.20 108.13 -35.89 -161.39 -147.45 
DOCKED: USER  keepresnum = 1 
DOCKED: USER  
DOCKED: REMARK  Name = 
DOCKED: REMARK  7 active torsions:
DOCKED: REMARK  status: ('A' for Active; 'I' for Inactive)
DOCKED: REMARK    1  A    between atoms: C_2  and  C_5
DOCKED: REMARK    2  A    between atoms: N_3  and  O_4
DOCKED: REMARK    3  A    between atoms: C_5  and  C_6
DOCKED: REMARK    4  A    between atoms: C_6  and  C_7
DOCKED: REMARK    5  A    between atoms: C_7  and  C_8
DOCKED: REMARK    6  A    between atoms: C_8  and  C_9
DOCKED: REMARK    7  A    between atoms: C_9  and  N_10
DOCKED: REMARK                            x       y       z     vdW  Elec       q    Type
DOCKED: REMARK                         _______ _______ _______ _____ _____    ______ ____
DOCKED: USER                              x       y       z     vdW  Elec       q    Type
DOCKED: USER                           _______ _______ _______ _____ _____    ______ ____
DOCKED: ROOT
DOCKED: ATOM      1  N   UNL     1      18.952 -11.544   1.085 -0.53 -0.00    +0.000 N 
DOCKED: ATOM      2  C   UNL     1      18.454 -10.965   2.307 -0.58 -0.00    +0.000 C 
DOCKED: ATOM      3  C   UNL     1      17.000 -10.955   2.585 -0.42 +0.00    +0.000 A 
DOCKED: ATOM      4  C   UNL     1      16.507 -10.414   3.786 -0.28 +0.00    +0.000 A 
DOCKED: ATOM      5  C   UNL     1      15.136 -10.406   4.050 -0.44 +0.00    +0.000 A 
DOCKED: ATOM      6  C   UNL     1      14.238 -10.935   3.123 -0.35 +0.00    +0.000 A 
DOCKED: ATOM      7  C   UNL     1      14.705 -11.479   1.919 -0.42 +0.00    +0.000 A 
DOCKED: ATOM      8  C   UNL     1      13.802 -12.009   0.987 -0.41 +0.00    +0.000 A 
DOCKED: ATOM      9  C   UNL     1      14.266 -12.547  -0.213 -0.37 +0.00    +0.000 A 
DOCKED: ATOM     10  C   UNL     1      15.633 -12.564  -0.496 -0.45 +0.00    +0.000 A 
DOCKED: ATOM     11  C   UNL     1      16.559 -12.039   0.423 -0.43 +0.00    +0.000 A 
DOCKED: ATOM     12  C   UNL     1      16.097 -11.491   1.640 -0.39 +0.00    +0.000 A 
DOCKED: ATOM     13  O   UNL     1      19.258 -10.464   3.141 -0.71 -0.00    +0.000 OA
DOCKED: ATOM     14  C   UNL     1      18.009 -12.058   0.123 -0.54 -0.00    +0.000 C 
DOCKED: ATOM     15  O   UNL     1      18.414 -12.525  -0.977 -0.43 -0.00    +0.000 OA
DOCKED: ENDROOT
DOCKED: BRANCH   1  16
DOCKED: ATOM     16  C   UNL     1      20.402 -11.637   0.848 -0.66 -0.00    +0.000 C 
DOCKED: BRANCH  16  17
DOCKED: ATOM     17  C   UNL     1      21.019 -10.255   0.571 -0.67 -0.00    +0.000 C 
DOCKED: BRANCH  17  18
DOCKED: ATOM     18  C   UNL     1      21.206  -9.935  -0.924 -0.68 -0.00    +0.000 C 
DOCKED: BRANCH  18  19
DOCKED: ATOM     19  C   UNL     1      20.132 -10.538  -1.853 -0.52 -0.00    +0.000 C 
DOCKED: BRANCH  19  20
DOCKED: ATOM     20  C   UNL     1      20.242 -10.104  -3.323 -0.46 -0.00    +0.000 C 
DOCKED: BRANCH  20  22
DOCKED: ATOM     21  O   UNL     1      19.600 -12.008  -4.617 -0.61 -0.00    +0.000 OA
DOCKED: ATOM     22  C   UNL     1      20.539 -11.262  -4.232 -0.50 -0.00    +0.000 C 
DOCKED: ATOM     23  N   UNL     1      21.883 -11.542  -4.633 -0.49 -0.00    +0.000 N 
DOCKED: ATOM     24  H   UNL     1      22.615 -10.963  -4.323 -0.03 -0.00    +0.000 HD
DOCKED: BRANCH  23  25
DOCKED: ATOM     25  O   UNL     1      22.156 -12.599  -5.434 -0.83 -0.00    +0.000 OA
DOCKED: ATOM     26  H   UNL     1      21.334 -13.078  -5.630 -0.65 -0.00    +0.000 HD
DOCKED: ENDBRANCH  23  25
DOCKED: ENDBRANCH  20  22
DOCKED: ENDBRANCH  19  20
DOCKED: ENDBRANCH  18  19
DOCKED: ENDBRANCH  17  18
DOCKED: ENDBRANCH  16  17
DOCKED: ENDBRANCH   1  16
DOCKED: TORSDOF 7
DOCKED: TER
DOCKED: ENDMDL
________________________________________________________________________________


	BEGINNING GENETIC ALGORITHM DOCKING 51 of 100
Run: 51 Seed: 920932958 1432501994 [ Run 51 of 100 GA/GALS ]
Beginning LAMARCKIAN GENETIC ALGORITHM (LGA), with a maximum of 2500000 energy evaluations.

Final-Value: -13.399


	FINAL GENETIC ALGORITHM DOCKED STATE
	_______________________________________________


Detailed state:  trans 16.979 -10.340 -0.376 quatxyzw 0.074770 0.443800 -0.154209 -0.879585 center 0.154 0.111 -0.146 ntor 7 -3.7265 42.1049 116.1015 -161.4270 -103.9327 45.0681 -25.9893
State:	 16.979 -10.340  -0.376   0.157  0.933 -0.324 -56.815     -3.73   42.10  116.10 -161.43 -103.93   45.07  -25.99

DOCKED: MODEL       51
DOCKED: USER    Run = 51
DOCKED: USER    DPF = ligand_dock.biased.dpf
DOCKED: USER  
DOCKED: USER    Estimated Free Energy of Binding    =   -8.60 kcal/mol  [=(1)+(2)+(3)-(4)]
DOCKED: USER    Estimated Inhibition Constant, Ki   =  493.92 nM (nanomolar)  [Temperature = 298.15 K]
DOCKED: USER    
DOCKED: USER    (1) Final Intermolecular Energy     =  -10.69 kcal/mol
DOCKED: USER        vdW + Hbond + desolv Energy     =  -10.69 kcal/mol
DOCKED: USER        Electrostatic Energy            =   +0.00 kcal/mol
DOCKED: USER    (2) Final Total Internal Energy     =   -2.71 kcal/mol
DOCKED: USER    (3) Torsional Free Energy           =   +2.09 kcal/mol
DOCKED: USER    (4) Unbound System's Energy  [=(2)] =   -2.71 kcal/mol
DOCKED: USER    
DOCKED: USER    
DOCKED: USER    NEWDPF move ligand.pdbqt
DOCKED: USER    NEWDPF about 0.154000 0.111000 -0.146000
DOCKED: USER    NEWDPF tran0 16.979285 -10.340072 -0.376287
DOCKED: USER    NEWDPF quaternion0 0.074770 0.443800 -0.154209 -0.879585
DOCKED: USER    NEWDPF axisangle0 0.157164 0.932861 -0.324146 -56.815221
DOCKED: USER    NEWDPF quat0 0.157164 0.932861 -0.324146 -56.815221
DOCKED: USER    NEWDPF dihe0 -3.73 42.10 116.10 -161.43 -103.93 45.07 -25.99 
DOCKED: USER  keepresnum = 1 
DOCKED: USER  
DOCKED: REMARK  Name = 
DOCKED: REMARK  7 active torsions:
DOCKED: REMARK  status: ('A' for Active; 'I' for Inactive)
DOCKED: REMARK    1  A    between atoms: C_2  and  C_5
DOCKED: REMARK    2  A    between atoms: N_3  and  O_4
DOCKED: REMARK    3  A    between atoms: C_5  and  C_6
DOCKED: REMARK    4  A    between atoms: C_6  and  C_7
DOCKED: REMARK    5  A    between atoms: C_7  and  C_8
DOCKED: REMARK    6  A    between atoms: C_8  and  C_9
DOCKED: REMARK    7  A    between atoms: C_9  and  N_10
DOCKED: REMARK                            x       y       z     vdW  Elec       q    Type
DOCKED: REMARK                         _______ _______ _______ _____ _____    ______ ____
DOCKED: USER                              x       y       z     vdW  Elec       q    Type
DOCKED: USER                           _______ _______ _______ _____ _____    ______ ____
DOCKED: ROOT
DOCKED: ATOM      1  N   UNL     1      15.513 -10.581  -0.567 -0.27 +0.00    +0.000 N 
DOCKED: ATOM      2  C   UNL     1      14.975  -9.256  -0.396 -0.26 -0.00    +0.000 C 
DOCKED: ATOM      3  C   UNL     1      14.733  -8.723   0.965 -0.24 +0.00    +0.000 A 
DOCKED: ATOM      4  C   UNL     1      14.232  -7.422   1.143 -0.22 +0.00    +0.000 A 
DOCKED: ATOM      5  C   UNL     1      14.005  -6.918   2.425 -0.20 +0.00    +0.000 A 
DOCKED: ATOM      6  C   UNL     1      14.274  -7.703   3.547 -0.26 +0.00    +0.000 A 
DOCKED: ATOM      7  C   UNL     1      14.773  -9.004   3.395 -0.32 +0.00    +0.000 A 
DOCKED: ATOM      8  C   UNL     1      15.041  -9.792   4.522 -0.34 +0.00    +0.000 A 
DOCKED: ATOM      9  C   UNL     1      15.536 -11.087   4.371 -0.40 +0.00    +0.000 A 
DOCKED: ATOM     10  C   UNL     1      15.768 -11.609   3.098 -0.38 +0.00    +0.000 A 
DOCKED: ATOM     11  C   UNL     1      15.507 -10.838   1.951 -0.36 +0.00    +0.000 A 
DOCKED: ATOM     12  C   UNL     1      15.006  -9.525   2.096 -0.28 +0.00    +0.000 A 
DOCKED: ATOM     13  O   UNL     1      14.708  -8.546  -1.405 -0.24 -0.00    +0.000 OA
DOCKED: ATOM     14  C   UNL     1      15.756 -11.391   0.600 -0.41 +0.00    +0.000 C 
DOCKED: ATOM     15  O   UNL     1      16.179 -12.573   0.476 -0.96 +0.00    +0.000 OA
DOCKED: ENDROOT
DOCKED: BRANCH   1  16
DOCKED: ATOM     16  C   UNL     1      15.839 -11.078  -1.915 -0.18 -0.00    +0.000 C 
DOCKED: BRANCH  16  17
DOCKED: ATOM     17  C   UNL     1      16.700 -10.070  -2.695 -0.24 -0.00    +0.000 C 
DOCKED: BRANCH  17  18
DOCKED: ATOM     18  C   UNL     1      18.163 -10.510  -2.894 -0.29 -0.00    +0.000 C 
DOCKED: BRANCH  18  19
DOCKED: ATOM     19  C   UNL     1      18.764 -11.306  -1.718 -0.37 -0.00    +0.000 C 
DOCKED: BRANCH  19  20
DOCKED: ATOM     20  C   UNL     1      19.560 -10.459  -0.713 -0.49 -0.00    +0.000 C 
DOCKED: BRANCH  20  22
DOCKED: ATOM     21  O   UNL     1      21.320 -11.347   0.638 -0.79 -0.00    +0.000 OA
DOCKED: ATOM     22  C   UNL     1      20.079 -11.281   0.431 -0.66 -0.00    +0.000 C 
DOCKED: ATOM     23  N   UNL     1      19.177 -12.015   1.264 -0.60 -0.00    +0.000 N 
DOCKED: ATOM     24  H   UNL     1      18.209 -11.969   1.095 -0.01 -0.00    +0.000 HD
DOCKED: BRANCH  23  25
DOCKED: ATOM     25  O   UNL     1      19.645 -12.776   2.282 -1.35 -0.00    +0.000 OA
DOCKED: ATOM     26  H   UNL     1      20.616 -12.762   2.277 -0.57 -0.00    +0.000 HD
DOCKED: ENDBRANCH  23  25
DOCKED: ENDBRANCH  20  22
DOCKED: ENDBRANCH  19  20
DOCKED: ENDBRANCH  18  19
DOCKED: ENDBRANCH  17  18
DOCKED: ENDBRANCH  16  17
DOCKED: ENDBRANCH   1  16
DOCKED: TORSDOF 7
DOCKED: TER
DOCKED: ENDMDL
________________________________________________________________________________


	BEGINNING GENETIC ALGORITHM DOCKING 52 of 100
Run: 52 Seed: 1408637816 1564511317 [ Run 52 of 100 GA/GALS ]
Beginning LAMARCKIAN GENETIC ALGORITHM (LGA), with a maximum of 2500000 energy evaluations.

Final-Value: -13.411


	FINAL GENETIC ALGORITHM DOCKED STATE
	_______________________________________________


Detailed state:  trans 16.561 -10.495 0.666 quatxyzw -0.501706 0.287767 0.134293 -0.804641 center 0.154 0.111 -0.146 ntor 7 -52.7540 -159.8199 -117.7091 55.8762 179.6250 78.8488 0.4206
State:	 16.561 -10.495   0.666  -0.845  0.485  0.226 -72.849    -52.75 -159.82 -117.71   55.88  179.62   78.85    0.42

DOCKED: MODEL       52
DOCKED: USER    Run = 52
DOCKED: USER    DPF = ligand_dock.biased.dpf
DOCKED: USER  
DOCKED: USER    Estimated Free Energy of Binding    =   -9.69 kcal/mol  [=(1)+(2)+(3)-(4)]
DOCKED: USER    Estimated Inhibition Constant, Ki   =   79.06 nM (nanomolar)  [Temperature = 298.15 K]
DOCKED: USER    
DOCKED: USER    (1) Final Intermolecular Energy     =  -11.78 kcal/mol
DOCKED: USER        vdW + Hbond + desolv Energy     =  -11.78 kcal/mol
DOCKED: USER        Electrostatic Energy            =   +0.00 kcal/mol
DOCKED: USER    (2) Final Total Internal Energy     =   -1.63 kcal/mol
DOCKED: USER    (3) Torsional Free Energy           =   +2.09 kcal/mol
DOCKED: USER    (4) Unbound System's Energy  [=(2)] =   -1.63 kcal/mol
DOCKED: USER    
DOCKED: USER    
DOCKED: USER    NEWDPF move ligand.pdbqt
DOCKED: USER    NEWDPF about 0.154000 0.111000 -0.146000
DOCKED: USER    NEWDPF tran0 16.561355 -10.495079 0.665576
DOCKED: USER    NEWDPF quaternion0 -0.501706 0.287767 0.134293 -0.804641
DOCKED: USER    NEWDPF axisangle0 -0.844961 0.484650 0.226174 -72.848817
DOCKED: USER    NEWDPF quat0 -0.844961 0.484650 0.226174 -72.848817
DOCKED: USER    NEWDPF dihe0 -52.75 -159.82 -117.71 55.88 179.62 78.85 0.42 
DOCKED: USER  keepresnum = 1 
DOCKED: USER  
DOCKED: REMARK  Name = 
DOCKED: REMARK  7 active torsions:
DOCKED: REMARK  status: ('A' for Active; 'I' for Inactive)
DOCKED: REMARK    1  A    between atoms: C_2  and  C_5
DOCKED: REMARK    2  A    between atoms: N_3  and  O_4
DOCKED: REMARK    3  A    between atoms: C_5  and  C_6
DOCKED: REMARK    4  A    between atoms: C_6  and  C_7
DOCKED: REMARK    5  A    between atoms: C_7  and  C_8
DOCKED: REMARK    6  A    between atoms: C_8  and  C_9
DOCKED: REMARK    7  A    between atoms: C_9  and  N_10
DOCKED: REMARK                            x       y       z     vdW  Elec       q    Type
DOCKED: REMARK                         _______ _______ _______ _____ _____    ______ ____
DOCKED: USER                              x       y       z     vdW  Elec       q    Type
DOCKED: USER                           _______ _______ _______ _____ _____    ______ ____
DOCKED: ROOT
DOCKED: ATOM      1  N   UNL     1      16.053 -11.809   1.176 -0.41 +0.00    +0.000 N 
DOCKED: ATOM      2  C   UNL     1      14.731 -11.851   0.604 -0.46 +0.00    +0.000 C 
DOCKED: ATOM      3  C   UNL     1      13.614 -11.137   1.263 -0.34 +0.00    +0.000 A 
DOCKED: ATOM      4  C   UNL     1      12.326 -11.152   0.700 -0.34 +0.00    +0.000 A 
DOCKED: ATOM      5  C   UNL     1      11.272 -10.477   1.318 -0.24 +0.00    +0.000 A 
DOCKED: ATOM      6  C   UNL     1      11.485  -9.779   2.507 -0.08 +0.00    +0.000 A 
DOCKED: ATOM      7  C   UNL     1      12.760  -9.750   3.089 -0.16 +0.00    +0.000 A 
DOCKED: ATOM      8  C   UNL     1      12.974  -9.049   4.284 -0.27 +0.00    +0.000 A 
DOCKED: ATOM      9  C   UNL     1      14.242  -9.022   4.864 -0.40 +0.00    +0.000 A 
DOCKED: ATOM     10  C   UNL     1      15.308  -9.691   4.261 -0.32 +0.00    +0.000 A 
DOCKED: ATOM     11  C   UNL     1      15.119 -10.401   3.062 -0.40 +0.00    +0.000 A 
DOCKED: ATOM     12  C   UNL     1      13.838 -10.433   2.468 -0.30 +0.00    +0.000 A 
DOCKED: ATOM     13  O   UNL     1      14.524 -12.499  -0.459 -0.54 +0.00    +0.000 OA
DOCKED: ATOM     14  C   UNL     1      16.251 -11.109   2.421 -0.47 +0.00    +0.000 C 
DOCKED: ATOM     15  O   UNL     1      17.387 -11.098   2.970 -0.53 +0.00    +0.000 OA
DOCKED: ENDROOT
DOCKED: BRANCH   1  16
DOCKED: ATOM     16  C   UNL     1      17.182 -12.442   0.475 -0.54 +0.00    +0.000 C 
DOCKED: BRANCH  16  17
DOCKED: ATOM     17  C   UNL     1      17.660 -11.589  -0.713 -0.40 -0.00    +0.000 C 
DOCKED: BRANCH  17  18
DOCKED: ATOM     18  C   UNL     1      19.187 -11.592  -0.920 -0.35 -0.00    +0.000 C 
DOCKED: BRANCH  18  19
DOCKED: ATOM     19  C   UNL     1      19.881 -10.247  -0.621 -0.52 -0.00    +0.000 C 
DOCKED: BRANCH  19  20
DOCKED: ATOM     20  C   UNL     1      20.976 -10.319   0.456 -0.68 -0.00    +0.000 C 
DOCKED: BRANCH  20  22
DOCKED: ATOM     21  O   UNL     1      19.842 -10.143   2.552 -0.70 -0.00    +0.000 OA
DOCKED: ATOM     22  C   UNL     1      20.460 -10.888   1.746 -0.70 -0.00    +0.000 C 
DOCKED: ATOM     23  N   UNL     1      20.696 -12.259   2.078 -0.65 -0.00    +0.000 N 
DOCKED: ATOM     24  H   UNL     1      21.186 -12.836   1.450 -0.56 -0.00    +0.000 HD
DOCKED: BRANCH  23  25
DOCKED: ATOM     25  O   UNL     1      20.251 -12.768   3.252 -0.93 -0.00    +0.000 OA
DOCKED: ATOM     26  H   UNL     1      20.559 -12.211   3.984 -0.48 -0.00    +0.000 HD
DOCKED: ENDBRANCH  23  25
DOCKED: ENDBRANCH  20  22
DOCKED: ENDBRANCH  19  20
DOCKED: ENDBRANCH  18  19
DOCKED: ENDBRANCH  17  18
DOCKED: ENDBRANCH  16  17
DOCKED: ENDBRANCH   1  16
DOCKED: TORSDOF 7
DOCKED: TER
DOCKED: ENDMDL
________________________________________________________________________________


	BEGINNING GENETIC ALGORITHM DOCKING 53 of 100
Run: 53 Seed: 2109455051 1757444903 [ Run 53 of 100 GA/GALS ]
Beginning LAMARCKIAN GENETIC ALGORITHM (LGA), with a maximum of 2500000 energy evaluations.

Final-Value: -13.217


	FINAL GENETIC ALGORITHM DOCKED STATE
	_______________________________________________


Detailed state:  trans 16.885 -10.448 1.931 quatxyzw -0.085103 0.259841 -0.285612 -0.918513 center 0.154 0.111 -0.146 ntor 7 43.5437 -15.6816 -93.0017 76.6408 151.9466 54.4552 -38.5024
State:	 16.885 -10.448   1.931  -0.215  0.657 -0.722 -46.581     43.54  -15.68  -93.00   76.64  151.95   54.46  -38.50

DOCKED: MODEL       53
DOCKED: USER    Run = 53
DOCKED: USER    DPF = ligand_dock.biased.dpf
DOCKED: USER  
DOCKED: USER    Estimated Free Energy of Binding    =  -10.13 kcal/mol  [=(1)+(2)+(3)-(4)]
DOCKED: USER    Estimated Inhibition Constant, Ki   =   37.83 nM (nanomolar)  [Temperature = 298.15 K]
DOCKED: USER    
DOCKED: USER    (1) Final Intermolecular Energy     =  -12.21 kcal/mol
DOCKED: USER        vdW + Hbond + desolv Energy     =  -12.21 kcal/mol
DOCKED: USER        Electrostatic Energy            =   +0.00 kcal/mol
DOCKED: USER    (2) Final Total Internal Energy     =   -1.00 kcal/mol
DOCKED: USER    (3) Torsional Free Energy           =   +2.09 kcal/mol
DOCKED: USER    (4) Unbound System's Energy  [=(2)] =   -1.00 kcal/mol
DOCKED: USER    
DOCKED: USER    
DOCKED: USER    NEWDPF move ligand.pdbqt
DOCKED: USER    NEWDPF about 0.154000 0.111000 -0.146000
DOCKED: USER    NEWDPF tran0 16.884830 -10.447789 1.930753
DOCKED: USER    NEWDPF quaternion0 -0.085103 0.259841 -0.285612 -0.918513
DOCKED: USER    NEWDPF axisangle0 -0.215237 0.657174 -0.722354 -46.580699
DOCKED: USER    NEWDPF quat0 -0.215237 0.657174 -0.722354 -46.580699
DOCKED: USER    NEWDPF dihe0 43.54 -15.68 -93.00 76.64 151.95 54.46 -38.50 
DOCKED: USER  keepresnum = 1 
DOCKED: USER  
DOCKED: REMARK  Name = 
DOCKED: REMARK  7 active torsions:
DOCKED: REMARK  status: ('A' for Active; 'I' for Inactive)
DOCKED: REMARK    1  A    between atoms: C_2  and  C_5
DOCKED: REMARK    2  A    between atoms: N_3  and  O_4
DOCKED: REMARK    3  A    between atoms: C_5  and  C_6
DOCKED: REMARK    4  A    between atoms: C_6  and  C_7
DOCKED: REMARK    5  A    between atoms: C_7  and  C_8
DOCKED: REMARK    6  A    between atoms: C_8  and  C_9
DOCKED: REMARK    7  A    between atoms: C_9  and  N_10
DOCKED: REMARK                            x       y       z     vdW  Elec       q    Type
DOCKED: REMARK                         _______ _______ _______ _____ _____    ______ ____
DOCKED: USER                              x       y       z     vdW  Elec       q    Type
DOCKED: USER                           _______ _______ _______ _____ _____    ______ ____
DOCKED: ROOT
DOCKED: ATOM      1  N   UNL     1      15.496 -10.699   1.428 -0.30 +0.00    +0.000 N 
DOCKED: ATOM      2  C   UNL     1      15.162  -9.425   0.846 -0.29 +0.00    +0.000 C 
DOCKED: ATOM      3  C   UNL     1      14.675  -8.321   1.705 -0.24 +0.00    +0.000 A 
DOCKED: ATOM      4  C   UNL     1      14.370  -7.066   1.149 -0.19 -0.00    +0.000 A 
DOCKED: ATOM      5  C   UNL     1      13.913  -6.024   1.958 -0.18 +0.00    +0.000 A 
DOCKED: ATOM      6  C   UNL     1      13.753  -6.217   3.330 -0.19 +0.00    +0.000 A 
DOCKED: ATOM      7  C   UNL     1      14.050  -7.460   3.907 -0.26 +0.00    +0.000 A 
DOCKED: ATOM      8  C   UNL     1      13.887  -7.654   5.286 -0.38 +0.00    +0.000 A 
DOCKED: ATOM      9  C   UNL     1      14.180  -8.890   5.860 -0.39 +0.00    +0.000 A 
DOCKED: ATOM     10  C   UNL     1      14.637  -9.944   5.068 -0.29 +0.00    +0.000 A 
DOCKED: ATOM     11  C   UNL     1      14.808  -9.775   3.682 -0.37 +0.00    +0.000 A 
DOCKED: ATOM     12  C   UNL     1      14.514  -8.525   3.093 -0.27 +0.00    +0.000 A 
DOCKED: ATOM     13  O   UNL     1      15.282  -9.247  -0.398 -0.29 -0.00    +0.000 OA
DOCKED: ATOM     14  C   UNL     1      15.295 -10.893   2.843 -0.49 +0.00    +0.000 C 
DOCKED: ATOM     15  O   UNL     1      15.532 -12.015   3.370 -0.55 +0.00    +0.000 OA
DOCKED: ENDROOT
DOCKED: BRANCH   1  16
DOCKED: ATOM     16  C   UNL     1      16.066 -11.768   0.591 -0.45 +0.00    +0.000 C 
DOCKED: BRANCH  16  17
DOCKED: ATOM     17  C   UNL     1      17.035 -11.205  -0.463 -0.39 -0.00    +0.000 C 
DOCKED: BRANCH  17  18
DOCKED: ATOM     18  C   UNL     1      18.483 -11.714  -0.324 -0.52 -0.00    +0.000 C 
DOCKED: BRANCH  18  19
DOCKED: ATOM     19  C   UNL     1      19.569 -10.641  -0.547 -0.53 -0.00    +0.000 C 
DOCKED: BRANCH  19  20
DOCKED: ATOM     20  C   UNL     1      20.795 -10.773   0.370 -0.70 -0.00    +0.000 C 
DOCKED: BRANCH  20  22
DOCKED: ATOM     21  O   UNL     1      19.967 -12.525   1.768 -1.67 -0.00    +0.000 OA
DOCKED: ATOM     22  C   UNL     1      20.439 -11.358   1.706 -0.76 -0.00    +0.000 C 
DOCKED: ATOM     23  N   UNL     1      20.601 -10.589   2.900 -0.64 -0.00    +0.000 N 
DOCKED: ATOM     24  H   UNL     1      20.962  -9.676   2.848 -0.59 -0.00    +0.000 HD
DOCKED: BRANCH  23  25
DOCKED: ATOM     25  O   UNL     1      20.259 -11.108   4.104 -0.80 -0.00    +0.000 OA
DOCKED: ATOM     26  H   UNL     1      20.576 -12.023   4.164 -0.47 -0.00    +0.000 HD
DOCKED: ENDBRANCH  23  25
DOCKED: ENDBRANCH  20  22
DOCKED: ENDBRANCH  19  20
DOCKED: ENDBRANCH  18  19
DOCKED: ENDBRANCH  17  18
DOCKED: ENDBRANCH  16  17
DOCKED: ENDBRANCH   1  16
DOCKED: TORSDOF 7
DOCKED: TER
DOCKED: ENDMDL
________________________________________________________________________________


	BEGINNING GENETIC ALGORITHM DOCKING 54 of 100
Run: 54 Seed: 175989316 903322471 [ Run 54 of 100 GA/GALS ]
Beginning LAMARCKIAN GENETIC ALGORITHM (LGA), with a maximum of 2500000 energy evaluations.

Final-Value: -13.114


	FINAL GENETIC ALGORITHM DOCKED STATE
	_______________________________________________


Detailed state:  trans 15.413 -9.702 0.321 quatxyzw 0.394216 -0.391889 -0.171137 0.813467 center 0.154 0.111 -0.146 ntor 7 2.2071 -7.3769 -91.5406 88.3317 -59.3870 -176.9740 152.7887
State:	 15.413  -9.702   0.321   0.678 -0.674 -0.294 71.128      2.21   -7.38  -91.54   88.33  -59.39 -176.97  152.79

DOCKED: MODEL       54
DOCKED: USER    Run = 54
DOCKED: USER    DPF = ligand_dock.biased.dpf
DOCKED: USER  
DOCKED: USER    Estimated Free Energy of Binding    =   -9.49 kcal/mol  [=(1)+(2)+(3)-(4)]
DOCKED: USER    Estimated Inhibition Constant, Ki   =  111.01 nM (nanomolar)  [Temperature = 298.15 K]
DOCKED: USER    
DOCKED: USER    (1) Final Intermolecular Energy     =  -11.58 kcal/mol
DOCKED: USER        vdW + Hbond + desolv Energy     =  -11.58 kcal/mol
DOCKED: USER        Electrostatic Energy            =   +0.00 kcal/mol
DOCKED: USER    (2) Final Total Internal Energy     =   -1.54 kcal/mol
DOCKED: USER    (3) Torsional Free Energy           =   +2.09 kcal/mol
DOCKED: USER    (4) Unbound System's Energy  [=(2)] =   -1.54 kcal/mol
DOCKED: USER    
DOCKED: USER    
DOCKED: USER    NEWDPF move ligand.pdbqt
DOCKED: USER    NEWDPF about 0.154000 0.111000 -0.146000
DOCKED: USER    NEWDPF tran0 15.412643 -9.702037 0.320651
DOCKED: USER    NEWDPF quaternion0 0.394216 -0.391889 -0.171137 0.813467
DOCKED: USER    NEWDPF axisangle0 0.677801 -0.673799 -0.294246 71.127882
DOCKED: USER    NEWDPF quat0 0.677801 -0.673799 -0.294246 71.127882
DOCKED: USER    NEWDPF dihe0 2.21 -7.38 -91.54 88.33 -59.39 -176.97 152.79 
DOCKED: USER  keepresnum = 1 
DOCKED: USER  
DOCKED: REMARK  Name = 
DOCKED: REMARK  7 active torsions:
DOCKED: REMARK  status: ('A' for Active; 'I' for Inactive)
DOCKED: REMARK    1  A    between atoms: C_2  and  C_5
DOCKED: REMARK    2  A    between atoms: N_3  and  O_4
DOCKED: REMARK    3  A    between atoms: C_5  and  C_6
DOCKED: REMARK    4  A    between atoms: C_6  and  C_7
DOCKED: REMARK    5  A    between atoms: C_7  and  C_8
DOCKED: REMARK    6  A    between atoms: C_8  and  C_9
DOCKED: REMARK    7  A    between atoms: C_9  and  N_10
DOCKED: REMARK                            x       y       z     vdW  Elec       q    Type
DOCKED: REMARK                         _______ _______ _______ _____ _____    ______ ____
DOCKED: USER                              x       y       z     vdW  Elec       q    Type
DOCKED: USER                           _______ _______ _______ _____ _____    ______ ____
DOCKED: ROOT
DOCKED: ATOM      1  N   UNL     1      14.862 -11.037   0.719 -0.29 +0.00    +0.000 N 
DOCKED: ATOM      2  C   UNL     1      13.454 -10.857   0.475 -0.33 +0.00    +0.000 C 
DOCKED: ATOM      3  C   UNL     1      12.606 -10.182   1.484 -0.22 +0.00    +0.000 A 
DOCKED: ATOM      4  C   UNL     1      11.236  -9.978   1.244 -0.18 +0.00    +0.000 A 
DOCKED: ATOM      5  C   UNL     1      10.436  -9.340   2.193 -0.13 +0.00    +0.000 A 
DOCKED: ATOM      6  C   UNL     1      10.989  -8.896   3.394 -0.10 +0.00    +0.000 A 
DOCKED: ATOM      7  C   UNL     1      12.352  -9.087   3.657 -0.16 +0.00    +0.000 A 
DOCKED: ATOM      8  C   UNL     1      12.907  -8.642   4.865 -0.32 +0.00    +0.000 A 
DOCKED: ATOM      9  C   UNL     1      14.263  -8.835   5.127 -0.41 +0.00    +0.000 A 
DOCKED: ATOM     10  C   UNL     1      15.079  -9.471   4.192 -0.36 +0.00    +0.000 A 
DOCKED: ATOM     11  C   UNL     1      14.546  -9.927   2.972 -0.32 +0.00    +0.000 A 
DOCKED: ATOM     12  C   UNL     1      13.174  -9.736   2.698 -0.23 +0.00    +0.000 A 
DOCKED: ATOM     13  O   UNL     1      12.941 -11.275  -0.600 -0.38 +0.00    +0.000 OA
DOCKED: ATOM     14  C   UNL     1      15.413 -10.601   1.978 -0.39 +0.00    +0.000 C 
DOCKED: ATOM     15  O   UNL     1      16.632 -10.793   2.239 -0.44 +0.00    +0.000 OA
DOCKED: ENDROOT
DOCKED: BRANCH   1  16
DOCKED: ATOM     16  C   UNL     1      15.723 -11.626  -0.320 -0.41 +0.00    +0.000 C 
DOCKED: BRANCH  16  17
DOCKED: ATOM     17  C   UNL     1      16.606 -12.751   0.248 -0.54 +0.00    +0.000 C 
DOCKED: BRANCH  17  18
DOCKED: ATOM     18  C   UNL     1      18.113 -12.428   0.255 -0.50 -0.00    +0.000 C 
DOCKED: BRANCH  18  19
DOCKED: ATOM     19  C   UNL     1      18.461 -10.963  -0.084 -0.47 -0.00    +0.000 C 
DOCKED: BRANCH  19  20
DOCKED: ATOM     20  C   UNL     1      19.798 -10.474   0.495 -0.59 -0.00    +0.000 C 
DOCKED: BRANCH  20  22
DOCKED: ATOM     21  O   UNL     1      20.482 -12.389   1.750 -1.59 -0.00    +0.000 OA
DOCKED: ATOM     22  C   UNL     1      20.147 -11.174   1.776 -0.74 -0.00    +0.000 C 
DOCKED: ATOM     23  N   UNL     1      20.069 -10.482   3.025 -0.66 -0.00    +0.000 N 
DOCKED: ATOM     24  H   UNL     1      19.799  -9.536   3.043 -0.53 -0.00    +0.000 HD
DOCKED: BRANCH  23  25
DOCKED: ATOM     25  O   UNL     1      20.362 -11.119   4.184 -0.76 -0.00    +0.000 OA
DOCKED: ATOM     26  H   UNL     1      20.641 -12.028   3.993 -0.54 -0.00    +0.000 HD
DOCKED: ENDBRANCH  23  25
DOCKED: ENDBRANCH  20  22
DOCKED: ENDBRANCH  19  20
DOCKED: ENDBRANCH  18  19
DOCKED: ENDBRANCH  17  18
DOCKED: ENDBRANCH  16  17
DOCKED: ENDBRANCH   1  16
DOCKED: TORSDOF 7
DOCKED: TER
DOCKED: ENDMDL
________________________________________________________________________________


	BEGINNING GENETIC ALGORITHM DOCKING 55 of 100
Run: 55 Seed: 1755114111 909593086 [ Run 55 of 100 GA/GALS ]
Beginning LAMARCKIAN GENETIC ALGORITHM (LGA), with a maximum of 2500000 energy evaluations.

Final-Value: -14.153


	FINAL GENETIC ALGORITHM DOCKED STATE
	_______________________________________________


Detailed state:  trans 19.002 -12.918 1.627 quatxyzw -0.749390 0.172291 0.112512 0.629342 center 0.154 0.111 -0.146 ntor 7 -2.0182 -163.7395 -115.9733 179.4324 76.8215 -169.7617 -154.8926
State:	 19.002 -12.918   1.627  -0.964  0.222  0.145 101.997     -2.02 -163.74 -115.97  179.43   76.82 -169.76 -154.89

DOCKED: MODEL       55
DOCKED: USER    Run = 55
DOCKED: USER    DPF = ligand_dock.biased.dpf
DOCKED: USER  
DOCKED: USER    Estimated Free Energy of Binding    =  -10.06 kcal/mol  [=(1)+(2)+(3)-(4)]
DOCKED: USER    Estimated Inhibition Constant, Ki   =   42.22 nM (nanomolar)  [Temperature = 298.15 K]
DOCKED: USER    
DOCKED: USER    (1) Final Intermolecular Energy     =  -12.15 kcal/mol
DOCKED: USER        vdW + Hbond + desolv Energy     =  -12.15 kcal/mol
DOCKED: USER        Electrostatic Energy            =   +0.00 kcal/mol
DOCKED: USER    (2) Final Total Internal Energy     =   -2.00 kcal/mol
DOCKED: USER    (3) Torsional Free Energy           =   +2.09 kcal/mol
DOCKED: USER    (4) Unbound System's Energy  [=(2)] =   -2.00 kcal/mol
DOCKED: USER    
DOCKED: USER    
DOCKED: USER    NEWDPF move ligand.pdbqt
DOCKED: USER    NEWDPF about 0.154000 0.111000 -0.146000
DOCKED: USER    NEWDPF tran0 19.001500 -12.918389 1.626839
DOCKED: USER    NEWDPF quaternion0 -0.749390 0.172291 0.112512 0.629342
DOCKED: USER    NEWDPF axisangle0 -0.964307 0.221702 0.144779 101.996879
DOCKED: USER    NEWDPF quat0 -0.964307 0.221702 0.144779 101.996879
DOCKED: USER    NEWDPF dihe0 -2.02 -163.74 -115.97 179.43 76.82 -169.76 -154.89 
DOCKED: USER  keepresnum = 1 
DOCKED: USER  
DOCKED: REMARK  Name = 
DOCKED: REMARK  7 active torsions:
DOCKED: REMARK  status: ('A' for Active; 'I' for Inactive)
DOCKED: REMARK    1  A    between atoms: C_2  and  C_5
DOCKED: REMARK    2  A    between atoms: N_3  and  O_4
DOCKED: REMARK    3  A    between atoms: C_5  and  C_6
DOCKED: REMARK    4  A    between atoms: C_6  and  C_7
DOCKED: REMARK    5  A    between atoms: C_7  and  C_8
DOCKED: REMARK    6  A    between atoms: C_8  and  C_9
DOCKED: REMARK    7  A    between atoms: C_9  and  N_10
DOCKED: REMARK                            x       y       z     vdW  Elec       q    Type
DOCKED: REMARK                         _______ _______ _______ _____ _____    ______ ____
DOCKED: USER                              x       y       z     vdW  Elec       q    Type
DOCKED: USER                           _______ _______ _______ _____ _____    ______ ____
DOCKED: ROOT
DOCKED: ATOM      1  N   UNL     1      18.969 -11.516   1.101 -0.52 -0.00    +0.000 N 
DOCKED: ATOM      2  C   UNL     1      18.450 -10.792   2.233 -0.57 -0.00    +0.000 C 
DOCKED: ATOM      3  C   UNL     1      16.991 -10.755   2.485 -0.43 +0.00    +0.000 A 
DOCKED: ATOM      4  C   UNL     1      16.476 -10.073   3.601 -0.33 +0.00    +0.000 A 
DOCKED: ATOM      5  C   UNL     1      15.102 -10.039   3.841 -0.41 +0.00    +0.000 A 
DOCKED: ATOM      6  C   UNL     1      14.220 -10.684   2.973 -0.36 +0.00    +0.000 A 
DOCKED: ATOM      7  C   UNL     1      14.709 -11.370   1.853 -0.40 +0.00    +0.000 A 
DOCKED: ATOM      8  C   UNL     1      13.823 -12.017   0.980 -0.41 +0.00    +0.000 A 
DOCKED: ATOM      9  C   UNL     1      14.308 -12.697  -0.135 -0.35 +0.00    +0.000 A 
DOCKED: ATOM     10  C   UNL     1      15.679 -12.742  -0.393 -0.47 +0.00    +0.000 A 
DOCKED: ATOM     11  C   UNL     1      16.589 -12.102   0.468 -0.44 +0.00    +0.000 A 
DOCKED: ATOM     12  C   UNL     1      16.105 -11.410   1.601 -0.39 +0.00    +0.000 A 
DOCKED: ATOM     13  O   UNL     1      19.238 -10.187   3.012 -0.70 -0.00    +0.000 OA
DOCKED: ATOM     14  C   UNL     1      18.043 -12.150   0.195 -0.54 -0.00    +0.000 C 
DOCKED: ATOM     15  O   UNL     1      18.468 -12.748  -0.831 -0.46 -0.00    +0.000 OA
DOCKED: ENDROOT
DOCKED: BRANCH   1  16
DOCKED: ATOM     16  C   UNL     1      20.423 -11.630   0.900 -0.68 -0.00    +0.000 C 
DOCKED: BRANCH  16  17
DOCKED: ATOM     17  C   UNL     1      21.012 -10.346   0.289 -0.70 -0.00    +0.000 C 
DOCKED: BRANCH  17  18
DOCKED: ATOM     18  C   UNL     1      21.395 -10.473  -1.198 -0.66 -0.00    +0.000 C 
DOCKED: BRANCH  18  19
DOCKED: ATOM     19  C   UNL     1      21.189  -9.190  -2.029 -0.55 -0.00    +0.000 C 
DOCKED: BRANCH  19  20
DOCKED: ATOM     20  C   UNL     1      20.111  -9.301  -3.119 -0.39 -0.00    +0.000 C 
DOCKED: BRANCH  20  22
DOCKED: ATOM     21  O   UNL     1      21.115 -10.333  -5.026 -0.40 -0.00    +0.000 OA
DOCKED: ATOM     22  C   UNL     1      20.352 -10.468  -4.033 -0.46 -0.00    +0.000 C 
DOCKED: ATOM     23  N   UNL     1      19.695 -11.716  -3.802 -0.41 -0.00    +0.000 N 
DOCKED: ATOM     24  H   UNL     1      19.093 -11.816  -3.030 -0.02 -0.00    +0.000 HD
DOCKED: BRANCH  23  25
DOCKED: ATOM     25  O   UNL     1      19.893 -12.763  -4.638 -0.63 -0.00    +0.000 OA
DOCKED: ATOM     26  H   UNL     1      20.483 -12.494  -5.360 -0.47 -0.00    +0.000 HD
DOCKED: ENDBRANCH  23  25
DOCKED: ENDBRANCH  20  22
DOCKED: ENDBRANCH  19  20
DOCKED: ENDBRANCH  18  19
DOCKED: ENDBRANCH  17  18
DOCKED: ENDBRANCH  16  17
DOCKED: ENDBRANCH   1  16
DOCKED: TORSDOF 7
DOCKED: TER
DOCKED: ENDMDL
________________________________________________________________________________


	BEGINNING GENETIC ALGORITHM DOCKING 56 of 100
Run: 56 Seed: 140929159 1772616219 [ Run 56 of 100 GA/GALS ]
Beginning LAMARCKIAN GENETIC ALGORITHM (LGA), with a maximum of 2500000 energy evaluations.

Final-Value: -13.336


	FINAL GENETIC ALGORITHM DOCKED STATE
	_______________________________________________


Detailed state:  trans 15.624 -9.512 2.339 quatxyzw 0.304380 0.878314 0.345304 0.129163 center 0.154 0.111 -0.146 ntor 7 -10.1086 -35.5166 -171.9154 -114.3302 -179.2929 50.4716 -22.2833
State:	 15.624  -9.512   2.339   0.307  0.886  0.348 165.158    -10.11  -35.52 -171.92 -114.33 -179.29   50.47  -22.28

DOCKED: MODEL       56
DOCKED: USER    Run = 56
DOCKED: USER    DPF = ligand_dock.biased.dpf
DOCKED: USER  
DOCKED: USER    Estimated Free Energy of Binding    =   -9.87 kcal/mol  [=(1)+(2)+(3)-(4)]
DOCKED: USER    Estimated Inhibition Constant, Ki   =   58.33 nM (nanomolar)  [Temperature = 298.15 K]
DOCKED: USER    
DOCKED: USER    (1) Final Intermolecular Energy     =  -11.96 kcal/mol
DOCKED: USER        vdW + Hbond + desolv Energy     =  -11.96 kcal/mol
DOCKED: USER        Electrostatic Energy            =   +0.00 kcal/mol
DOCKED: USER    (2) Final Total Internal Energy     =   -1.38 kcal/mol
DOCKED: USER    (3) Torsional Free Energy           =   +2.09 kcal/mol
DOCKED: USER    (4) Unbound System's Energy  [=(2)] =   -1.38 kcal/mol
DOCKED: USER    
DOCKED: USER    
DOCKED: USER    NEWDPF move ligand.pdbqt
DOCKED: USER    NEWDPF about 0.154000 0.111000 -0.146000
DOCKED: USER    NEWDPF tran0 15.623897 -9.511506 2.338569
DOCKED: USER    NEWDPF quaternion0 0.304380 0.878314 0.345304 0.129163
DOCKED: USER    NEWDPF axisangle0 0.306951 0.885733 0.348221 165.157553
DOCKED: USER    NEWDPF quat0 0.306951 0.885733 0.348221 165.157553
DOCKED: USER    NEWDPF dihe0 -10.11 -35.52 -171.92 -114.33 -179.29 50.47 -22.28 
DOCKED: USER  keepresnum = 1 
DOCKED: USER  
DOCKED: REMARK  Name = 
DOCKED: REMARK  7 active torsions:
DOCKED: REMARK  status: ('A' for Active; 'I' for Inactive)
DOCKED: REMARK    1  A    between atoms: C_2  and  C_5
DOCKED: REMARK    2  A    between atoms: N_3  and  O_4
DOCKED: REMARK    3  A    between atoms: C_5  and  C_6
DOCKED: REMARK    4  A    between atoms: C_6  and  C_7
DOCKED: REMARK    5  A    between atoms: C_7  and  C_8
DOCKED: REMARK    6  A    between atoms: C_8  and  C_9
DOCKED: REMARK    7  A    between atoms: C_9  and  N_10
DOCKED: REMARK                            x       y       z     vdW  Elec       q    Type
DOCKED: REMARK                         _______ _______ _______ _____ _____    ______ ____
DOCKED: USER                              x       y       z     vdW  Elec       q    Type
DOCKED: USER                           _______ _______ _______ _____ _____    ______ ____
DOCKED: ROOT
DOCKED: ATOM      1  N   UNL     1      15.675 -10.996   2.533 -0.41 +0.00    +0.000 N 
DOCKED: ATOM      2  C   UNL     1      16.905 -11.152   3.267 -0.33 +0.00    +0.000 C 
DOCKED: ATOM      3  C   UNL     1      18.199 -11.179   2.548 -0.45 -0.00    +0.000 A 
DOCKED: ATOM      4  C   UNL     1      19.407 -11.306   3.257 -0.61 -0.00    +0.000 A 
DOCKED: ATOM      5  C   UNL     1      20.628 -11.329   2.580 -0.62 -0.00    +0.000 A 
DOCKED: ATOM      6  C   UNL     1      20.664 -11.229   1.189 -0.65 -0.00    +0.000 A 
DOCKED: ATOM      7  C   UNL     1      19.473 -11.103   0.461 -0.54 -0.00    +0.000 A 
DOCKED: ATOM      8  C   UNL     1      19.509 -11.003  -0.938 -0.43 -0.00    +0.000 A 
DOCKED: ATOM      9  C   UNL     1      18.325 -10.880  -1.663 -0.32 -0.00    +0.000 A 
DOCKED: ATOM     10  C   UNL     1      17.094 -10.855  -1.005 -0.29 -0.00    +0.000 A 
DOCKED: ATOM     11  C   UNL     1      17.031 -10.953   0.396 -0.34 -0.00    +0.000 A 
DOCKED: ATOM     12  C   UNL     1      18.227 -11.078   1.139 -0.45 -0.00    +0.000 A 
DOCKED: ATOM     13  O   UNL     1      16.881 -11.266   4.523 -0.53 +0.00    +0.000 OA
DOCKED: ATOM     14  C   UNL     1      15.726 -10.925   1.094 -0.37 +0.00    +0.000 C 
DOCKED: ATOM     15  O   UNL     1      14.660 -10.839   0.425 -0.29 +0.00    +0.000 OA
DOCKED: ENDROOT
DOCKED: BRANCH   1  16
DOCKED: ATOM     16  C   UNL     1      14.395 -10.877   3.253 -0.43 +0.00    +0.000 C 
DOCKED: BRANCH  16  17
DOCKED: ATOM     17  C   UNL     1      14.439  -9.753   4.302 -0.44 +0.00    +0.000 C 
DOCKED: BRANCH  17  18
DOCKED: ATOM     18  C   UNL     1      13.495  -8.573   4.002 -0.30 +0.00    +0.000 C 
DOCKED: BRANCH  18  19
DOCKED: ATOM     19  C   UNL     1      14.205  -7.262   3.606 -0.29 +0.00    +0.000 C 
DOCKED: BRANCH  19  20
DOCKED: ATOM     20  C   UNL     1      15.363  -6.858   4.533 -0.45 +0.00    +0.000 C 
DOCKED: BRANCH  20  22
DOCKED: ATOM     21  O   UNL     1      13.887  -5.544   5.878 -1.03 +0.00    +0.000 OA
DOCKED: ATOM     22  C   UNL     1      15.029  -5.645   5.354 -0.45 +0.00    +0.000 C 
DOCKED: ATOM     23  N   UNL     1      15.985  -4.594   5.515 -0.49 -0.00    +0.000 N 
DOCKED: ATOM     24  H   UNL     1      16.872  -4.673   5.098 -0.56 -0.00    +0.000 HD
DOCKED: BRANCH  23  25
DOCKED: ATOM     25  O   UNL     1      15.677  -3.489   6.237 -0.60 +0.00    +0.000 OA
DOCKED: ATOM     26  H   UNL     1      14.729  -3.490   6.442 -0.27 +0.00    +0.000 HD
DOCKED: ENDBRANCH  23  25
DOCKED: ENDBRANCH  20  22
DOCKED: ENDBRANCH  19  20
DOCKED: ENDBRANCH  18  19
DOCKED: ENDBRANCH  17  18
DOCKED: ENDBRANCH  16  17
DOCKED: ENDBRANCH   1  16
DOCKED: TORSDOF 7
DOCKED: TER
DOCKED: ENDMDL
________________________________________________________________________________


	BEGINNING GENETIC ALGORITHM DOCKING 57 of 100
Run: 57 Seed: 1049065526 1087158117 [ Run 57 of 100 GA/GALS ]
Beginning LAMARCKIAN GENETIC ALGORITHM (LGA), with a maximum of 2500000 energy evaluations.

Final-Value: -13.498


	FINAL GENETIC ALGORITHM DOCKED STATE
	_______________________________________________


Detailed state:  trans 16.670 -12.956 -1.022 quatxyzw 0.006554 0.515346 -0.790069 -0.331913 center 0.154 0.111 -0.146 ntor 7 28.5438 68.0326 30.3161 115.9755 61.8133 -149.0983 -171.0541
State:	 16.670 -12.956  -1.022   0.007  0.546 -0.838 -141.230     28.54   68.03   30.32  115.98   61.81 -149.10 -171.05

DOCKED: MODEL       57
DOCKED: USER    Run = 57
DOCKED: USER    DPF = ligand_dock.biased.dpf
DOCKED: USER  
DOCKED: USER    Estimated Free Energy of Binding    =   -8.90 kcal/mol  [=(1)+(2)+(3)-(4)]
DOCKED: USER    Estimated Inhibition Constant, Ki   =  297.30 nM (nanomolar)  [Temperature = 298.15 K]
DOCKED: USER    
DOCKED: USER    (1) Final Intermolecular Energy     =  -10.99 kcal/mol
DOCKED: USER        vdW + Hbond + desolv Energy     =  -10.99 kcal/mol
DOCKED: USER        Electrostatic Energy            =   +0.00 kcal/mol
DOCKED: USER    (2) Final Total Internal Energy     =   -2.51 kcal/mol
DOCKED: USER    (3) Torsional Free Energy           =   +2.09 kcal/mol
DOCKED: USER    (4) Unbound System's Energy  [=(2)] =   -2.51 kcal/mol
DOCKED: USER    
DOCKED: USER    
DOCKED: USER    NEWDPF move ligand.pdbqt
DOCKED: USER    NEWDPF about 0.154000 0.111000 -0.146000
DOCKED: USER    NEWDPF tran0 16.670390 -12.956305 -1.021558
DOCKED: USER    NEWDPF quaternion0 0.006554 0.515346 -0.790069 -0.331913
DOCKED: USER    NEWDPF axisangle0 0.006948 0.546316 -0.837550 -141.230157
DOCKED: USER    NEWDPF quat0 0.006948 0.546316 -0.837550 -141.230157
DOCKED: USER    NEWDPF dihe0 28.54 68.03 30.32 115.98 61.81 -149.10 -171.05 
DOCKED: USER  keepresnum = 1 
DOCKED: USER  
DOCKED: REMARK  Name = 
DOCKED: REMARK  7 active torsions:
DOCKED: REMARK  status: ('A' for Active; 'I' for Inactive)
DOCKED: REMARK    1  A    between atoms: C_2  and  C_5
DOCKED: REMARK    2  A    between atoms: N_3  and  O_4
DOCKED: REMARK    3  A    between atoms: C_5  and  C_6
DOCKED: REMARK    4  A    between atoms: C_6  and  C_7
DOCKED: REMARK    5  A    between atoms: C_7  and  C_8
DOCKED: REMARK    6  A    between atoms: C_8  and  C_9
DOCKED: REMARK    7  A    between atoms: C_9  and  N_10
DOCKED: REMARK                            x       y       z     vdW  Elec       q    Type
DOCKED: REMARK                         _______ _______ _______ _____ _____    ______ ____
DOCKED: USER                              x       y       z     vdW  Elec       q    Type
DOCKED: USER                           _______ _______ _______ _____ _____    ______ ____
DOCKED: ROOT
DOCKED: ATOM      1  N   UNL     1      16.383 -11.509  -0.764 -0.33 +0.00    +0.000 N 
DOCKED: ATOM      2  C   UNL     1      17.283 -10.865  -1.686 -0.24 -0.00    +0.000 C 
DOCKED: ATOM      3  C   UNL     1      18.705 -10.670  -1.322 -0.33 -0.00    +0.000 A 
DOCKED: ATOM      4  C   UNL     1      19.597 -10.065  -2.225 -0.34 -0.00    +0.000 A 
DOCKED: ATOM      5  C   UNL     1      20.938  -9.883  -1.884 -0.53 -0.00    +0.000 A 
DOCKED: ATOM      6  C   UNL     1      21.410 -10.299  -0.640 -0.63 -0.00    +0.000 A 
DOCKED: ATOM      7  C   UNL     1      20.540 -10.904   0.278 -0.61 -0.00    +0.000 A 
DOCKED: ATOM      8  C   UNL     1      21.014 -11.322   1.530 -0.43 -0.00    +0.000 A 
DOCKED: ATOM      9  C   UNL     1      20.149 -11.921   2.444 -0.69 -0.00    +0.000 A 
DOCKED: ATOM     10  C   UNL     1      18.805 -12.112   2.122 -0.29 -0.00    +0.000 A 
DOCKED: ATOM     11  C   UNL     1      18.304 -11.702   0.873 -0.49 -0.00    +0.000 A 
DOCKED: ATOM     12  C   UNL     1      19.175 -11.094  -0.059 -0.48 -0.00    +0.000 A 
DOCKED: ATOM     13  O   UNL     1      16.860 -10.464  -2.806 -0.29 -0.00    +0.000 OA
DOCKED: ATOM     14  C   UNL     1      16.878 -11.905   0.531 -0.49 +0.00    +0.000 C 
DOCKED: ATOM     15  O   UNL     1      16.100 -12.425   1.376 -0.92 +0.00    +0.000 OA
DOCKED: ENDROOT
DOCKED: BRANCH   1  16
DOCKED: ATOM     16  C   UNL     1      14.991 -11.785  -1.160 -0.40 +0.00    +0.000 C 
DOCKED: BRANCH  16  17
DOCKED: ATOM     17  C   UNL     1      14.040 -10.670  -0.694 -0.30 +0.00    +0.000 C 
DOCKED: BRANCH  17  18
DOCKED: ATOM     18  C   UNL     1      13.530 -10.838   0.751 -0.33 +0.00    +0.000 C 
DOCKED: BRANCH  18  19
DOCKED: ATOM     19  C   UNL     1      13.659  -9.578   1.632 -0.23 +0.00    +0.000 C 
DOCKED: BRANCH  19  20
DOCKED: ATOM     20  C   UNL     1      13.197  -9.765   3.086 -0.27 +0.00    +0.000 C 
DOCKED: BRANCH  20  22
DOCKED: ATOM     21  O   UNL     1      14.344  -9.759   5.183 -0.52 +0.00    +0.000 OA
DOCKED: ATOM     22  C   UNL     1      14.329 -10.164   3.989 -0.43 +0.00    +0.000 C 
DOCKED: ATOM     23  N   UNL     1      15.402 -10.968   3.495 -0.50 +0.00    +0.000 N 
DOCKED: ATOM     24  H   UNL     1      15.391 -11.276   2.560 -0.01 +0.00    +0.000 HD
DOCKED: BRANCH  23  25
DOCKED: ATOM     25  O   UNL     1      16.434 -11.310   4.302 -0.61 +0.00    +0.000 OA
DOCKED: ATOM     26  H   UNL     1      16.127 -11.348   5.222 -0.30 +0.00    +0.000 HD
DOCKED: ENDBRANCH  23  25
DOCKED: ENDBRANCH  20  22
DOCKED: ENDBRANCH  19  20
DOCKED: ENDBRANCH  18  19
DOCKED: ENDBRANCH  17  18
DOCKED: ENDBRANCH  16  17
DOCKED: ENDBRANCH   1  16
DOCKED: TORSDOF 7
DOCKED: TER
DOCKED: ENDMDL
________________________________________________________________________________


	BEGINNING GENETIC ALGORITHM DOCKING 58 of 100
Run: 58 Seed: 1390070210 1978642577 [ Run 58 of 100 GA/GALS ]
Beginning LAMARCKIAN GENETIC ALGORITHM (LGA), with a maximum of 2500000 energy evaluations.

Final-Value: -13.639


	FINAL GENETIC ALGORITHM DOCKED STATE
	_______________________________________________


Detailed state:  trans 15.731 -9.937 0.320 quatxyzw -0.173818 -0.864121 -0.472294 0.004578 center 0.154 0.111 -0.146 ntor 7 107.0389 96.5242 33.5149 -100.5442 155.0738 -24.1174 -8.6285
State:	 15.731  -9.937   0.320  -0.174 -0.864 -0.472 179.475    107.04   96.52   33.51 -100.54  155.07  -24.12   -8.63

DOCKED: MODEL       58
DOCKED: USER    Run = 58
DOCKED: USER    DPF = ligand_dock.biased.dpf
DOCKED: USER  
DOCKED: USER    Estimated Free Energy of Binding    =   -8.77 kcal/mol  [=(1)+(2)+(3)-(4)]
DOCKED: USER    Estimated Inhibition Constant, Ki   =  375.85 nM (nanomolar)  [Temperature = 298.15 K]
DOCKED: USER    
DOCKED: USER    (1) Final Intermolecular Energy     =  -10.85 kcal/mol
DOCKED: USER        vdW + Hbond + desolv Energy     =  -10.85 kcal/mol
DOCKED: USER        Electrostatic Energy            =   +0.00 kcal/mol
DOCKED: USER    (2) Final Total Internal Energy     =   -2.79 kcal/mol
DOCKED: USER    (3) Torsional Free Energy           =   +2.09 kcal/mol
DOCKED: USER    (4) Unbound System's Energy  [=(2)] =   -2.79 kcal/mol
DOCKED: USER    
DOCKED: USER    
DOCKED: USER    NEWDPF move ligand.pdbqt
DOCKED: USER    NEWDPF about 0.154000 0.111000 -0.146000
DOCKED: USER    NEWDPF tran0 15.731323 -9.937344 0.319520
DOCKED: USER    NEWDPF quaternion0 -0.173818 -0.864121 -0.472294 0.004578
DOCKED: USER    NEWDPF axisangle0 -0.173820 -0.864130 -0.472299 179.475451
DOCKED: USER    NEWDPF quat0 -0.173820 -0.864130 -0.472299 179.475451
DOCKED: USER    NEWDPF dihe0 107.04 96.52 33.51 -100.54 155.07 -24.12 -8.63 
DOCKED: USER  keepresnum = 1 
DOCKED: USER  
DOCKED: REMARK  Name = 
DOCKED: REMARK  7 active torsions:
DOCKED: REMARK  status: ('A' for Active; 'I' for Inactive)
DOCKED: REMARK    1  A    between atoms: C_2  and  C_5
DOCKED: REMARK    2  A    between atoms: N_3  and  O_4
DOCKED: REMARK    3  A    between atoms: C_5  and  C_6
DOCKED: REMARK    4  A    between atoms: C_6  and  C_7
DOCKED: REMARK    5  A    between atoms: C_7  and  C_8
DOCKED: REMARK    6  A    between atoms: C_8  and  C_9
DOCKED: REMARK    7  A    between atoms: C_9  and  N_10
DOCKED: REMARK                            x       y       z     vdW  Elec       q    Type
DOCKED: REMARK                         _______ _______ _______ _____ _____    ______ ____
DOCKED: USER                              x       y       z     vdW  Elec       q    Type
DOCKED: USER                           _______ _______ _______ _____ _____    ______ ____
DOCKED: ROOT
DOCKED: ATOM      1  N   UNL     1      15.897 -11.426   0.276 -0.34 +0.00    +0.000 N 
DOCKED: ATOM      2  C   UNL     1      16.766 -11.655   1.402 -0.47 +0.00    +0.000 C 
DOCKED: ATOM      3  C   UNL     1      18.228 -11.466   1.263 -0.47 -0.00    +0.000 A 
DOCKED: ATOM      4  C   UNL     1      19.081 -11.663   2.363 -0.55 -0.00    +0.000 A 
DOCKED: ATOM      5  C   UNL     1      20.459 -11.483   2.233 -0.68 -0.00    +0.000 A 
DOCKED: ATOM      6  C   UNL     1      21.007 -11.105   1.007 -0.54 -0.00    +0.000 A 
DOCKED: ATOM      7  C   UNL     1      20.177 -10.903  -0.104 -0.56 -0.00    +0.000 A 
DOCKED: ATOM      8  C   UNL     1      20.728 -10.524  -1.337 -0.53 -0.00    +0.000 A 
DOCKED: ATOM      9  C   UNL     1      19.902 -10.326  -2.443 -0.42 -0.00    +0.000 A 
DOCKED: ATOM     10  C   UNL     1      18.522 -10.502  -2.334 -0.30 -0.00    +0.000 A 
DOCKED: ATOM     11  C   UNL     1      17.945 -10.881  -1.108 -0.33 -0.00    +0.000 A 
DOCKED: ATOM     12  C   UNL     1      18.775 -11.084   0.017 -0.45 -0.00    +0.000 A 
DOCKED: ATOM     13  O   UNL     1      16.282 -12.019   2.510 -0.43 +0.00    +0.000 OA
DOCKED: ATOM     14  C   UNL     1      16.481 -11.066  -0.992 -0.33 -0.00    +0.000 C 
DOCKED: ATOM     15  O   UNL     1      15.748 -10.909  -2.007 -0.31 -0.00    +0.000 OA
DOCKED: ENDROOT
DOCKED: BRANCH   1  16
DOCKED: ATOM     16  C   UNL     1      14.437 -11.525   0.437 -0.41 +0.00    +0.000 C 
DOCKED: BRANCH  16  17
DOCKED: ATOM     17  C   UNL     1      13.889 -10.403   1.336 -0.29 +0.00    +0.000 C 
DOCKED: BRANCH  17  18
DOCKED: ATOM     18  C   UNL     1      14.552  -9.031   1.106 -0.26 +0.00    +0.000 C 
DOCKED: BRANCH  18  19
DOCKED: ATOM     19  C   UNL     1      14.914  -8.265   2.396 -0.31 +0.00    +0.000 C 
DOCKED: BRANCH  19  20
DOCKED: ATOM     20  C   UNL     1      13.932  -8.473   3.559 -0.29 +0.00    +0.000 C 
DOCKED: BRANCH  20  22
DOCKED: ATOM     21  O   UNL     1      13.745  -9.770   5.558 -0.54 +0.00    +0.000 OA
DOCKED: ATOM     22  C   UNL     1      14.390  -9.553   4.497 -0.44 +0.00    +0.000 C 
DOCKED: ATOM     23  N   UNL     1      15.568 -10.310   4.210 -0.47 +0.00    +0.000 N 
DOCKED: ATOM     24  H   UNL     1      16.074 -10.133   3.385 -0.01 +0.00    +0.000 HD
DOCKED: BRANCH  23  25
DOCKED: ATOM     25  O   UNL     1      15.995 -11.269   5.066 -0.59 +0.00    +0.000 OA
DOCKED: ATOM     26  H   UNL     1      15.821 -12.145   4.684 -0.53 +0.00    +0.000 HD
DOCKED: ENDBRANCH  23  25
DOCKED: ENDBRANCH  20  22
DOCKED: ENDBRANCH  19  20
DOCKED: ENDBRANCH  18  19
DOCKED: ENDBRANCH  17  18
DOCKED: ENDBRANCH  16  17
DOCKED: ENDBRANCH   1  16
DOCKED: TORSDOF 7
DOCKED: TER
DOCKED: ENDMDL
________________________________________________________________________________


	BEGINNING GENETIC ALGORITHM DOCKING 59 of 100
Run: 59 Seed: 2026380931 2062232364 [ Run 59 of 100 GA/GALS ]
Beginning LAMARCKIAN GENETIC ALGORITHM (LGA), with a maximum of 2500000 energy evaluations.

Final-Value: -12.736


	FINAL GENETIC ALGORITHM DOCKED STATE
	_______________________________________________


Detailed state:  trans 19.498 -9.131 -1.616 quatxyzw -0.131665 0.441719 0.401474 -0.791433 center 0.154 0.111 -0.146 ntor 7 0.7838 -62.7877 117.6086 -89.6040 164.2080 50.0501 15.1596
State:	 19.498  -9.131  -1.616  -0.215  0.723  0.657 -75.361      0.78  -62.79  117.61  -89.60  164.21   50.05   15.16

DOCKED: MODEL       59
DOCKED: USER    Run = 59
DOCKED: USER    DPF = ligand_dock.biased.dpf
DOCKED: USER  
DOCKED: USER    Estimated Free Energy of Binding    =   -9.14 kcal/mol  [=(1)+(2)+(3)-(4)]
DOCKED: USER    Estimated Inhibition Constant, Ki   =  198.41 nM (nanomolar)  [Temperature = 298.15 K]
DOCKED: USER    
DOCKED: USER    (1) Final Intermolecular Energy     =  -11.23 kcal/mol
DOCKED: USER        vdW + Hbond + desolv Energy     =  -11.23 kcal/mol
DOCKED: USER        Electrostatic Energy            =   +0.00 kcal/mol
DOCKED: USER    (2) Final Total Internal Energy     =   -1.50 kcal/mol
DOCKED: USER    (3) Torsional Free Energy           =   +2.09 kcal/mol
DOCKED: USER    (4) Unbound System's Energy  [=(2)] =   -1.50 kcal/mol
DOCKED: USER    
DOCKED: USER    
DOCKED: USER    NEWDPF move ligand.pdbqt
DOCKED: USER    NEWDPF about 0.154000 0.111000 -0.146000
DOCKED: USER    NEWDPF tran0 19.497790 -9.130851 -1.616100
DOCKED: USER    NEWDPF quaternion0 -0.131665 0.441719 0.401474 -0.791433
DOCKED: USER    NEWDPF axisangle0 -0.215401 0.722642 0.656803 -75.360648
DOCKED: USER    NEWDPF quat0 -0.215401 0.722642 0.656803 -75.360648
DOCKED: USER    NEWDPF dihe0 0.78 -62.79 117.61 -89.60 164.21 50.05 15.16 
DOCKED: USER  keepresnum = 1 
DOCKED: USER  
DOCKED: REMARK  Name = 
DOCKED: REMARK  7 active torsions:
DOCKED: REMARK  status: ('A' for Active; 'I' for Inactive)
DOCKED: REMARK    1  A    between atoms: C_2  and  C_5
DOCKED: REMARK    2  A    between atoms: N_3  and  O_4
DOCKED: REMARK    3  A    between atoms: C_5  and  C_6
DOCKED: REMARK    4  A    between atoms: C_6  and  C_7
DOCKED: REMARK    5  A    between atoms: C_7  and  C_8
DOCKED: REMARK    6  A    between atoms: C_8  and  C_9
DOCKED: REMARK    7  A    between atoms: C_9  and  N_10
DOCKED: REMARK                            x       y       z     vdW  Elec       q    Type
DOCKED: REMARK                         _______ _______ _______ _____ _____    ______ ____
DOCKED: USER                              x       y       z     vdW  Elec       q    Type
DOCKED: USER                           _______ _______ _______ _____ _____    ______ ____
DOCKED: ROOT
DOCKED: ATOM      1  N   UNL     1      19.174 -10.567  -1.893 -0.39 -0.00    +0.000 N 
DOCKED: ATOM      2  C   UNL     1      17.777 -10.623  -1.546 -0.29 -0.00    +0.000 C 
DOCKED: ATOM      3  C   UNL     1      17.370 -10.781  -0.131 -0.31 -0.00    +0.000 A 
DOCKED: ATOM      4  C   UNL     1      16.009 -10.812   0.221 -0.30 +0.00    +0.000 A 
DOCKED: ATOM      5  C   UNL     1      15.623 -10.958   1.554 -0.34 +0.00    +0.000 A 
DOCKED: ATOM      6  C   UNL     1      16.586 -11.077   2.556 -0.41 +0.00    +0.000 A 
DOCKED: ATOM      7  C   UNL     1      17.950 -11.049   2.230 -0.45 -0.00    +0.000 A 
DOCKED: ATOM      8  C   UNL     1      18.918 -11.170   3.238 -0.51 -0.00    +0.000 A 
DOCKED: ATOM      9  C   UNL     1      20.274 -11.146   2.914 -0.67 -0.00    +0.000 A 
DOCKED: ATOM     10  C   UNL     1      20.679 -11.001   1.586 -0.59 -0.00    +0.000 A 
DOCKED: ATOM     11  C   UNL     1      19.728 -10.878   0.558 -0.56 -0.00    +0.000 A 
DOCKED: ATOM     12  C   UNL     1      18.352 -10.901   0.878 -0.43 -0.00    +0.000 A 
DOCKED: ATOM     13  O   UNL     1      16.898 -10.539  -2.448 -0.30 -0.00    +0.000 OA
DOCKED: ATOM     14  C   UNL     1      20.158 -10.723  -0.850 -0.56 -0.00    +0.000 C 
DOCKED: ATOM     15  O   UNL     1      21.388 -10.728  -1.133 -0.69 -0.00    +0.000 OA
DOCKED: ENDROOT
DOCKED: BRANCH   1  16
DOCKED: ATOM     16  C   UNL     1      19.581 -10.320  -3.286 -0.42 -0.00    +0.000 C 
DOCKED: BRANCH  16  17
DOCKED: ATOM     17  C   UNL     1      19.768  -8.818  -3.562 -0.28 -0.00    +0.000 C 
DOCKED: BRANCH  17  18
DOCKED: ATOM     18  C   UNL     1      21.222  -8.409  -3.870 -0.37 -0.00    +0.000 C 
DOCKED: BRANCH  18  19
DOCKED: ATOM     19  C   UNL     1      21.768  -7.262  -2.995 -0.30 -0.00    +0.000 C 
DOCKED: BRANCH  19  20
DOCKED: ATOM     20  C   UNL     1      20.689  -6.351  -2.389 -0.33 -0.00    +0.000 C 
DOCKED: BRANCH  20  22
DOCKED: ATOM     21  O   UNL     1      22.513  -5.006  -1.630 -0.72 +0.00    +0.000 OA
DOCKED: ATOM     22  C   UNL     1      21.282  -5.262  -1.542 -0.42 +0.00    +0.000 C 
DOCKED: ATOM     23  N   UNL     1      20.467  -4.540  -0.615 -0.45 +0.00    +0.000 N 
DOCKED: ATOM     24  H   UNL     1      19.508  -4.747  -0.543 -0.06 -0.00    +0.000 HD
DOCKED: BRANCH  23  25
DOCKED: ATOM     25  O   UNL     1      21.005  -3.572   0.165 -1.06 +0.00    +0.000 OA
DOCKED: ATOM     26  H   UNL     1      21.951  -3.483  -0.035 -0.04 +0.00    +0.000 HD
DOCKED: ENDBRANCH  23  25
DOCKED: ENDBRANCH  20  22
DOCKED: ENDBRANCH  19  20
DOCKED: ENDBRANCH  18  19
DOCKED: ENDBRANCH  17  18
DOCKED: ENDBRANCH  16  17
DOCKED: ENDBRANCH   1  16
DOCKED: TORSDOF 7
DOCKED: TER
DOCKED: ENDMDL
________________________________________________________________________________


	BEGINNING GENETIC ALGORITHM DOCKING 60 of 100
Run: 60 Seed: 1408328743 1570058531 [ Run 60 of 100 GA/GALS ]
Beginning LAMARCKIAN GENETIC ALGORITHM (LGA), with a maximum of 2500000 energy evaluations.

Final-Value: -13.199


	FINAL GENETIC ALGORITHM DOCKED STATE
	_______________________________________________


Detailed state:  trans 18.652 -9.677 -1.734 quatxyzw -0.059280 0.280790 0.129705 -0.949115 center 0.154 0.111 -0.146 ntor 7 -162.1665 -108.2803 -179.7479 73.8754 -170.9851 30.2323 15.6584
State:	 18.652  -9.677  -1.734  -0.188  0.892  0.412 -36.713   -162.17 -108.28 -179.75   73.88 -170.99   30.23   15.66

DOCKED: MODEL       60
DOCKED: USER    Run = 60
DOCKED: USER    DPF = ligand_dock.biased.dpf
DOCKED: USER  
DOCKED: USER    Estimated Free Energy of Binding    =   -9.24 kcal/mol  [=(1)+(2)+(3)-(4)]
DOCKED: USER    Estimated Inhibition Constant, Ki   =  168.00 nM (nanomolar)  [Temperature = 298.15 K]
DOCKED: USER    
DOCKED: USER    (1) Final Intermolecular Energy     =  -11.33 kcal/mol
DOCKED: USER        vdW + Hbond + desolv Energy     =  -11.33 kcal/mol
DOCKED: USER        Electrostatic Energy            =   +0.00 kcal/mol
DOCKED: USER    (2) Final Total Internal Energy     =   -1.87 kcal/mol
DOCKED: USER    (3) Torsional Free Energy           =   +2.09 kcal/mol
DOCKED: USER    (4) Unbound System's Energy  [=(2)] =   -1.87 kcal/mol
DOCKED: USER    
DOCKED: USER    
DOCKED: USER    NEWDPF move ligand.pdbqt
DOCKED: USER    NEWDPF about 0.154000 0.111000 -0.146000
DOCKED: USER    NEWDPF tran0 18.652044 -9.677076 -1.734160
DOCKED: USER    NEWDPF quaternion0 -0.059280 0.280790 0.129705 -0.949115
DOCKED: USER    NEWDPF axisangle0 -0.188231 0.891597 0.411855 -36.713142
DOCKED: USER    NEWDPF quat0 -0.188231 0.891597 0.411855 -36.713142
DOCKED: USER    NEWDPF dihe0 -162.17 -108.28 -179.75 73.88 -170.99 30.23 15.66 
DOCKED: USER  keepresnum = 1 
DOCKED: USER  
DOCKED: REMARK  Name = 
DOCKED: REMARK  7 active torsions:
DOCKED: REMARK  status: ('A' for Active; 'I' for Inactive)
DOCKED: REMARK    1  A    between atoms: C_2  and  C_5
DOCKED: REMARK    2  A    between atoms: N_3  and  O_4
DOCKED: REMARK    3  A    between atoms: C_5  and  C_6
DOCKED: REMARK    4  A    between atoms: C_6  and  C_7
DOCKED: REMARK    5  A    between atoms: C_7  and  C_8
DOCKED: REMARK    6  A    between atoms: C_8  and  C_9
DOCKED: REMARK    7  A    between atoms: C_9  and  N_10
DOCKED: REMARK                            x       y       z     vdW  Elec       q    Type
DOCKED: REMARK                         _______ _______ _______ _____ _____    ______ ____
DOCKED: USER                              x       y       z     vdW  Elec       q    Type
DOCKED: USER                           _______ _______ _______ _____ _____    ______ ____
DOCKED: ROOT
DOCKED: ATOM      1  N   UNL     1      17.755 -10.715  -2.337 -0.24 -0.00    +0.000 N 
DOCKED: ATOM      2  C   UNL     1      16.541  -9.967  -2.542 -0.22 -0.00    +0.000 C 
DOCKED: ATOM      3  C   UNL     1      15.594  -9.767  -1.421 -0.22 -0.00    +0.000 A 
DOCKED: ATOM      4  C   UNL     1      14.419  -9.017  -1.605 -0.20 -0.00    +0.000 A 
DOCKED: ATOM      5  C   UNL     1      13.526  -8.826  -0.548 -0.16 -0.00    +0.000 A 
DOCKED: ATOM      6  C   UNL     1      13.791  -9.379   0.705 -0.18 +0.00    +0.000 A 
DOCKED: ATOM      7  C   UNL     1      14.956 -10.131   0.912 -0.25 +0.00    +0.000 A 
DOCKED: ATOM      8  C   UNL     1      15.220 -10.687   2.172 -0.36 +0.00    +0.000 A 
DOCKED: ATOM      9  C   UNL     1      16.378 -11.437   2.378 -0.35 +0.00    +0.000 A 
DOCKED: ATOM     10  C   UNL     1      17.282 -11.640   1.335 -0.42 +0.00    +0.000 A 
DOCKED: ATOM     11  C   UNL     1      17.039 -11.092   0.062 -0.35 -0.00    +0.000 A 
DOCKED: ATOM     12  C   UNL     1      15.869 -10.331  -0.155 -0.27 +0.00    +0.000 A 
DOCKED: ATOM     13  O   UNL     1      16.282  -9.482  -3.678 -0.23 -0.00    +0.000 OA
DOCKED: ATOM     14  C   UNL     1      17.999 -11.306  -1.045 -0.39 -0.00    +0.000 C 
DOCKED: ATOM     15  O   UNL     1      19.029 -12.008  -0.852 -0.47 -0.00    +0.000 OA
DOCKED: ENDROOT
DOCKED: BRANCH   1  16
DOCKED: ATOM     16  C   UNL     1      18.740 -10.838  -3.424 -0.29 -0.00    +0.000 C 
DOCKED: BRANCH  16  17
DOCKED: ATOM     17  C   UNL     1      19.795  -9.720  -3.360 -0.38 -0.00    +0.000 C 
DOCKED: BRANCH  17  18
DOCKED: ATOM     18  C   UNL     1      21.076 -10.104  -2.594 -0.56 -0.00    +0.000 C 
DOCKED: BRANCH  18  19
DOCKED: ATOM     19  C   UNL     1      21.165  -9.541  -1.161 -0.64 -0.00    +0.000 C 
DOCKED: BRANCH  19  20
DOCKED: ATOM     20  C   UNL     1      21.745 -10.517  -0.126 -0.61 -0.00    +0.000 C 
DOCKED: BRANCH  20  22
DOCKED: ATOM     21  O   UNL     1      19.890  -9.996   1.287 -0.63 -0.00    +0.000 OA
DOCKED: ATOM     22  C   UNL     1      20.755 -10.850   0.953 -0.68 -0.00    +0.000 C 
DOCKED: ATOM     23  N   UNL     1      20.809 -12.111   1.623 -0.71 -0.00    +0.000 N 
DOCKED: ATOM     24  H   UNL     1      21.491 -12.772   1.365 -0.54 -0.00    +0.000 HD
DOCKED: BRANCH  23  25
DOCKED: ATOM     25  O   UNL     1      19.930 -12.404   2.611 -1.40 -0.00    +0.000 OA
DOCKED: ATOM     26  H   UNL     1      20.269 -13.147   3.136 -0.57 -0.00    +0.000 HD
DOCKED: ENDBRANCH  23  25
DOCKED: ENDBRANCH  20  22
DOCKED: ENDBRANCH  19  20
DOCKED: ENDBRANCH  18  19
DOCKED: ENDBRANCH  17  18
DOCKED: ENDBRANCH  16  17
DOCKED: ENDBRANCH   1  16
DOCKED: TORSDOF 7
DOCKED: TER
DOCKED: ENDMDL
________________________________________________________________________________


	BEGINNING GENETIC ALGORITHM DOCKING 61 of 100
Run: 61 Seed: 464229087 75851319 [ Run 61 of 100 GA/GALS ]
Beginning LAMARCKIAN GENETIC ALGORITHM (LGA), with a maximum of 2500000 energy evaluations.

Final-Value: -13.062


	FINAL GENETIC ALGORITHM DOCKED STATE
	_______________________________________________


Detailed state:  trans 15.642 -9.526 2.167 quatxyzw -0.296589 -0.881614 -0.348904 -0.114271 center 0.154 0.111 -0.146 ntor 7 0.1346 146.3764 120.2150 -137.5625 -179.0860 -80.6909 29.9599
State:	 15.642  -9.526   2.167  -0.299 -0.887 -0.351 -166.877      0.13  146.38  120.22 -137.56 -179.09  -80.69   29.96

DOCKED: MODEL       61
DOCKED: USER    Run = 61
DOCKED: USER    DPF = ligand_dock.biased.dpf
DOCKED: USER  
DOCKED: USER    Estimated Free Energy of Binding    =   -9.49 kcal/mol  [=(1)+(2)+(3)-(4)]
DOCKED: USER    Estimated Inhibition Constant, Ki   =  110.39 nM (nanomolar)  [Temperature = 298.15 K]
DOCKED: USER    
DOCKED: USER    (1) Final Intermolecular Energy     =  -11.58 kcal/mol
DOCKED: USER        vdW + Hbond + desolv Energy     =  -11.58 kcal/mol
DOCKED: USER        Electrostatic Energy            =   +0.00 kcal/mol
DOCKED: USER    (2) Final Total Internal Energy     =   -1.48 kcal/mol
DOCKED: USER    (3) Torsional Free Energy           =   +2.09 kcal/mol
DOCKED: USER    (4) Unbound System's Energy  [=(2)] =   -1.48 kcal/mol
DOCKED: USER    
DOCKED: USER    
DOCKED: USER    NEWDPF move ligand.pdbqt
DOCKED: USER    NEWDPF about 0.154000 0.111000 -0.146000
DOCKED: USER    NEWDPF tran0 15.642487 -9.525722 2.167021
DOCKED: USER    NEWDPF quaternion0 -0.296589 -0.881614 -0.348904 -0.114271
DOCKED: USER    NEWDPF axisangle0 -0.298544 -0.887427 -0.351205 -166.876842
DOCKED: USER    NEWDPF quat0 -0.298544 -0.887427 -0.351205 -166.876842
DOCKED: USER    NEWDPF dihe0 0.13 146.38 120.22 -137.56 -179.09 -80.69 29.96 
DOCKED: USER  keepresnum = 1 
DOCKED: USER  
DOCKED: REMARK  Name = 
DOCKED: REMARK  7 active torsions:
DOCKED: REMARK  status: ('A' for Active; 'I' for Inactive)
DOCKED: REMARK    1  A    between atoms: C_2  and  C_5
DOCKED: REMARK    2  A    between atoms: N_3  and  O_4
DOCKED: REMARK    3  A    between atoms: C_5  and  C_6
DOCKED: REMARK    4  A    between atoms: C_6  and  C_7
DOCKED: REMARK    5  A    between atoms: C_7  and  C_8
DOCKED: REMARK    6  A    between atoms: C_8  and  C_9
DOCKED: REMARK    7  A    between atoms: C_9  and  N_10
DOCKED: REMARK                            x       y       z     vdW  Elec       q    Type
DOCKED: REMARK                         _______ _______ _______ _____ _____    ______ ____
DOCKED: USER                              x       y       z     vdW  Elec       q    Type
DOCKED: USER                           _______ _______ _______ _____ _____    ______ ____
DOCKED: ROOT
DOCKED: ATOM      1  N   UNL     1      15.693 -11.010   2.368 -0.40 +0.00    +0.000 N 
DOCKED: ATOM      2  C   UNL     1      16.898 -11.157   3.144 -0.36 +0.00    +0.000 C 
DOCKED: ATOM      3  C   UNL     1      18.217 -11.181   2.470 -0.46 -0.00    +0.000 A 
DOCKED: ATOM      4  C   UNL     1      19.400 -11.300   3.221 -0.61 -0.00    +0.000 A 
DOCKED: ATOM      5  C   UNL     1      20.643 -11.320   2.587 -0.61 -0.00    +0.000 A 
DOCKED: ATOM      6  C   UNL     1      20.726 -11.223   1.198 -0.62 -0.00    +0.000 A 
DOCKED: ATOM      7  C   UNL     1      19.561 -11.105   0.428 -0.54 -0.00    +0.000 A 
DOCKED: ATOM      8  C   UNL     1      19.645 -11.009  -0.968 -0.42 -0.00    +0.000 A 
DOCKED: ATOM      9  C   UNL     1      18.486 -10.894  -1.734 -0.34 -0.00    +0.000 A 
DOCKED: ATOM     10  C   UNL     1      17.234 -10.872  -1.120 -0.29 -0.00    +0.000 A 
DOCKED: ATOM     11  C   UNL     1      17.123 -10.967   0.279 -0.34 -0.00    +0.000 A 
DOCKED: ATOM     12  C   UNL     1      18.292 -11.084   1.063 -0.45 -0.00    +0.000 A 
DOCKED: ATOM     13  O   UNL     1      16.831 -11.268   4.399 -0.57 +0.00    +0.000 OA
DOCKED: ATOM     14  C   UNL     1      15.793 -10.942   0.931 -0.37 +0.00    +0.000 C 
DOCKED: ATOM     15  O   UNL     1      14.751 -10.863   0.225 -0.29 +0.00    +0.000 OA
DOCKED: ENDROOT
DOCKED: BRANCH   1  16
DOCKED: ATOM     16  C   UNL     1      14.389 -10.894   3.042 -0.44 +0.00    +0.000 C 
DOCKED: BRANCH  16  17
DOCKED: ATOM     17  C   UNL     1      13.853  -9.453   2.994 -0.30 +0.00    +0.000 C 
DOCKED: BRANCH  17  18
DOCKED: ATOM     18  C   UNL     1      14.918  -8.395   2.648 -0.32 +0.00    +0.000 C 
DOCKED: BRANCH  18  19
DOCKED: ATOM     19  C   UNL     1      15.304  -7.462   3.814 -0.36 +0.00    +0.000 C 
DOCKED: BRANCH  19  20
DOCKED: ATOM     20  C   UNL     1      14.220  -6.444   4.203 -0.33 +0.00    +0.000 C 
DOCKED: BRANCH  20  22
DOCKED: ATOM     21  O   UNL     1      13.895  -5.277   6.263 -1.06 +0.00    +0.000 OA
DOCKED: ATOM     22  C   UNL     1      14.674  -5.531   5.306 -0.47 +0.00    +0.000 C 
DOCKED: ATOM     23  N   UNL     1      15.968  -4.925   5.258 -0.43 -0.00    +0.000 N 
DOCKED: ATOM     24  H   UNL     1      16.571  -5.119   4.506 -0.52 -0.00    +0.000 HD
DOCKED: BRANCH  23  25
DOCKED: ATOM     25  O   UNL     1      16.370  -4.084   6.241 -0.64 -0.00    +0.000 OA
DOCKED: ATOM     26  H   UNL     1      15.666  -4.001   6.904 -0.04 +0.00    +0.000 HD
DOCKED: ENDBRANCH  23  25
DOCKED: ENDBRANCH  20  22
DOCKED: ENDBRANCH  19  20
DOCKED: ENDBRANCH  18  19
DOCKED: ENDBRANCH  17  18
DOCKED: ENDBRANCH  16  17
DOCKED: ENDBRANCH   1  16
DOCKED: TORSDOF 7
DOCKED: TER
DOCKED: ENDMDL
________________________________________________________________________________


	BEGINNING GENETIC ALGORITHM DOCKING 62 of 100
Run: 62 Seed: 121378142 1817271881 [ Run 62 of 100 GA/GALS ]
Beginning LAMARCKIAN GENETIC ALGORITHM (LGA), with a maximum of 2500000 energy evaluations.

Final-Value: -12.317


	FINAL GENETIC ALGORITHM DOCKED STATE
	_______________________________________________


Detailed state:  trans 14.340 -8.848 1.836 quatxyzw 0.416899 0.888389 -0.123536 0.147310 center 0.154 0.111 -0.146 ntor 7 -1.0574 107.0277 96.0926 -152.7913 134.1132 -174.4067 -33.6071
State:	 14.340  -8.848   1.836   0.421  0.898 -0.125 163.058     -1.06  107.03   96.09 -152.79  134.11 -174.41  -33.61

DOCKED: MODEL       62
DOCKED: USER    Run = 62
DOCKED: USER    DPF = ligand_dock.biased.dpf
DOCKED: USER  
DOCKED: USER    Estimated Free Energy of Binding    =   -9.17 kcal/mol  [=(1)+(2)+(3)-(4)]
DOCKED: USER    Estimated Inhibition Constant, Ki   =  189.23 nM (nanomolar)  [Temperature = 298.15 K]
DOCKED: USER    
DOCKED: USER    (1) Final Intermolecular Energy     =  -11.26 kcal/mol
DOCKED: USER        vdW + Hbond + desolv Energy     =  -11.26 kcal/mol
DOCKED: USER        Electrostatic Energy            =   +0.00 kcal/mol
DOCKED: USER    (2) Final Total Internal Energy     =   -1.06 kcal/mol
DOCKED: USER    (3) Torsional Free Energy           =   +2.09 kcal/mol
DOCKED: USER    (4) Unbound System's Energy  [=(2)] =   -1.06 kcal/mol
DOCKED: USER    
DOCKED: USER    
DOCKED: USER    NEWDPF move ligand.pdbqt
DOCKED: USER    NEWDPF about 0.154000 0.111000 -0.146000
DOCKED: USER    NEWDPF tran0 14.340100 -8.848151 1.835745
DOCKED: USER    NEWDPF quaternion0 0.416899 0.888389 -0.123536 0.147310
DOCKED: USER    NEWDPF axisangle0 0.421497 0.898187 -0.124898 163.057919
DOCKED: USER    NEWDPF quat0 0.421497 0.898187 -0.124898 163.057919
DOCKED: USER    NEWDPF dihe0 -1.06 107.03 96.09 -152.79 134.11 -174.41 -33.61 
DOCKED: USER  keepresnum = 1 
DOCKED: USER  
DOCKED: REMARK  Name = 
DOCKED: REMARK  7 active torsions:
DOCKED: REMARK  status: ('A' for Active; 'I' for Inactive)
DOCKED: REMARK    1  A    between atoms: C_2  and  C_5
DOCKED: REMARK    2  A    between atoms: N_3  and  O_4
DOCKED: REMARK    3  A    between atoms: C_5  and  C_6
DOCKED: REMARK    4  A    between atoms: C_6  and  C_7
DOCKED: REMARK    5  A    between atoms: C_7  and  C_8
DOCKED: REMARK    6  A    between atoms: C_8  and  C_9
DOCKED: REMARK    7  A    between atoms: C_9  and  N_10
DOCKED: REMARK                            x       y       z     vdW  Elec       q    Type
DOCKED: REMARK                         _______ _______ _______ _____ _____    ______ ____
DOCKED: USER                              x       y       z     vdW  Elec       q    Type
DOCKED: USER                           _______ _______ _______ _____ _____    ______ ____
DOCKED: ROOT
DOCKED: ATOM      1  N   UNL     1      14.631  -9.663   3.059 -0.31 +0.00    +0.000 N 
DOCKED: ATOM      2  C   UNL     1      16.054  -9.489   3.194 -0.44 +0.00    +0.000 C 
DOCKED: ATOM      3  C   UNL     1      16.983 -10.319   2.393 -0.41 +0.00    +0.000 A 
DOCKED: ATOM      4  C   UNL     1      18.373 -10.139   2.499 -0.50 -0.00    +0.000 A 
DOCKED: ATOM      5  C   UNL     1      19.250 -10.919   1.743 -0.56 -0.00    +0.000 A 
DOCKED: ATOM      6  C   UNL     1      18.755 -11.889   0.872 -0.54 -0.00    +0.000 A 
DOCKED: ATOM      7  C   UNL     1      17.373 -12.088   0.750 -0.46 +0.00    +0.000 A 
DOCKED: ATOM      8  C   UNL     1      16.875 -13.065  -0.125 -0.46 +0.00    +0.000 A 
DOCKED: ATOM      9  C   UNL     1      15.501 -13.264  -0.246 -0.49 +0.00    +0.000 A 
DOCKED: ATOM     10  C   UNL     1      14.608 -12.495   0.502 -0.41 +0.00    +0.000 A 
DOCKED: ATOM     11  C   UNL     1      15.082 -11.509   1.386 -0.39 +0.00    +0.000 A 
DOCKED: ATOM     12  C   UNL     1      16.474 -11.300   1.514 -0.38 +0.00    +0.000 A 
DOCKED: ATOM     13  O   UNL     1      16.512  -8.628   3.996 -0.32 +0.00    +0.000 OA
DOCKED: ATOM     14  C   UNL     1      14.135 -10.691   2.178 -0.38 +0.00    +0.000 C 
DOCKED: ATOM     15  O   UNL     1      12.895 -10.899   2.079 -0.36 +0.00    +0.000 OA
DOCKED: ENDROOT
DOCKED: BRANCH   1  16
DOCKED: ATOM     16  C   UNL     1      13.705  -8.778   3.786 -0.31 +0.00    +0.000 C 
DOCKED: BRANCH  16  17
DOCKED: ATOM     17  C   UNL     1      14.169  -7.312   3.736 -0.30 +0.00    +0.000 C 
DOCKED: BRANCH  17  18
DOCKED: ATOM     18  C   UNL     1      14.659  -6.759   5.088 -0.46 +0.00    +0.000 C 
DOCKED: BRANCH  18  19
DOCKED: ATOM     19  C   UNL     1      14.595  -5.223   5.219 -0.46 +0.00    +0.000 C 
DOCKED: BRANCH  19  20
DOCKED: ATOM     20  C   UNL     1      15.834  -4.485   4.688 -0.48 -0.00    +0.000 C 
DOCKED: BRANCH  20  22
DOCKED: ATOM     21  O   UNL     1      16.425  -2.342   3.810 -0.51 -0.00    +0.000 OA
DOCKED: ATOM     22  C   UNL     1      15.534  -3.053   4.347 -0.48 -0.00    +0.000 C 
DOCKED: ATOM     23  N   UNL     1      14.259  -2.486   4.658 -0.30 -0.00    +0.000 N 
DOCKED: ATOM     24  H   UNL     1      13.569  -3.042   5.084 -0.45 -0.00    +0.000 HD
DOCKED: BRANCH  23  25
DOCKED: ATOM     25  O   UNL     1      13.995  -1.189   4.372 -0.53 -0.00    +0.000 OA
DOCKED: ATOM     26  H   UNL     1      14.779  -0.779   3.973 -0.56 -0.00    +0.000 HD
DOCKED: ENDBRANCH  23  25
DOCKED: ENDBRANCH  20  22
DOCKED: ENDBRANCH  19  20
DOCKED: ENDBRANCH  18  19
DOCKED: ENDBRANCH  17  18
DOCKED: ENDBRANCH  16  17
DOCKED: ENDBRANCH   1  16
DOCKED: TORSDOF 7
DOCKED: TER
DOCKED: ENDMDL
________________________________________________________________________________


	BEGINNING GENETIC ALGORITHM DOCKING 63 of 100
Run: 63 Seed: 1091253091 1172864218 [ Run 63 of 100 GA/GALS ]
Beginning LAMARCKIAN GENETIC ALGORITHM (LGA), with a maximum of 2500000 energy evaluations.

Final-Value: -12.302


	FINAL GENETIC ALGORITHM DOCKED STATE
	_______________________________________________


Detailed state:  trans 21.110 -9.232 -5.777 quatxyzw -0.521865 -0.705166 -0.342862 -0.335922 center 0.154 0.111 -0.146 ntor 7 -179.8170 -152.6391 94.1457 139.9837 -108.6493 -177.4293 15.0864
State:	 21.110  -9.232  -5.777  -0.554 -0.749 -0.364 -140.743   -179.82 -152.64   94.15  139.98 -108.65 -177.43   15.09

DOCKED: MODEL       63
DOCKED: USER    Run = 63
DOCKED: USER    DPF = ligand_dock.biased.dpf
DOCKED: USER  
DOCKED: USER    Estimated Free Energy of Binding    =   -9.44 kcal/mol  [=(1)+(2)+(3)-(4)]
DOCKED: USER    Estimated Inhibition Constant, Ki   =  119.55 nM (nanomolar)  [Temperature = 298.15 K]
DOCKED: USER    
DOCKED: USER    (1) Final Intermolecular Energy     =  -11.53 kcal/mol
DOCKED: USER        vdW + Hbond + desolv Energy     =  -11.53 kcal/mol
DOCKED: USER        Electrostatic Energy            =   +0.00 kcal/mol
DOCKED: USER    (2) Final Total Internal Energy     =   -0.77 kcal/mol
DOCKED: USER    (3) Torsional Free Energy           =   +2.09 kcal/mol
DOCKED: USER    (4) Unbound System's Energy  [=(2)] =   -0.77 kcal/mol
DOCKED: USER    
DOCKED: USER    
DOCKED: USER    NEWDPF move ligand.pdbqt
DOCKED: USER    NEWDPF about 0.154000 0.111000 -0.146000
DOCKED: USER    NEWDPF tran0 21.109539 -9.232080 -5.777100
DOCKED: USER    NEWDPF quaternion0 -0.521865 -0.705166 -0.342862 -0.335922
DOCKED: USER    NEWDPF axisangle0 -0.554062 -0.748671 -0.364015 -140.742720
DOCKED: USER    NEWDPF quat0 -0.554062 -0.748671 -0.364015 -140.742720
DOCKED: USER    NEWDPF dihe0 -179.82 -152.64 94.15 139.98 -108.65 -177.43 15.09 
DOCKED: USER  keepresnum = 1 
DOCKED: USER  
DOCKED: REMARK  Name = 
DOCKED: REMARK  7 active torsions:
DOCKED: REMARK  status: ('A' for Active; 'I' for Inactive)
DOCKED: REMARK    1  A    between atoms: C_2  and  C_5
DOCKED: REMARK    2  A    between atoms: N_3  and  O_4
DOCKED: REMARK    3  A    between atoms: C_5  and  C_6
DOCKED: REMARK    4  A    between atoms: C_6  and  C_7
DOCKED: REMARK    5  A    between atoms: C_7  and  C_8
DOCKED: REMARK    6  A    between atoms: C_8  and  C_9
DOCKED: REMARK    7  A    between atoms: C_9  and  N_10
DOCKED: REMARK                            x       y       z     vdW  Elec       q    Type
DOCKED: REMARK                         _______ _______ _______ _____ _____    ______ ____
DOCKED: USER                              x       y       z     vdW  Elec       q    Type
DOCKED: USER                           _______ _______ _______ _____ _____    ______ ____
DOCKED: ROOT
DOCKED: ATOM      1  N   UNL     1      20.689 -10.670  -5.760 -0.35 -0.00    +0.000 N 
DOCKED: ATOM      2  C   UNL     1      21.958 -11.346  -5.852 -0.51 -0.00    +0.000 C 
DOCKED: ATOM      3  C   UNL     1      22.607 -11.529  -7.171 -0.37 -0.00    +0.000 A 
DOCKED: ATOM      4  C   UNL     1      23.857 -12.165  -7.268 -0.39 -0.00    +0.000 A 
DOCKED: ATOM      5  C   UNL     1      24.471 -12.336  -8.510 -0.41 -0.00    +0.000 A 
DOCKED: ATOM      6  C   UNL     1      23.850 -11.877  -9.671 -0.26 -0.00    +0.000 A 
DOCKED: ATOM      7  C   UNL     1      22.603 -11.240  -9.599 -0.22 -0.00    +0.000 A 
DOCKED: ATOM      8  C   UNL     1      21.978 -10.780 -10.767 -0.13 -0.00    +0.000 A 
DOCKED: ATOM      9  C   UNL     1      20.737 -10.149 -10.696 -0.11 -0.00    +0.000 A 
DOCKED: ATOM     10  C   UNL     1      20.106  -9.969  -9.465 -0.13 -0.00    +0.000 A 
DOCKED: ATOM     11  C   UNL     1      20.713 -10.421  -8.279 -0.21 -0.00    +0.000 A 
DOCKED: ATOM     12  C   UNL     1      21.970 -11.062  -8.342 -0.25 -0.00    +0.000 A 
DOCKED: ATOM     13  O   UNL     1      22.517 -11.784  -4.809 -0.51 -0.00    +0.000 OA
DOCKED: ATOM     14  C   UNL     1      20.044 -10.229  -6.972 -0.28 -0.00    +0.000 C 
DOCKED: ATOM     15  O   UNL     1      18.910  -9.680  -6.924 -0.18 -0.00    +0.000 OA
DOCKED: ENDROOT
DOCKED: BRANCH   1  16
DOCKED: ATOM     16  C   UNL     1      20.085 -10.407  -4.442 -0.42 -0.00    +0.000 C 
DOCKED: BRANCH  16  17
DOCKED: ATOM     17  C   UNL     1      20.510  -9.035  -3.890 -0.37 -0.00    +0.000 C 
DOCKED: BRANCH  17  18
DOCKED: ATOM     18  C   UNL     1      21.390  -9.108  -2.627 -0.50 -0.00    +0.000 C 
DOCKED: BRANCH  18  19
DOCKED: ATOM     19  C   UNL     1      20.977 -10.195  -1.614 -0.62 -0.00    +0.000 C 
DOCKED: BRANCH  19  20
DOCKED: ATOM     20  C   UNL     1      21.379  -9.900  -0.161 -0.71 -0.00    +0.000 C 
DOCKED: BRANCH  20  22
DOCKED: ATOM     21  O   UNL     1      19.333 -10.223   1.031 -0.59 -0.00    +0.000 OA
DOCKED: ATOM     22  C   UNL     1      20.509 -10.626   0.824 -0.69 -0.00    +0.000 C 
DOCKED: ATOM     23  N   UNL     1      21.016 -11.749   1.550 -0.71 -0.00    +0.000 N 
DOCKED: ATOM     24  H   UNL     1      21.937 -12.056   1.392 -0.55 -0.00    +0.000 HD
DOCKED: BRANCH  23  25
DOCKED: ATOM     25  O   UNL     1      20.239 -12.391   2.455 -1.48 -0.00    +0.000 OA
DOCKED: ATOM     26  H   UNL     1      20.741 -13.120   2.853 -0.60 -0.00    +0.000 HD
DOCKED: ENDBRANCH  23  25
DOCKED: ENDBRANCH  20  22
DOCKED: ENDBRANCH  19  20
DOCKED: ENDBRANCH  18  19
DOCKED: ENDBRANCH  17  18
DOCKED: ENDBRANCH  16  17
DOCKED: ENDBRANCH   1  16
DOCKED: TORSDOF 7
DOCKED: TER
DOCKED: ENDMDL
________________________________________________________________________________


	BEGINNING GENETIC ALGORITHM DOCKING 64 of 100
Run: 64 Seed: 410997021 1412126888 [ Run 64 of 100 GA/GALS ]
Beginning LAMARCKIAN GENETIC ALGORITHM (LGA), with a maximum of 2500000 energy evaluations.

Final-Value: -12.956


	FINAL GENETIC ALGORITHM DOCKED STATE
	_______________________________________________


Detailed state:  trans 19.697 -8.977 -1.422 quatxyzw 0.442785 0.595164 0.044959 0.669104 center 0.154 0.111 -0.146 ntor 7 2.4351 91.7840 31.5377 -122.9824 37.5766 128.2139 -173.2970
State:	 19.697  -8.977  -1.422   0.596  0.801  0.060 96.004      2.44   91.78   31.54 -122.98   37.58  128.21 -173.30

DOCKED: MODEL       64
DOCKED: USER    Run = 64
DOCKED: USER    DPF = ligand_dock.biased.dpf
DOCKED: USER  
DOCKED: USER    Estimated Free Energy of Binding    =   -8.86 kcal/mol  [=(1)+(2)+(3)-(4)]
DOCKED: USER    Estimated Inhibition Constant, Ki   =  320.68 nM (nanomolar)  [Temperature = 298.15 K]
DOCKED: USER    
DOCKED: USER    (1) Final Intermolecular Energy     =  -10.95 kcal/mol
DOCKED: USER        vdW + Hbond + desolv Energy     =  -10.95 kcal/mol
DOCKED: USER        Electrostatic Energy            =   +0.00 kcal/mol
DOCKED: USER    (2) Final Total Internal Energy     =   -2.01 kcal/mol
DOCKED: USER    (3) Torsional Free Energy           =   +2.09 kcal/mol
DOCKED: USER    (4) Unbound System's Energy  [=(2)] =   -2.01 kcal/mol
DOCKED: USER    
DOCKED: USER    
DOCKED: USER    NEWDPF move ligand.pdbqt
DOCKED: USER    NEWDPF about 0.154000 0.111000 -0.146000
DOCKED: USER    NEWDPF tran0 19.697139 -8.977276 -1.422395
DOCKED: USER    NEWDPF quaternion0 0.442785 0.595164 0.044959 0.669104
DOCKED: USER    NEWDPF axisangle0 0.595807 0.800846 0.060496 96.004101
DOCKED: USER    NEWDPF quat0 0.595807 0.800846 0.060496 96.004101
DOCKED: USER    NEWDPF dihe0 2.44 91.78 31.54 -122.98 37.58 128.21 -173.30 
DOCKED: USER  keepresnum = 1 
DOCKED: USER  
DOCKED: REMARK  Name = 
DOCKED: REMARK  7 active torsions:
DOCKED: REMARK  status: ('A' for Active; 'I' for Inactive)
DOCKED: REMARK    1  A    between atoms: C_2  and  C_5
DOCKED: REMARK    2  A    between atoms: N_3  and  O_4
DOCKED: REMARK    3  A    between atoms: C_5  and  C_6
DOCKED: REMARK    4  A    between atoms: C_6  and  C_7
DOCKED: REMARK    5  A    between atoms: C_7  and  C_8
DOCKED: REMARK    6  A    between atoms: C_8  and  C_9
DOCKED: REMARK    7  A    between atoms: C_9  and  N_10
DOCKED: REMARK                            x       y       z     vdW  Elec       q    Type
DOCKED: REMARK                         _______ _______ _______ _____ _____    ______ ____
DOCKED: USER                              x       y       z     vdW  Elec       q    Type
DOCKED: USER                           _______ _______ _______ _____ _____    ______ ____
DOCKED: ROOT
DOCKED: ATOM      1  N   UNL     1      19.974 -10.450  -1.432 -0.47 -0.00    +0.000 N 
DOCKED: ATOM      2  C   UNL     1      20.896 -10.565  -2.534 -0.53 -0.00    +0.000 C 
DOCKED: ATOM      3  C   UNL     1      20.388 -10.629  -3.923 -0.43 -0.00    +0.000 A 
DOCKED: ATOM      4  C   UNL     1      21.280 -10.717  -5.006 -0.44 -0.00    +0.000 A 
DOCKED: ATOM      5  C   UNL     1      20.802 -10.774  -6.317 -0.32 -0.00    +0.000 A 
DOCKED: ATOM      6  C   UNL     1      19.430 -10.747  -6.567 -0.30 -0.00    +0.000 A 
DOCKED: ATOM      7  C   UNL     1      18.521 -10.660  -5.504 -0.30 -0.00    +0.000 A 
DOCKED: ATOM      8  C   UNL     1      17.142 -10.634  -5.756 -0.25 -0.00    +0.000 A 
DOCKED: ATOM      9  C   UNL     1      16.237 -10.551  -4.698 -0.20 -0.00    +0.000 A 
DOCKED: ATOM     10  C   UNL     1      16.695 -10.492  -3.382 -0.11 -0.00    +0.000 A 
DOCKED: ATOM     11  C   UNL     1      18.073 -10.517  -3.103 -0.22 -0.00    +0.000 A 
DOCKED: ATOM     12  C   UNL     1      18.997 -10.601  -4.168 -0.33 -0.00    +0.000 A 
DOCKED: ATOM     13  O   UNL     1      22.138 -10.613  -2.316 -0.42 -0.00    +0.000 OA
DOCKED: ATOM     14  C   UNL     1      18.558 -10.454  -1.705 -0.28 -0.00    +0.000 C 
DOCKED: ATOM     15  O   UNL     1      17.729 -10.405  -0.756 -0.32 -0.00    +0.000 OA
DOCKED: ENDROOT
DOCKED: BRANCH   1  16
DOCKED: ATOM     16  C   UNL     1      20.480 -10.295  -0.058 -0.65 -0.00    +0.000 C 
DOCKED: BRANCH  16  17
DOCKED: ATOM     17  C   UNL     1      20.511 -11.640   0.688 -0.58 -0.00    +0.000 C 
DOCKED: BRANCH  17  18
DOCKED: ATOM     18  C   UNL     1      20.748 -11.515   2.205 -0.67 -0.00    +0.000 C 
DOCKED: BRANCH  18  19
DOCKED: ATOM     19  C   UNL     1      19.503 -11.779   3.077 -0.65 -0.00    +0.000 C 
DOCKED: BRANCH  19  20
DOCKED: ATOM     20  C   UNL     1      18.297 -10.882   2.758 -0.57 -0.00    +0.000 C 
DOCKED: BRANCH  20  22
DOCKED: ATOM     21  O   UNL     1      16.232 -11.006   1.561 -0.40 +0.00    +0.000 OA
DOCKED: ATOM     22  C   UNL     1      17.360 -11.525   1.776 -0.45 +0.00    +0.000 C 
DOCKED: ATOM     23  N   UNL     1      17.726 -12.738   1.113 -0.48 +0.00    +0.000 N 
DOCKED: ATOM     24  H   UNL     1      18.604 -13.145   1.290 -0.32 -0.00    +0.000 HD
DOCKED: BRANCH  23  25
DOCKED: ATOM     25  O   UNL     1      16.873 -13.331   0.245 -1.22 +0.00    +0.000 OA
DOCKED: ATOM     26  H   UNL     1      16.074 -12.788   0.154 -0.02 +0.00    +0.000 HD
DOCKED: ENDBRANCH  23  25
DOCKED: ENDBRANCH  20  22
DOCKED: ENDBRANCH  19  20
DOCKED: ENDBRANCH  18  19
DOCKED: ENDBRANCH  17  18
DOCKED: ENDBRANCH  16  17
DOCKED: ENDBRANCH   1  16
DOCKED: TORSDOF 7
DOCKED: TER
DOCKED: ENDMDL
________________________________________________________________________________


	BEGINNING GENETIC ALGORITHM DOCKING 65 of 100
Run: 65 Seed: 240848935 1557616936 [ Run 65 of 100 GA/GALS ]
Beginning LAMARCKIAN GENETIC ALGORITHM (LGA), with a maximum of 2500000 energy evaluations.

Final-Value: -14.063


	FINAL GENETIC ALGORITHM DOCKED STATE
	_______________________________________________


Detailed state:  trans 17.334 -10.288 0.365 quatxyzw 0.437822 -0.226450 -0.206138 0.845304 center 0.154 0.111 -0.146 ntor 7 3.1701 -167.9310 -79.1241 10.6097 164.0992 103.7270 -4.5274
State:	 17.334 -10.288   0.365   0.819 -0.424 -0.386 64.591      3.17 -167.93  -79.12   10.61  164.10  103.73   -4.53

DOCKED: MODEL       65
DOCKED: USER    Run = 65
DOCKED: USER    DPF = ligand_dock.biased.dpf
DOCKED: USER  
DOCKED: USER    Estimated Free Energy of Binding    =   -9.60 kcal/mol  [=(1)+(2)+(3)-(4)]
DOCKED: USER    Estimated Inhibition Constant, Ki   =   91.81 nM (nanomolar)  [Temperature = 298.15 K]
DOCKED: USER    
DOCKED: USER    (1) Final Intermolecular Energy     =  -11.69 kcal/mol
DOCKED: USER        vdW + Hbond + desolv Energy     =  -11.69 kcal/mol
DOCKED: USER        Electrostatic Energy            =   +0.00 kcal/mol
DOCKED: USER    (2) Final Total Internal Energy     =   -2.37 kcal/mol
DOCKED: USER    (3) Torsional Free Energy           =   +2.09 kcal/mol
DOCKED: USER    (4) Unbound System's Energy  [=(2)] =   -2.37 kcal/mol
DOCKED: USER    
DOCKED: USER    
DOCKED: USER    NEWDPF move ligand.pdbqt
DOCKED: USER    NEWDPF about 0.154000 0.111000 -0.146000
DOCKED: USER    NEWDPF tran0 17.333615 -10.288311 0.364932
DOCKED: USER    NEWDPF quaternion0 0.437822 -0.226450 -0.206138 0.845304
DOCKED: USER    NEWDPF axisangle0 0.819454 -0.423837 -0.385819 64.590902
DOCKED: USER    NEWDPF quat0 0.819454 -0.423837 -0.385819 64.590902
DOCKED: USER    NEWDPF dihe0 3.17 -167.93 -79.12 10.61 164.10 103.73 -4.53 
DOCKED: USER  keepresnum = 1 
DOCKED: USER  
DOCKED: REMARK  Name = 
DOCKED: REMARK  7 active torsions:
DOCKED: REMARK  status: ('A' for Active; 'I' for Inactive)
DOCKED: REMARK    1  A    between atoms: C_2  and  C_5
DOCKED: REMARK    2  A    between atoms: N_3  and  O_4
DOCKED: REMARK    3  A    between atoms: C_5  and  C_6
DOCKED: REMARK    4  A    between atoms: C_6  and  C_7
DOCKED: REMARK    5  A    between atoms: C_7  and  C_8
DOCKED: REMARK    6  A    between atoms: C_8  and  C_9
DOCKED: REMARK    7  A    between atoms: C_9  and  N_10
DOCKED: REMARK                            x       y       z     vdW  Elec       q    Type
DOCKED: REMARK                         _______ _______ _______ _____ _____    ______ ____
DOCKED: USER                              x       y       z     vdW  Elec       q    Type
DOCKED: USER                           _______ _______ _______ _____ _____    ______ ____
DOCKED: ROOT
DOCKED: ATOM      1  N   UNL     1      16.993 -11.731   0.582 -0.42 +0.00    +0.000 N 
DOCKED: ATOM      2  C   UNL     1      15.700 -11.822  -0.047 -0.44 +0.00    +0.000 C 
DOCKED: ATOM      3  C   UNL     1      14.485 -11.402   0.689 -0.35 +0.00    +0.000 A 
DOCKED: ATOM      4  C   UNL     1      13.222 -11.464   0.075 -0.35 +0.00    +0.000 A 
DOCKED: ATOM      5  C   UNL     1      12.076 -11.065   0.766 -0.33 +0.00    +0.000 A 
DOCKED: ATOM      6  C   UNL     1      12.173 -10.601   2.078 -0.19 +0.00    +0.000 A 
DOCKED: ATOM      7  C   UNL     1      13.421 -10.530   2.711 -0.28 +0.00    +0.000 A 
DOCKED: ATOM      8  C   UNL     1      13.517 -10.064   4.030 -0.18 +0.00    +0.000 A 
DOCKED: ATOM      9  C   UNL     1      14.758  -9.996   4.662 -0.37 +0.00    +0.000 A 
DOCKED: ATOM     10  C   UNL     1      15.915 -10.391   3.988 -0.41 +0.00    +0.000 A 
DOCKED: ATOM     11  C   UNL     1      15.845 -10.862   2.664 -0.42 +0.00    +0.000 A 
DOCKED: ATOM     12  C   UNL     1      14.591 -10.933   2.017 -0.36 +0.00    +0.000 A 
DOCKED: ATOM     13  O   UNL     1      15.600 -12.263  -1.226 -0.38 +0.00    +0.000 OA
DOCKED: ATOM     14  C   UNL     1      17.073 -11.278   1.949 -0.46 +0.00    +0.000 C 
DOCKED: ATOM     15  O   UNL     1      18.186 -11.237   2.540 -0.60 -0.00    +0.000 OA
DOCKED: ENDROOT
DOCKED: BRANCH   1  16
DOCKED: ATOM     16  C   UNL     1      18.209 -12.063  -0.178 -0.53 -0.00    +0.000 C 
DOCKED: BRANCH  16  17
DOCKED: ATOM     17  C   UNL     1      18.524 -10.992  -1.236 -0.43 -0.00    +0.000 C 
DOCKED: BRANCH  17  18
DOCKED: ATOM     18  C   UNL     1      19.930 -11.111  -1.857 -0.20 -0.00    +0.000 C 
DOCKED: BRANCH  18  19
DOCKED: ATOM     19  C   UNL     1      20.772  -9.820  -1.799 -0.59 -0.00    +0.000 C 
DOCKED: BRANCH  19  20
DOCKED: ATOM     20  C   UNL     1      21.380  -9.515  -0.421 -0.66 -0.00    +0.000 C 
DOCKED: BRANCH  20  22
DOCKED: ATOM     21  O   UNL     1      19.712  -9.799   1.266 -0.56 -0.00    +0.000 OA
DOCKED: ATOM     22  C   UNL     1      20.710 -10.292   0.675 -0.66 -0.00    +0.000 C 
DOCKED: ATOM     23  N   UNL     1      21.217 -11.568   1.073 -0.57 -0.00    +0.000 N 
DOCKED: ATOM     24  H   UNL     1      22.001 -11.946   0.615 -0.46 -0.00    +0.000 HD
DOCKED: BRANCH  23  25
DOCKED: ATOM     25  O   UNL     1      20.627 -12.261   2.076 -1.45 -0.00    +0.000 OA
DOCKED: ATOM     26  H   UNL     1      19.844 -11.778   2.386 -0.02 -0.00    +0.000 HD
DOCKED: ENDBRANCH  23  25
DOCKED: ENDBRANCH  20  22
DOCKED: ENDBRANCH  19  20
DOCKED: ENDBRANCH  18  19
DOCKED: ENDBRANCH  17  18
DOCKED: ENDBRANCH  16  17
DOCKED: ENDBRANCH   1  16
DOCKED: TORSDOF 7
DOCKED: TER
DOCKED: ENDMDL
________________________________________________________________________________


	BEGINNING GENETIC ALGORITHM DOCKING 66 of 100
Run: 66 Seed: 1651678984 605976750 [ Run 66 of 100 GA/GALS ]
Beginning LAMARCKIAN GENETIC ALGORITHM (LGA), with a maximum of 2500000 energy evaluations.

Final-Value: -12.987


	FINAL GENETIC ALGORITHM DOCKED STATE
	_______________________________________________


Detailed state:  trans 18.662 -11.933 -2.523 quatxyzw 0.654016 0.153072 -0.640910 -0.371572 center 0.154 0.111 -0.146 ntor 7 1.3630 180.0000 -124.5741 178.3981 -103.0300 -176.5628 -9.6725
State:	 18.662 -11.933  -2.523   0.704  0.165 -0.690 -136.375      1.36  180.00 -124.57  178.40 -103.03 -176.56   -9.67

DOCKED: MODEL       66
DOCKED: USER    Run = 66
DOCKED: USER    DPF = ligand_dock.biased.dpf
DOCKED: USER  
DOCKED: USER    Estimated Free Energy of Binding    =   -9.53 kcal/mol  [=(1)+(2)+(3)-(4)]
DOCKED: USER    Estimated Inhibition Constant, Ki   =  102.62 nM (nanomolar)  [Temperature = 298.15 K]
DOCKED: USER    
DOCKED: USER    (1) Final Intermolecular Energy     =  -11.62 kcal/mol
DOCKED: USER        vdW + Hbond + desolv Energy     =  -11.62 kcal/mol
DOCKED: USER        Electrostatic Energy            =   +0.00 kcal/mol
DOCKED: USER    (2) Final Total Internal Energy     =   -1.36 kcal/mol
DOCKED: USER    (3) Torsional Free Energy           =   +2.09 kcal/mol
DOCKED: USER    (4) Unbound System's Energy  [=(2)] =   -1.36 kcal/mol
DOCKED: USER    
DOCKED: USER    
DOCKED: USER    NEWDPF move ligand.pdbqt
DOCKED: USER    NEWDPF about 0.154000 0.111000 -0.146000
DOCKED: USER    NEWDPF tran0 18.661775 -11.932693 -2.523086
DOCKED: USER    NEWDPF quaternion0 0.654016 0.153072 -0.640910 -0.371572
DOCKED: USER    NEWDPF axisangle0 0.704452 0.164877 -0.690336 -136.374806
DOCKED: USER    NEWDPF quat0 0.704452 0.164877 -0.690336 -136.374806
DOCKED: USER    NEWDPF dihe0 1.36 180.00 -124.57 178.40 -103.03 -176.56 -9.67 
DOCKED: USER  keepresnum = 1 
DOCKED: USER  
DOCKED: REMARK  Name = 
DOCKED: REMARK  7 active torsions:
DOCKED: REMARK  status: ('A' for Active; 'I' for Inactive)
DOCKED: REMARK    1  A    between atoms: C_2  and  C_5
DOCKED: REMARK    2  A    between atoms: N_3  and  O_4
DOCKED: REMARK    3  A    between atoms: C_5  and  C_6
DOCKED: REMARK    4  A    between atoms: C_6  and  C_7
DOCKED: REMARK    5  A    between atoms: C_7  and  C_8
DOCKED: REMARK    6  A    between atoms: C_8  and  C_9
DOCKED: REMARK    7  A    between atoms: C_9  and  N_10
DOCKED: REMARK                            x       y       z     vdW  Elec       q    Type
DOCKED: REMARK                         _______ _______ _______ _____ _____    ______ ____
DOCKED: USER                              x       y       z     vdW  Elec       q    Type
DOCKED: USER                           _______ _______ _______ _____ _____    ______ ____
DOCKED: ROOT
DOCKED: ATOM      1  N   UNL     1      18.933 -10.483  -2.259 -0.36 -0.00    +0.000 N 
DOCKED: ATOM      2  C   UNL     1      20.039 -10.557  -1.339 -0.53 -0.00    +0.000 C 
DOCKED: ATOM      3  C   UNL     1      19.792 -10.796   0.102 -0.53 -0.00    +0.000 A 
DOCKED: ATOM      4  C   UNL     1      20.866 -10.895   1.004 -0.57 -0.00    +0.000 A 
DOCKED: ATOM      5  C   UNL     1      20.635 -11.123   2.361 -0.60 -0.00    +0.000 A 
DOCKED: ATOM      6  C   UNL     1      19.331 -11.255   2.840 -0.61 -0.00    +0.000 A 
DOCKED: ATOM      7  C   UNL     1      18.244 -11.159   1.960 -0.48 -0.00    +0.000 A 
DOCKED: ATOM      8  C   UNL     1      16.934 -11.290   2.442 -0.35 +0.00    +0.000 A 
DOCKED: ATOM      9  C   UNL     1      15.852 -11.193   1.568 -0.37 +0.00    +0.000 A 
DOCKED: ATOM     10  C   UNL     1      16.063 -10.965   0.208 -0.31 +0.00    +0.000 A 
DOCKED: ATOM     11  C   UNL     1      17.367 -10.830  -0.300 -0.32 -0.00    +0.000 A 
DOCKED: ATOM     12  C   UNL     1      18.469 -10.928   0.579 -0.43 -0.00    +0.000 A 
DOCKED: ATOM     13  O   UNL     1      21.221 -10.417  -1.759 -0.64 -0.00    +0.000 OA
DOCKED: ATOM     14  C   UNL     1      17.591 -10.590  -1.744 -0.27 -0.00    +0.000 C 
DOCKED: ATOM     15  O   UNL     1      16.603 -10.478  -2.520 -0.30 -0.00    +0.000 OA
DOCKED: ENDROOT
DOCKED: BRANCH   1  16
DOCKED: ATOM     16  C   UNL     1      19.182 -10.336  -3.703 -0.38 -0.00    +0.000 C 
DOCKED: BRANCH  16  17
DOCKED: ATOM     17  C   UNL     1      19.865 -11.584  -4.289 -0.49 -0.00    +0.000 C 
DOCKED: BRANCH  17  18
DOCKED: ATOM     18  C   UNL     1      21.310 -11.345  -4.768 -0.52 -0.00    +0.000 C 
DOCKED: BRANCH  18  19
DOCKED: ATOM     19  C   UNL     1      21.571  -9.945  -5.360 -0.38 -0.00    +0.000 C 
DOCKED: BRANCH  19  20
DOCKED: ATOM     20  C   UNL     1      21.942  -9.940  -6.851 -0.30 -0.00    +0.000 C 
DOCKED: BRANCH  20  22
DOCKED: ATOM     21  O   UNL     1      24.286 -10.023  -7.308 -0.36 -0.00    +0.000 OA
DOCKED: ATOM     22  C   UNL     1      23.225 -10.675  -7.115 -0.37 -0.00    +0.000 C 
DOCKED: ATOM     23  N   UNL     1      23.242 -12.103  -7.181 -0.53 -0.00    +0.000 N 
DOCKED: ATOM     24  H   UNL     1      22.410 -12.608  -7.038 -0.58 -0.00    +0.000 HD
DOCKED: BRANCH  23  25
DOCKED: ATOM     25  O   UNL     1      24.394 -12.766  -7.441 -0.99 +0.00    +0.000 OA
DOCKED: ATOM     26  H   UNL     1      25.120 -12.129  -7.535 -0.05 +0.00    +0.000 HD
DOCKED: ENDBRANCH  23  25
DOCKED: ENDBRANCH  20  22
DOCKED: ENDBRANCH  19  20
DOCKED: ENDBRANCH  18  19
DOCKED: ENDBRANCH  17  18
DOCKED: ENDBRANCH  16  17
DOCKED: ENDBRANCH   1  16
DOCKED: TORSDOF 7
DOCKED: TER
DOCKED: ENDMDL
________________________________________________________________________________


	BEGINNING GENETIC ALGORITHM DOCKING 67 of 100
Run: 67 Seed: 1157162388 1969228316 [ Run 67 of 100 GA/GALS ]
Beginning LAMARCKIAN GENETIC ALGORITHM (LGA), with a maximum of 2500000 energy evaluations.

Final-Value: -14.362


	FINAL GENETIC ALGORITHM DOCKED STATE
	_______________________________________________


Detailed state:  trans 19.381 -9.599 0.603 quatxyzw -0.403140 0.027421 0.289234 -0.867796 center 0.154 0.111 -0.146 ntor 7 7.2976 45.6294 152.3408 70.4023 -128.6282 -145.8587 16.3880
State:	 19.381  -9.599   0.603  -0.811  0.055  0.582 -59.593      7.30   45.63  152.34   70.40 -128.63 -145.86   16.39

DOCKED: MODEL       67
DOCKED: USER    Run = 67
DOCKED: USER    DPF = ligand_dock.biased.dpf
DOCKED: USER  
DOCKED: USER    Estimated Free Energy of Binding    =  -10.57 kcal/mol  [=(1)+(2)+(3)-(4)]
DOCKED: USER    Estimated Inhibition Constant, Ki   =   17.75 nM (nanomolar)  [Temperature = 298.15 K]
DOCKED: USER    
DOCKED: USER    (1) Final Intermolecular Energy     =  -12.66 kcal/mol
DOCKED: USER        vdW + Hbond + desolv Energy     =  -12.66 kcal/mol
DOCKED: USER        Electrostatic Energy            =   +0.00 kcal/mol
DOCKED: USER    (2) Final Total Internal Energy     =   -1.70 kcal/mol
DOCKED: USER    (3) Torsional Free Energy           =   +2.09 kcal/mol
DOCKED: USER    (4) Unbound System's Energy  [=(2)] =   -1.70 kcal/mol
DOCKED: USER    
DOCKED: USER    
DOCKED: USER    NEWDPF move ligand.pdbqt
DOCKED: USER    NEWDPF about 0.154000 0.111000 -0.146000
DOCKED: USER    NEWDPF tran0 19.381460 -9.598934 0.602997
DOCKED: USER    NEWDPF quaternion0 -0.403140 0.027421 0.289234 -0.867796
DOCKED: USER    NEWDPF axisangle0 -0.811276 0.055182 0.582053 -59.592938
DOCKED: USER    NEWDPF quat0 -0.811276 0.055182 0.582053 -59.592938
DOCKED: USER    NEWDPF dihe0 7.30 45.63 152.34 70.40 -128.63 -145.86 16.39 
DOCKED: USER  keepresnum = 1 
DOCKED: USER  
DOCKED: REMARK  Name = 
DOCKED: REMARK  7 active torsions:
DOCKED: REMARK  status: ('A' for Active; 'I' for Inactive)
DOCKED: REMARK    1  A    between atoms: C_2  and  C_5
DOCKED: REMARK    2  A    between atoms: N_3  and  O_4
DOCKED: REMARK    3  A    between atoms: C_5  and  C_6
DOCKED: REMARK    4  A    between atoms: C_6  and  C_7
DOCKED: REMARK    5  A    between atoms: C_7  and  C_8
DOCKED: REMARK    6  A    between atoms: C_8  and  C_9
DOCKED: REMARK    7  A    between atoms: C_9  and  N_10
DOCKED: REMARK                            x       y       z     vdW  Elec       q    Type
DOCKED: REMARK                         _______ _______ _______ _____ _____    ______ ____
DOCKED: USER                              x       y       z     vdW  Elec       q    Type
DOCKED: USER                           _______ _______ _______ _____ _____    ______ ____
DOCKED: ROOT
DOCKED: ATOM      1  N   UNL     1      19.463 -11.091   0.488 -0.52 -0.00    +0.000 N 
DOCKED: ATOM      2  C   UNL     1      18.437 -11.364  -0.486 -0.49 -0.00    +0.000 C 
DOCKED: ATOM      3  C   UNL     1      17.019 -11.451  -0.067 -0.37 +0.00    +0.000 A 
DOCKED: ATOM      4  C   UNL     1      16.009 -11.692  -1.014 -0.24 +0.00    +0.000 A 
DOCKED: ATOM      5  C   UNL     1      14.672 -11.772  -0.621 -0.38 +0.00    +0.000 A 
DOCKED: ATOM      6  C   UNL     1      14.323 -11.614   0.720 -0.38 +0.00    +0.000 A 
DOCKED: ATOM      7  C   UNL     1      15.312 -11.373   1.683 -0.39 +0.00    +0.000 A 
DOCKED: ATOM      8  C   UNL     1      14.961 -11.216   3.032 -0.45 +0.00    +0.000 A 
DOCKED: ATOM      9  C   UNL     1      15.946 -10.979   3.990 -0.47 +0.00    +0.000 A 
DOCKED: ATOM     10  C   UNL     1      17.288 -10.896   3.617 -0.26 +0.00    +0.000 A 
DOCKED: ATOM     11  C   UNL     1      17.666 -11.050   2.271 -0.43 +0.00    +0.000 A 
DOCKED: ATOM     12  C   UNL     1      16.674 -11.291   1.293 -0.38 +0.00    +0.000 A 
DOCKED: ATOM     13  O   UNL     1      18.746 -11.530  -1.699 -0.45 -0.00    +0.000 OA
DOCKED: ATOM     14  C   UNL     1      19.090 -10.961   1.875 -0.62 -0.00    +0.000 C 
DOCKED: ATOM     15  O   UNL     1      19.973 -10.772   2.755 -0.86 -0.00    +0.000 OA
DOCKED: ENDROOT
DOCKED: BRANCH   1  16
DOCKED: ATOM     16  C   UNL     1      20.860 -10.914   0.060 -0.67 -0.00    +0.000 C 
DOCKED: BRANCH  16  17
DOCKED: ATOM     17  C   UNL     1      21.187  -9.434  -0.206 -0.64 -0.00    +0.000 C 
DOCKED: BRANCH  17  18
DOCKED: ATOM     18  C   UNL     1      20.752  -8.931  -1.596 -0.47 -0.00    +0.000 C 
DOCKED: BRANCH  18  19
DOCKED: ATOM     19  C   UNL     1      21.390  -9.682  -2.783 -0.52 -0.00    +0.000 C 
DOCKED: BRANCH  19  20
DOCKED: ATOM     20  C   UNL     1      20.414 -10.026  -3.920 -0.43 -0.00    +0.000 C 
DOCKED: BRANCH  20  22
DOCKED: ATOM     21  O   UNL     1      19.880 -12.245  -4.627 -0.71 -0.00    +0.000 OA
DOCKED: ATOM     22  C   UNL     1      20.750 -11.335  -4.574 -0.51 -0.00    +0.000 C 
DOCKED: ATOM     23  N   UNL     1      22.058 -11.565  -5.104 -0.55 -0.00    +0.000 N 
DOCKED: ATOM     24  H   UNL     1      22.737 -10.856  -5.054 -0.01 -0.00    +0.000 HD
DOCKED: BRANCH  23  25
DOCKED: ATOM     25  O   UNL     1      22.370 -12.754  -5.674 -0.81 -0.00    +0.000 OA
DOCKED: ATOM     26  H   UNL     1      21.569 -13.297  -5.749 -0.65 -0.00    +0.000 HD
DOCKED: ENDBRANCH  23  25
DOCKED: ENDBRANCH  20  22
DOCKED: ENDBRANCH  19  20
DOCKED: ENDBRANCH  18  19
DOCKED: ENDBRANCH  17  18
DOCKED: ENDBRANCH  16  17
DOCKED: ENDBRANCH   1  16
DOCKED: TORSDOF 7
DOCKED: TER
DOCKED: ENDMDL
________________________________________________________________________________


	BEGINNING GENETIC ALGORITHM DOCKING 68 of 100
Run: 68 Seed: 2105834105 329958726 [ Run 68 of 100 GA/GALS ]
Beginning LAMARCKIAN GENETIC ALGORITHM (LGA), with a maximum of 2500000 energy evaluations.

Final-Value: -13.524


	FINAL GENETIC ALGORITHM DOCKED STATE
	_______________________________________________


Detailed state:  trans 20.131 -11.866 -2.326 quatxyzw 0.792985 0.058550 -0.469910 -0.383315 center 0.154 0.111 -0.146 ntor 7 0.3347 147.2533 8.4437 -180.0000 -29.5182 163.5743 -149.9682
State:	 20.131 -11.866  -2.326   0.859  0.063 -0.509 -134.922      0.33  147.25    8.44 -180.00  -29.52  163.57 -149.97

DOCKED: MODEL       68
DOCKED: USER    Run = 68
DOCKED: USER    DPF = ligand_dock.biased.dpf
DOCKED: USER  
DOCKED: USER    Estimated Free Energy of Binding    =   -9.08 kcal/mol  [=(1)+(2)+(3)-(4)]
DOCKED: USER    Estimated Inhibition Constant, Ki   =  219.43 nM (nanomolar)  [Temperature = 298.15 K]
DOCKED: USER    
DOCKED: USER    (1) Final Intermolecular Energy     =  -11.17 kcal/mol
DOCKED: USER        vdW + Hbond + desolv Energy     =  -11.17 kcal/mol
DOCKED: USER        Electrostatic Energy            =   +0.00 kcal/mol
DOCKED: USER    (2) Final Total Internal Energy     =   -2.35 kcal/mol
DOCKED: USER    (3) Torsional Free Energy           =   +2.09 kcal/mol
DOCKED: USER    (4) Unbound System's Energy  [=(2)] =   -2.35 kcal/mol
DOCKED: USER    
DOCKED: USER    
DOCKED: USER    NEWDPF move ligand.pdbqt
DOCKED: USER    NEWDPF about 0.154000 0.111000 -0.146000
DOCKED: USER    NEWDPF tran0 20.131220 -11.865605 -2.326175
DOCKED: USER    NEWDPF quaternion0 0.792985 0.058550 -0.469910 -0.383315
DOCKED: USER    NEWDPF axisangle0 0.858565 0.063392 -0.508771 -134.921690
DOCKED: USER    NEWDPF quat0 0.858565 0.063392 -0.508771 -134.921690
DOCKED: USER    NEWDPF dihe0 0.33 147.25 8.44 -180.00 -29.52 163.57 -149.97 
DOCKED: USER  keepresnum = 1 
DOCKED: USER  
DOCKED: REMARK  Name = 
DOCKED: REMARK  7 active torsions:
DOCKED: REMARK  status: ('A' for Active; 'I' for Inactive)
DOCKED: REMARK    1  A    between atoms: C_2  and  C_5
DOCKED: REMARK    2  A    between atoms: N_3  and  O_4
DOCKED: REMARK    3  A    between atoms: C_5  and  C_6
DOCKED: REMARK    4  A    between atoms: C_6  and  C_7
DOCKED: REMARK    5  A    between atoms: C_7  and  C_8
DOCKED: REMARK    6  A    between atoms: C_8  and  C_9
DOCKED: REMARK    7  A    between atoms: C_9  and  N_10
DOCKED: REMARK                            x       y       z     vdW  Elec       q    Type
DOCKED: REMARK                         _______ _______ _______ _____ _____    ______ ____
DOCKED: USER                              x       y       z     vdW  Elec       q    Type
DOCKED: USER                           _______ _______ _______ _____ _____    ______ ____
DOCKED: ROOT
DOCKED: ATOM      1  N   UNL     1      20.277 -10.428  -1.931 -0.48 -0.00    +0.000 N 
DOCKED: ATOM      2  C   UNL     1      20.831 -10.544  -0.607 -0.67 -0.00    +0.000 C 
DOCKED: ATOM      3  C   UNL     1      19.942 -10.795   0.551 -0.57 -0.00    +0.000 A 
DOCKED: ATOM      4  C   UNL     1      20.475 -10.935   1.844 -0.62 -0.00    +0.000 A 
DOCKED: ATOM      5  C   UNL     1      19.638 -11.174   2.935 -0.64 -0.00    +0.000 A 
DOCKED: ATOM      6  C   UNL     1      18.259 -11.275   2.755 -0.40 -0.00    +0.000 A 
DOCKED: ATOM      7  C   UNL     1      17.703 -11.138   1.475 -0.42 -0.00    +0.000 A 
DOCKED: ATOM      8  C   UNL     1      16.316 -11.239   1.294 -0.37 +0.00    +0.000 A 
DOCKED: ATOM      9  C   UNL     1      15.763 -11.100   0.022 -0.31 +0.00    +0.000 A 
DOCKED: ATOM     10  C   UNL     1      16.583 -10.861  -1.082 -0.28 -0.00    +0.000 A 
DOCKED: ATOM     11  C   UNL     1      17.977 -10.756  -0.926 -0.30 -0.00    +0.000 A 
DOCKED: ATOM     12  C   UNL     1      18.546 -10.895   0.359 -0.43 -0.00    +0.000 A 
DOCKED: ATOM     13  O   UNL     1      22.076 -10.432  -0.430 -0.75 -0.00    +0.000 OA
DOCKED: ATOM     14  C   UNL     1      18.847 -10.504  -2.098 -0.38 -0.00    +0.000 C 
DOCKED: ATOM     15  O   UNL     1      18.332 -10.354  -3.239 -0.33 -0.00    +0.000 OA
DOCKED: ENDROOT
DOCKED: BRANCH   1  16
DOCKED: ATOM     16  C   UNL     1      21.167 -10.269  -3.094 -0.54 -0.00    +0.000 C 
DOCKED: BRANCH  16  17
DOCKED: ATOM     17  C   UNL     1      21.766  -8.854  -3.158 -0.34 -0.00    +0.000 C 
DOCKED: BRANCH  17  18
DOCKED: ATOM     18  C   UNL     1      21.681  -8.195  -4.549 -0.29 -0.00    +0.000 C 
DOCKED: BRANCH  18  19
DOCKED: ATOM     19  C   UNL     1      20.365  -8.458  -5.308 -0.21 -0.00    +0.000 C 
DOCKED: BRANCH  19  20
DOCKED: ATOM     20  C   UNL     1      20.519  -9.303  -6.583 -0.20 -0.00    +0.000 C 
DOCKED: BRANCH  20  22
DOCKED: ATOM     21  O   UNL     1      21.759 -11.318  -6.920 -0.38 -0.00    +0.000 OA
DOCKED: ATOM     22  C   UNL     1      20.849 -10.735  -6.273 -0.37 -0.00    +0.000 C 
DOCKED: ATOM     23  N   UNL     1      20.114 -11.447  -5.274 -0.46 -0.00    +0.000 N 
DOCKED: ATOM     24  H   UNL     1      19.398 -10.991  -4.776 -0.01 -0.00    +0.000 HD
DOCKED: BRANCH  23  25
DOCKED: ATOM     25  O   UNL     1      20.394 -12.745  -5.009 -0.77 -0.00    +0.000 OA
DOCKED: ATOM     26  H   UNL     1      21.123 -13.042  -5.578 -0.65 -0.00    +0.000 HD
DOCKED: ENDBRANCH  23  25
DOCKED: ENDBRANCH  20  22
DOCKED: ENDBRANCH  19  20
DOCKED: ENDBRANCH  18  19
DOCKED: ENDBRANCH  17  18
DOCKED: ENDBRANCH  16  17
DOCKED: ENDBRANCH   1  16
DOCKED: TORSDOF 7
DOCKED: TER
DOCKED: ENDMDL
________________________________________________________________________________


	BEGINNING GENETIC ALGORITHM DOCKING 69 of 100
Run: 69 Seed: 736241363 552752824 [ Run 69 of 100 GA/GALS ]
Beginning LAMARCKIAN GENETIC ALGORITHM (LGA), with a maximum of 2500000 energy evaluations.

Final-Value: -13.838


	FINAL GENETIC ALGORITHM DOCKED STATE
	_______________________________________________


Detailed state:  trans 18.884 -10.158 0.808 quatxyzw 0.574631 -0.020109 -0.226294 0.786248 center 0.154 0.111 -0.146 ntor 7 -3.0445 33.6364 36.7522 -180.0000 62.7079 165.0194 29.4711
State:	 18.884 -10.158   0.808   0.930 -0.033 -0.366 76.328     -3.04   33.64   36.75 -180.00   62.71  165.02   29.47

DOCKED: MODEL       69
DOCKED: USER    Run = 69
DOCKED: USER    DPF = ligand_dock.biased.dpf
DOCKED: USER  
DOCKED: USER    Estimated Free Energy of Binding    =   -9.00 kcal/mol  [=(1)+(2)+(3)-(4)]
DOCKED: USER    Estimated Inhibition Constant, Ki   =  253.80 nM (nanomolar)  [Temperature = 298.15 K]
DOCKED: USER    
DOCKED: USER    (1) Final Intermolecular Energy     =  -11.09 kcal/mol
DOCKED: USER        vdW + Hbond + desolv Energy     =  -11.09 kcal/mol
DOCKED: USER        Electrostatic Energy            =   +0.00 kcal/mol
DOCKED: USER    (2) Final Total Internal Energy     =   -2.75 kcal/mol
DOCKED: USER    (3) Torsional Free Energy           =   +2.09 kcal/mol
DOCKED: USER    (4) Unbound System's Energy  [=(2)] =   -2.75 kcal/mol
DOCKED: USER    
DOCKED: USER    
DOCKED: USER    NEWDPF move ligand.pdbqt
DOCKED: USER    NEWDPF about 0.154000 0.111000 -0.146000
DOCKED: USER    NEWDPF tran0 18.883680 -10.157918 0.807695
DOCKED: USER    NEWDPF quaternion0 0.574631 -0.020109 -0.226294 0.786248
DOCKED: USER    NEWDPF axisangle0 0.929957 -0.032543 -0.366224 76.327510
DOCKED: USER    NEWDPF quat0 0.929957 -0.032543 -0.366224 76.327510
DOCKED: USER    NEWDPF dihe0 -3.04 33.64 36.75 -180.00 62.71 165.02 29.47 
DOCKED: USER  keepresnum = 1 
DOCKED: USER  
DOCKED: REMARK  Name = 
DOCKED: REMARK  7 active torsions:
DOCKED: REMARK  status: ('A' for Active; 'I' for Inactive)
DOCKED: REMARK    1  A    between atoms: C_2  and  C_5
DOCKED: REMARK    2  A    between atoms: N_3  and  O_4
DOCKED: REMARK    3  A    between atoms: C_5  and  C_6
DOCKED: REMARK    4  A    between atoms: C_6  and  C_7
DOCKED: REMARK    5  A    between atoms: C_7  and  C_8
DOCKED: REMARK    6  A    between atoms: C_8  and  C_9
DOCKED: REMARK    7  A    between atoms: C_9  and  N_10
DOCKED: REMARK                            x       y       z     vdW  Elec       q    Type
DOCKED: REMARK                         _______ _______ _______ _____ _____    ______ ____
DOCKED: USER                              x       y       z     vdW  Elec       q    Type
DOCKED: USER                           _______ _______ _______ _____ _____    ______ ____
DOCKED: ROOT
DOCKED: ATOM      1  N   UNL     1      18.869 -11.593   1.239 -0.53 -0.00    +0.000 N 
DOCKED: ATOM      2  C   UNL     1      17.980 -12.180   0.270 -0.54 -0.00    +0.000 C 
DOCKED: ATOM      3  C   UNL     1      16.514 -12.086   0.455 -0.44 +0.00    +0.000 A 
DOCKED: ATOM      4  C   UNL     1      15.638 -12.634  -0.498 -0.46 +0.00    +0.000 A 
DOCKED: ATOM      5  C   UNL     1      14.255 -12.545  -0.326 -0.35 +0.00    +0.000 A 
DOCKED: ATOM      6  C   UNL     1      13.726 -11.910   0.798 -0.40 +0.00    +0.000 A 
DOCKED: ATOM      7  C   UNL     1      14.580 -11.356   1.762 -0.40 +0.00    +0.000 A 
DOCKED: ATOM      8  C   UNL     1      14.047 -10.719   2.892 -0.35 +0.00    +0.000 A 
DOCKED: ATOM      9  C   UNL     1      14.896 -10.171   3.853 -0.41 +0.00    +0.000 A 
DOCKED: ATOM     10  C   UNL     1      16.280 -10.250   3.699 -0.36 +0.00    +0.000 A 
DOCKED: ATOM     11  C   UNL     1      16.839 -10.884   2.575 -0.43 +0.00    +0.000 A 
DOCKED: ATOM     12  C   UNL     1      15.986 -11.442   1.596 -0.39 +0.00    +0.000 A 
DOCKED: ATOM     13  O   UNL     1      18.450 -12.776  -0.739 -0.48 -0.00    +0.000 OA
DOCKED: ATOM     14  C   UNL     1      18.308 -10.967   2.411 -0.56 -0.00    +0.000 C 
DOCKED: ATOM     15  O   UNL     1      19.065 -10.490   3.300 -0.65 -0.00    +0.000 OA
DOCKED: ENDROOT
DOCKED: BRANCH   1  16
DOCKED: ATOM     16  C   UNL     1      20.324 -11.605   1.011 -0.72 -0.00    +0.000 C 
DOCKED: BRANCH  16  17
DOCKED: ATOM     17  C   UNL     1      20.844 -10.216   0.602 -0.67 -0.00    +0.000 C 
DOCKED: BRANCH  17  18
DOCKED: ATOM     18  C   UNL     1      21.755 -10.223  -0.640 -0.62 -0.00    +0.000 C 
DOCKED: BRANCH  18  19
DOCKED: ATOM     19  C   UNL     1      21.398  -9.169  -1.709 -0.55 -0.00    +0.000 C 
DOCKED: BRANCH  19  20
DOCKED: ATOM     20  C   UNL     1      20.898  -9.753  -3.040 -0.51 -0.00    +0.000 C 
DOCKED: BRANCH  20  22
DOCKED: ATOM     21  O   UNL     1      18.839  -8.965  -3.963 -0.25 -0.00    +0.000 OA
DOCKED: ATOM     22  C   UNL     1      19.400  -9.733  -3.136 -0.34 -0.00    +0.000 C 
DOCKED: ATOM     23  N   UNL     1      18.608 -10.554  -2.274 -0.34 -0.00    +0.000 N 
DOCKED: ATOM     24  H   UNL     1      19.048 -11.146  -1.623 -0.02 -0.00    +0.000 HD
DOCKED: BRANCH  23  25
DOCKED: ATOM     25  O   UNL     1      17.256 -10.521  -2.343 -0.32 -0.00    +0.000 OA
DOCKED: ATOM     26  H   UNL     1      16.981  -9.856  -2.995 -0.01 -0.00    +0.000 HD
DOCKED: ENDBRANCH  23  25
DOCKED: ENDBRANCH  20  22
DOCKED: ENDBRANCH  19  20
DOCKED: ENDBRANCH  18  19
DOCKED: ENDBRANCH  17  18
DOCKED: ENDBRANCH  16  17
DOCKED: ENDBRANCH   1  16
DOCKED: TORSDOF 7
DOCKED: TER
DOCKED: ENDMDL
________________________________________________________________________________


	BEGINNING GENETIC ALGORITHM DOCKING 70 of 100
Run: 70 Seed: 1625911596 381714458 [ Run 70 of 100 GA/GALS ]
Beginning LAMARCKIAN GENETIC ALGORITHM (LGA), with a maximum of 2500000 energy evaluations.

Final-Value: -13.230


	FINAL GENETIC ALGORITHM DOCKED STATE
	_______________________________________________


Detailed state:  trans 16.077 -10.132 -0.660 quatxyzw 0.070480 0.777398 0.617390 -0.097541 center 0.154 0.111 -0.146 ntor 7 5.3511 117.5211 19.1468 -19.2602 -179.3407 -76.9531 37.6757
State:	 16.077 -10.132  -0.660   0.071  0.781  0.620 -168.805      5.35  117.52   19.15  -19.26 -179.34  -76.95   37.68

DOCKED: MODEL       70
DOCKED: USER    Run = 70
DOCKED: USER    DPF = ligand_dock.biased.dpf
DOCKED: USER  
DOCKED: USER    Estimated Free Energy of Binding    =   -8.42 kcal/mol  [=(1)+(2)+(3)-(4)]
DOCKED: USER    Estimated Inhibition Constant, Ki   =  674.69 nM (nanomolar)  [Temperature = 298.15 K]
DOCKED: USER    
DOCKED: USER    (1) Final Intermolecular Energy     =  -10.51 kcal/mol
DOCKED: USER        vdW + Hbond + desolv Energy     =  -10.51 kcal/mol
DOCKED: USER        Electrostatic Energy            =   +0.00 kcal/mol
DOCKED: USER    (2) Final Total Internal Energy     =   -2.72 kcal/mol
DOCKED: USER    (3) Torsional Free Energy           =   +2.09 kcal/mol
DOCKED: USER    (4) Unbound System's Energy  [=(2)] =   -2.72 kcal/mol
DOCKED: USER    
DOCKED: USER    
DOCKED: USER    NEWDPF move ligand.pdbqt
DOCKED: USER    NEWDPF about 0.154000 0.111000 -0.146000
DOCKED: USER    NEWDPF tran0 16.077178 -10.131705 -0.659624
DOCKED: USER    NEWDPF quaternion0 0.070480 0.777398 0.617390 -0.097541
DOCKED: USER    NEWDPF axisangle0 0.070818 0.781123 0.620348 -168.804841
DOCKED: USER    NEWDPF quat0 0.070818 0.781123 0.620348 -168.804841
DOCKED: USER    NEWDPF dihe0 5.35 117.52 19.15 -19.26 -179.34 -76.95 37.68 
DOCKED: USER  keepresnum = 1 
DOCKED: USER  
DOCKED: REMARK  Name = 
DOCKED: REMARK  7 active torsions:
DOCKED: REMARK  status: ('A' for Active; 'I' for Inactive)
DOCKED: REMARK    1  A    between atoms: C_2  and  C_5
DOCKED: REMARK    2  A    between atoms: N_3  and  O_4
DOCKED: REMARK    3  A    between atoms: C_5  and  C_6
DOCKED: REMARK    4  A    between atoms: C_6  and  C_7
DOCKED: REMARK    5  A    between atoms: C_7  and  C_8
DOCKED: REMARK    6  A    between atoms: C_8  and  C_9
DOCKED: REMARK    7  A    between atoms: C_9  and  N_10
DOCKED: REMARK                            x       y       z     vdW  Elec       q    Type
DOCKED: REMARK                         _______ _______ _______ _____ _____    ______ ____
DOCKED: USER                              x       y       z     vdW  Elec       q    Type
DOCKED: USER                           _______ _______ _______ _____ _____    ______ ____
DOCKED: ROOT
DOCKED: ATOM      1  N   UNL     1      16.406 -11.535  -1.068 -0.28 +0.00    +0.000 N 
DOCKED: ATOM      2  C   UNL     1      16.926 -12.081   0.159 -0.50 +0.00    +0.000 C 
DOCKED: ATOM      3  C   UNL     1      18.336 -11.838   0.541 -0.49 -0.00    +0.000 A 
DOCKED: ATOM      4  C   UNL     1      18.846 -12.346   1.749 -0.45 -0.00    +0.000 A 
DOCKED: ATOM      5  C   UNL     1      20.174 -12.116   2.112 -0.65 -0.00    +0.000 A 
DOCKED: ATOM      6  C   UNL     1      21.013 -11.378   1.277 -0.50 -0.00    +0.000 A 
DOCKED: ATOM      7  C   UNL     1      20.528 -10.862   0.067 -0.60 -0.00    +0.000 A 
DOCKED: ATOM      8  C   UNL     1      21.372 -10.121  -0.773 -0.62 -0.00    +0.000 A 
DOCKED: ATOM      9  C   UNL     1      20.891  -9.610  -1.977 -0.51 -0.00    +0.000 A 
DOCKED: ATOM     10  C   UNL     1      19.566  -9.829  -2.357 -0.27 -0.00    +0.000 A 
DOCKED: ATOM     11  C   UNL     1      18.700 -10.569  -1.533 -0.32 -0.00    +0.000 A 
DOCKED: ATOM     12  C   UNL     1      19.180 -11.091  -0.310 -0.47 -0.00    +0.000 A 
DOCKED: ATOM     13  O   UNL     1      16.181 -12.769   0.910 -1.08 +0.00    +0.000 OA
DOCKED: ATOM     14  C   UNL     1      17.294 -10.801  -1.936 -0.16 -0.00    +0.000 C 
DOCKED: ATOM     15  O   UNL     1      16.878 -10.355  -3.040 -0.28 -0.00    +0.000 OA
DOCKED: ENDROOT
DOCKED: BRANCH   1  16
DOCKED: ATOM     16  C   UNL     1      14.982 -11.699  -1.405 -0.37 +0.00    +0.000 C 
DOCKED: BRANCH  16  17
DOCKED: ATOM     17  C   UNL     1      14.243 -10.350  -1.406 -0.29 -0.00    +0.000 C 
DOCKED: BRANCH  17  18
DOCKED: ATOM     18  C   UNL     1      15.034  -9.196  -0.759 -0.25 -0.00    +0.000 C 
DOCKED: BRANCH  18  19
DOCKED: ATOM     19  C   UNL     1      14.466  -8.699   0.586 -0.26 +0.00    +0.000 C 
DOCKED: BRANCH  19  20
DOCKED: ATOM     20  C   UNL     1      14.111  -9.815   1.581 -0.26 +0.00    +0.000 C 
DOCKED: BRANCH  20  22
DOCKED: ATOM     21  O   UNL     1      15.255 -11.408   2.946 -0.54 +0.00    +0.000 OA
DOCKED: ATOM     22  C   UNL     1      15.318 -10.316   2.321 -0.39 +0.00    +0.000 C 
DOCKED: ATOM     23  N   UNL     1      16.523  -9.546   2.347 -0.38 +0.00    +0.000 N 
DOCKED: ATOM     24  H   UNL     1      16.565  -8.690   1.865 -0.03 +0.00    +0.000 HD
DOCKED: BRANCH  23  25
DOCKED: ATOM     25  O   UNL     1      17.605  -9.986   3.032 -0.53 +0.00    +0.000 OA
DOCKED: ATOM     26  H   UNL     1      17.430 -10.876   3.378 -0.02 +0.00    +0.000 HD
DOCKED: ENDBRANCH  23  25
DOCKED: ENDBRANCH  20  22
DOCKED: ENDBRANCH  19  20
DOCKED: ENDBRANCH  18  19
DOCKED: ENDBRANCH  17  18
DOCKED: ENDBRANCH  16  17
DOCKED: ENDBRANCH   1  16
DOCKED: TORSDOF 7
DOCKED: TER
DOCKED: ENDMDL
________________________________________________________________________________


	BEGINNING GENETIC ALGORITHM DOCKING 71 of 100
Run: 71 Seed: 1418976654 1581161300 [ Run 71 of 100 GA/GALS ]
Beginning LAMARCKIAN GENETIC ALGORITHM (LGA), with a maximum of 2500000 energy evaluations.

Final-Value: -13.633


	FINAL GENETIC ALGORITHM DOCKED STATE
	_______________________________________________


Detailed state:  trans 20.008 -8.731 -1.480 quatxyzw 0.207184 -0.296320 -0.471669 0.804237 center 0.154 0.111 -0.146 ntor 7 -6.7175 -167.4550 -84.4570 28.7542 -17.9254 31.4368 -169.4945
State:	 20.008  -8.731  -1.480   0.349 -0.499 -0.794 72.927     -6.72 -167.46  -84.46   28.75  -17.93   31.44 -169.49

DOCKED: MODEL       71
DOCKED: USER    Run = 71
DOCKED: USER    DPF = ligand_dock.biased.dpf
DOCKED: USER  
DOCKED: USER    Estimated Free Energy of Binding    =  -10.03 kcal/mol  [=(1)+(2)+(3)-(4)]
DOCKED: USER    Estimated Inhibition Constant, Ki   =   44.47 nM (nanomolar)  [Temperature = 298.15 K]
DOCKED: USER    
DOCKED: USER    (1) Final Intermolecular Energy     =  -12.12 kcal/mol
DOCKED: USER        vdW + Hbond + desolv Energy     =  -12.12 kcal/mol
DOCKED: USER        Electrostatic Energy            =   +0.00 kcal/mol
DOCKED: USER    (2) Final Total Internal Energy     =   -1.52 kcal/mol
DOCKED: USER    (3) Torsional Free Energy           =   +2.09 kcal/mol
DOCKED: USER    (4) Unbound System's Energy  [=(2)] =   -1.52 kcal/mol
DOCKED: USER    
DOCKED: USER    
DOCKED: USER    NEWDPF move ligand.pdbqt
DOCKED: USER    NEWDPF about 0.154000 0.111000 -0.146000
DOCKED: USER    NEWDPF tran0 20.007814 -8.730673 -1.479736
DOCKED: USER    NEWDPF quaternion0 0.207184 -0.296320 -0.471669 0.804237
DOCKED: USER    NEWDPF axisangle0 0.348614 -0.498597 -0.793643 72.926640
DOCKED: USER    NEWDPF quat0 0.348614 -0.498597 -0.793643 72.926640
DOCKED: USER    NEWDPF dihe0 -6.72 -167.46 -84.46 28.75 -17.93 31.44 -169.49 
DOCKED: USER  keepresnum = 1 
DOCKED: USER  
DOCKED: REMARK  Name = 
DOCKED: REMARK  7 active torsions:
DOCKED: REMARK  status: ('A' for Active; 'I' for Inactive)
DOCKED: REMARK    1  A    between atoms: C_2  and  C_5
DOCKED: REMARK    2  A    between atoms: N_3  and  O_4
DOCKED: REMARK    3  A    between atoms: C_5  and  C_6
DOCKED: REMARK    4  A    between atoms: C_6  and  C_7
DOCKED: REMARK    5  A    between atoms: C_7  and  C_8
DOCKED: REMARK    6  A    between atoms: C_8  and  C_9
DOCKED: REMARK    7  A    between atoms: C_9  and  N_10
DOCKED: REMARK                            x       y       z     vdW  Elec       q    Type
DOCKED: REMARK                         _______ _______ _______ _____ _____    ______ ____
DOCKED: USER                              x       y       z     vdW  Elec       q    Type
DOCKED: USER                           _______ _______ _______ _____ _____    ______ ____
DOCKED: ROOT
DOCKED: ATOM      1  N   UNL     1      20.083 -10.171  -1.884 -0.45 -0.00    +0.000 N 
DOCKED: ATOM      2  C   UNL     1      18.689 -10.528  -1.952 -0.37 -0.00    +0.000 C 
DOCKED: ATOM      3  C   UNL     1      17.954 -10.890  -0.718 -0.35 -0.00    +0.000 A 
DOCKED: ATOM      4  C   UNL     1      16.587 -11.215  -0.771 -0.31 -0.00    +0.000 A 
DOCKED: ATOM      5  C   UNL     1      15.893 -11.554   0.391 -0.37 +0.00    +0.000 A 
DOCKED: ATOM      6  C   UNL     1      16.549 -11.574   1.622 -0.39 +0.00    +0.000 A 
DOCKED: ATOM      7  C   UNL     1      17.912 -11.254   1.700 -0.45 -0.00    +0.000 A 
DOCKED: ATOM      8  C   UNL     1      18.571 -11.275   2.938 -0.44 -0.00    +0.000 A 
DOCKED: ATOM      9  C   UNL     1      19.927 -10.960   3.015 -0.66 -0.00    +0.000 A 
DOCKED: ATOM     10  C   UNL     1      20.639 -10.619   1.864 -0.49 -0.00    +0.000 A 
DOCKED: ATOM     11  C   UNL     1      20.000 -10.590   0.612 -0.57 -0.00    +0.000 A 
DOCKED: ATOM     12  C   UNL     1      18.626 -10.909   0.524 -0.44 -0.00    +0.000 A 
DOCKED: ATOM     13  O   UNL     1      18.092 -10.535  -3.064 -0.33 -0.00    +0.000 OA
DOCKED: ATOM     14  C   UNL     1      20.755 -10.227  -0.609 -0.67 -0.00    +0.000 C 
DOCKED: ATOM     15  O   UNL     1      21.987  -9.969  -0.529 -0.69 -0.00    +0.000 OA
DOCKED: ENDROOT
DOCKED: BRANCH   1  16
DOCKED: ATOM     16  C   UNL     1      20.792  -9.724  -3.095 -0.50 -0.00    +0.000 C 
DOCKED: BRANCH  16  17
DOCKED: ATOM     17  C   UNL     1      21.500 -10.894  -3.800 -0.49 -0.00    +0.000 C 
DOCKED: BRANCH  17  18
DOCKED: ATOM     18  C   UNL     1      20.682 -11.531  -4.941 -0.53 -0.00    +0.000 C 
DOCKED: BRANCH  18  19
DOCKED: ATOM     19  C   UNL     1      20.133 -10.530  -5.978 -0.35 -0.00    +0.000 C 
DOCKED: BRANCH  19  20
DOCKED: ATOM     20  C   UNL     1      21.018 -10.348  -7.221 -0.29 -0.00    +0.000 C 
DOCKED: BRANCH  20  22
DOCKED: ATOM     21  O   UNL     1      23.256  -9.869  -6.532 -0.33 -0.00    +0.000 OA
DOCKED: ATOM     22  C   UNL     1      22.445 -10.735  -6.958 -0.40 -0.00    +0.000 C 
DOCKED: ATOM     23  N   UNL     1      22.895 -12.066  -7.220 -0.48 -0.00    +0.000 N 
DOCKED: ATOM     24  H   UNL     1      22.262 -12.737  -7.560 -0.63 -0.00    +0.000 HD
DOCKED: BRANCH  23  25
DOCKED: ATOM     25  O   UNL     1      24.187 -12.411  -7.004 -1.12 +0.00    +0.000 OA
DOCKED: ATOM     26  H   UNL     1      24.699 -11.619  -6.774 -0.03 +0.00    +0.000 HD
DOCKED: ENDBRANCH  23  25
DOCKED: ENDBRANCH  20  22
DOCKED: ENDBRANCH  19  20
DOCKED: ENDBRANCH  18  19
DOCKED: ENDBRANCH  17  18
DOCKED: ENDBRANCH  16  17
DOCKED: ENDBRANCH   1  16
DOCKED: TORSDOF 7
DOCKED: TER
DOCKED: ENDMDL
________________________________________________________________________________


	BEGINNING GENETIC ALGORITHM DOCKING 72 of 100
Run: 72 Seed: 1193305451 1477122568 [ Run 72 of 100 GA/GALS ]
Beginning LAMARCKIAN GENETIC ALGORITHM (LGA), with a maximum of 2500000 energy evaluations.

Final-Value: -14.171


	FINAL GENETIC ALGORITHM DOCKED STATE
	_______________________________________________


Detailed state:  trans 19.493 -12.549 0.196 quatxyzw 0.867463 -0.123710 -0.189831 -0.442909 center 0.154 0.111 -0.146 ntor 7 -2.6162 167.3858 -28.3926 119.6195 37.4041 -161.4834 180.0000
State:	 19.493 -12.549   0.196   0.968 -0.138 -0.212 -127.421     -2.62  167.39  -28.39  119.62   37.40 -161.48  180.00

DOCKED: MODEL       72
DOCKED: USER    Run = 72
DOCKED: USER    DPF = ligand_dock.biased.dpf
DOCKED: USER  
DOCKED: USER    Estimated Free Energy of Binding    =   -9.69 kcal/mol  [=(1)+(2)+(3)-(4)]
DOCKED: USER    Estimated Inhibition Constant, Ki   =   78.49 nM (nanomolar)  [Temperature = 298.15 K]
DOCKED: USER    
DOCKED: USER    (1) Final Intermolecular Energy     =  -11.78 kcal/mol
DOCKED: USER        vdW + Hbond + desolv Energy     =  -11.78 kcal/mol
DOCKED: USER        Electrostatic Energy            =   +0.00 kcal/mol
DOCKED: USER    (2) Final Total Internal Energy     =   -2.39 kcal/mol
DOCKED: USER    (3) Torsional Free Energy           =   +2.09 kcal/mol
DOCKED: USER    (4) Unbound System's Energy  [=(2)] =   -2.39 kcal/mol
DOCKED: USER    
DOCKED: USER    
DOCKED: USER    NEWDPF move ligand.pdbqt
DOCKED: USER    NEWDPF about 0.154000 0.111000 -0.146000
DOCKED: USER    NEWDPF tran0 19.493382 -12.549271 0.195693
DOCKED: USER    NEWDPF quaternion0 0.867463 -0.123710 -0.189831 -0.442909
DOCKED: USER    NEWDPF axisangle0 0.967539 -0.137982 -0.211731 -127.420764
DOCKED: USER    NEWDPF quat0 0.967539 -0.137982 -0.211731 -127.420764
DOCKED: USER    NEWDPF dihe0 -2.62 167.39 -28.39 119.62 37.40 -161.48 180.00 
DOCKED: USER  keepresnum = 1 
DOCKED: USER  
DOCKED: REMARK  Name = 
DOCKED: REMARK  7 active torsions:
DOCKED: REMARK  status: ('A' for Active; 'I' for Inactive)
DOCKED: REMARK    1  A    between atoms: C_2  and  C_5
DOCKED: REMARK    2  A    between atoms: N_3  and  O_4
DOCKED: REMARK    3  A    between atoms: C_5  and  C_6
DOCKED: REMARK    4  A    between atoms: C_6  and  C_7
DOCKED: REMARK    5  A    between atoms: C_7  and  C_8
DOCKED: REMARK    6  A    between atoms: C_8  and  C_9
DOCKED: REMARK    7  A    between atoms: C_9  and  N_10
DOCKED: REMARK                            x       y       z     vdW  Elec       q    Type
DOCKED: REMARK                         _______ _______ _______ _____ _____    ______ ____
DOCKED: USER                              x       y       z     vdW  Elec       q    Type
DOCKED: USER                           _______ _______ _______ _____ _____    ______ ____
DOCKED: ROOT
DOCKED: ATOM      1  N   UNL     1      19.483 -11.061   0.364 -0.52 -0.00    +0.000 N 
DOCKED: ATOM      2  C   UNL     1      19.087 -10.926   1.743 -0.61 -0.00    +0.000 C 
DOCKED: ATOM      3  C   UNL     1      17.655 -11.000   2.114 -0.44 +0.00    +0.000 A 
DOCKED: ATOM      4  C   UNL     1      17.260 -10.896   3.460 -0.32 +0.00    +0.000 A 
DOCKED: ATOM      5  C   UNL     1      15.911 -10.968   3.811 -0.48 +0.00    +0.000 A 
DOCKED: ATOM      6  C   UNL     1      14.937 -11.144   2.829 -0.44 +0.00    +0.000 A 
DOCKED: ATOM      7  C   UNL     1      15.306 -11.251   1.481 -0.37 +0.00    +0.000 A 
DOCKED: ATOM      8  C   UNL     1      14.326 -11.427   0.493 -0.35 +0.00    +0.000 A 
DOCKED: ATOM      9  C   UNL     1      14.692 -11.530  -0.848 -0.35 +0.00    +0.000 A 
DOCKED: ATOM     10  C   UNL     1      16.035 -11.460  -1.220 -0.22 +0.00    +0.000 A 
DOCKED: ATOM     11  C   UNL     1      17.037 -11.284  -0.248 -0.35 -0.00    +0.000 A 
DOCKED: ATOM     12  C   UNL     1      16.674 -11.178   1.113 -0.37 +0.00    +0.000 A 
DOCKED: ATOM     13  O   UNL     1      19.960 -10.744   2.636 -0.87 -0.00    +0.000 OA
DOCKED: ATOM     14  C   UNL     1      18.463 -11.211  -0.643 -0.47 -0.00    +0.000 C 
DOCKED: ATOM     15  O   UNL     1      18.779 -11.280  -1.862 -0.45 -0.00    +0.000 OA
DOCKED: ENDROOT
DOCKED: BRANCH   1  16
DOCKED: ATOM     16  C   UNL     1      20.911 -11.078   0.004 -0.55 -0.00    +0.000 C 
DOCKED: BRANCH  16  17
DOCKED: ATOM     17  C   UNL     1      21.355  -9.739  -0.610 -0.69 -0.00    +0.000 C 
DOCKED: BRANCH  17  18
DOCKED: ATOM     18  C   UNL     1      21.386  -9.730  -2.150 -0.57 -0.00    +0.000 C 
DOCKED: BRANCH  18  19
DOCKED: ATOM     19  C   UNL     1      20.242  -8.936  -2.814 -0.34 -0.00    +0.000 C 
DOCKED: BRANCH  19  20
DOCKED: ATOM     20  C   UNL     1      20.195  -9.044  -4.347 -0.31 -0.00    +0.000 C 
DOCKED: BRANCH  20  22
DOCKED: ATOM     21  O   UNL     1      21.701 -10.487  -5.515 -0.43 -0.00    +0.000 OA
DOCKED: ATOM     22  C   UNL     1      20.647 -10.393  -4.830 -0.43 -0.00    +0.000 C 
DOCKED: ATOM     23  N   UNL     1      19.872 -11.561  -4.548 -0.49 -0.00    +0.000 N 
DOCKED: ATOM     24  H   UNL     1      19.046 -11.482  -4.020 -0.02 -0.00    +0.000 HD
DOCKED: BRANCH  23  25
DOCKED: ATOM     25  O   UNL     1      20.266 -12.774  -5.002 -0.78 -0.00    +0.000 OA
DOCKED: ATOM     26  H   UNL     1      21.071 -12.674  -5.536 -0.59 -0.00    +0.000 HD
DOCKED: ENDBRANCH  23  25
DOCKED: ENDBRANCH  20  22
DOCKED: ENDBRANCH  19  20
DOCKED: ENDBRANCH  18  19
DOCKED: ENDBRANCH  17  18
DOCKED: ENDBRANCH  16  17
DOCKED: ENDBRANCH   1  16
DOCKED: TORSDOF 7
DOCKED: TER
DOCKED: ENDMDL
________________________________________________________________________________


	BEGINNING GENETIC ALGORITHM DOCKING 73 of 100
Run: 73 Seed: 898536470 932431302 [ Run 73 of 100 GA/GALS ]
Beginning LAMARCKIAN GENETIC ALGORITHM (LGA), with a maximum of 2500000 energy evaluations.

Final-Value: -14.104


	FINAL GENETIC ALGORITHM DOCKED STATE
	_______________________________________________


Detailed state:  trans 18.767 -13.059 1.183 quatxyzw -0.856631 0.219110 0.091595 0.458022 center 0.154 0.111 -0.146 ntor 7 -11.9655 -180.0000 174.4269 103.2499 -160.1501 -125.1779 -165.3160
State:	 18.767 -13.059   1.183  -0.964  0.246  0.103 125.481    -11.97 -180.00  174.43  103.25 -160.15 -125.18 -165.32

DOCKED: MODEL       73
DOCKED: USER    Run = 73
DOCKED: USER    DPF = ligand_dock.biased.dpf
DOCKED: USER  
DOCKED: USER    Estimated Free Energy of Binding    =   -9.74 kcal/mol  [=(1)+(2)+(3)-(4)]
DOCKED: USER    Estimated Inhibition Constant, Ki   =   72.20 nM (nanomolar)  [Temperature = 298.15 K]
DOCKED: USER    
DOCKED: USER    (1) Final Intermolecular Energy     =  -11.83 kcal/mol
DOCKED: USER        vdW + Hbond + desolv Energy     =  -11.83 kcal/mol
DOCKED: USER        Electrostatic Energy            =   +0.00 kcal/mol
DOCKED: USER    (2) Final Total Internal Energy     =   -2.27 kcal/mol
DOCKED: USER    (3) Torsional Free Energy           =   +2.09 kcal/mol
DOCKED: USER    (4) Unbound System's Energy  [=(2)] =   -2.27 kcal/mol
DOCKED: USER    
DOCKED: USER    
DOCKED: USER    NEWDPF move ligand.pdbqt
DOCKED: USER    NEWDPF about 0.154000 0.111000 -0.146000
DOCKED: USER    NEWDPF tran0 18.767087 -13.059031 1.182729
DOCKED: USER    NEWDPF quaternion0 -0.856631 0.219110 0.091595 0.458022
DOCKED: USER    NEWDPF axisangle0 -0.963654 0.246484 0.103039 125.480963
DOCKED: USER    NEWDPF quat0 -0.963654 0.246484 0.103039 125.480963
DOCKED: USER    NEWDPF dihe0 -11.97 -180.00 174.43 103.25 -160.15 -125.18 -165.32 
DOCKED: USER  keepresnum = 1 
DOCKED: USER  
DOCKED: REMARK  Name = 
DOCKED: REMARK  7 active torsions:
DOCKED: REMARK  status: ('A' for Active; 'I' for Inactive)
DOCKED: REMARK    1  A    between atoms: C_2  and  C_5
DOCKED: REMARK    2  A    between atoms: N_3  and  O_4
DOCKED: REMARK    3  A    between atoms: C_5  and  C_6
DOCKED: REMARK    4  A    between atoms: C_6  and  C_7
DOCKED: REMARK    5  A    between atoms: C_7  and  C_8
DOCKED: REMARK    6  A    between atoms: C_8  and  C_9
DOCKED: REMARK    7  A    between atoms: C_9  and  N_10
DOCKED: REMARK                            x       y       z     vdW  Elec       q    Type
DOCKED: REMARK                         _______ _______ _______ _____ _____    ______ ____
DOCKED: USER                              x       y       z     vdW  Elec       q    Type
DOCKED: USER                           _______ _______ _______ _____ _____    ______ ____
DOCKED: ROOT
DOCKED: ATOM      1  N   UNL     1      18.846 -11.563   1.215 -0.52 -0.00    +0.000 N 
DOCKED: ATOM      2  C   UNL     1      18.142 -11.261   2.435 -0.51 -0.00    +0.000 C 
DOCKED: ATOM      3  C   UNL     1      16.662 -11.205   2.444 -0.39 +0.00    +0.000 A 
DOCKED: ATOM      4  C   UNL     1      15.965 -10.936   3.635 -0.48 +0.00    +0.000 A 
DOCKED: ATOM      5  C   UNL     1      14.570 -10.886   3.645 -0.34 +0.00    +0.000 A 
DOCKED: ATOM      6  C   UNL     1      13.850 -11.103   2.471 -0.36 +0.00    +0.000 A 
DOCKED: ATOM      7  C   UNL     1      14.522 -11.373   1.271 -0.37 +0.00    +0.000 A 
DOCKED: ATOM      8  C   UNL     1      13.797 -11.589   0.090 -0.37 +0.00    +0.000 A 
DOCKED: ATOM      9  C   UNL     1      14.466 -11.855  -1.104 -0.37 +0.00    +0.000 A 
DOCKED: ATOM     10  C   UNL     1      15.860 -11.909  -1.136 -0.14 +0.00    +0.000 A 
DOCKED: ATOM     11  C   UNL     1      16.609 -11.695   0.035 -0.39 +0.00    +0.000 A 
DOCKED: ATOM     12  C   UNL     1      15.940 -11.425   1.250 -0.38 +0.00    +0.000 A 
DOCKED: ATOM     13  O   UNL     1      18.786 -11.041   3.498 -0.64 -0.00    +0.000 OA
DOCKED: ATOM     14  C   UNL     1      18.089 -11.754   0.003 -0.52 -0.00    +0.000 C 
DOCKED: ATOM     15  O   UNL     1      18.682 -11.970  -1.089 -0.49 -0.00    +0.000 OA
DOCKED: ENDROOT
DOCKED: BRANCH   1  16
DOCKED: ATOM     16  C   UNL     1      20.311 -11.708   1.223 -0.73 -0.00    +0.000 C 
DOCKED: BRANCH  16  17
DOCKED: ATOM     17  C   UNL     1      21.013 -10.362   0.975 -0.55 -0.00    +0.000 C 
DOCKED: BRANCH  17  18
DOCKED: ATOM     18  C   UNL     1      20.688  -9.722  -0.389 -0.64 -0.00    +0.000 C 
DOCKED: BRANCH  18  19
DOCKED: ATOM     19  C   UNL     1      21.655 -10.105  -1.528 -0.46 -0.00    +0.000 C 
DOCKED: BRANCH  19  20
DOCKED: ATOM     20  C   UNL     1      21.190  -9.680  -2.930 -0.52 -0.00    +0.000 C 
DOCKED: BRANCH  20  22
DOCKED: ATOM     21  O   UNL     1      22.022 -11.026  -4.721 -0.55 -0.00    +0.000 OA
DOCKED: ATOM     22  C   UNL     1      21.107 -10.845  -3.874 -0.51 -0.00    +0.000 C 
DOCKED: ATOM     23  N   UNL     1      19.982 -11.727  -3.839 -0.37 -0.00    +0.000 N 
DOCKED: ATOM     24  H   UNL     1      19.265 -11.578  -3.182 -0.02 -0.00    +0.000 HD
DOCKED: BRANCH  23  25
DOCKED: ATOM     25  O   UNL     1      19.895 -12.765  -4.704 -0.61 -0.00    +0.000 OA
DOCKED: ATOM     26  H   UNL     1      20.567 -12.667  -5.398 -0.58 -0.00    +0.000 HD
DOCKED: ENDBRANCH  23  25
DOCKED: ENDBRANCH  20  22
DOCKED: ENDBRANCH  19  20
DOCKED: ENDBRANCH  18  19
DOCKED: ENDBRANCH  17  18
DOCKED: ENDBRANCH  16  17
DOCKED: ENDBRANCH   1  16
DOCKED: TORSDOF 7
DOCKED: TER
DOCKED: ENDMDL
________________________________________________________________________________


	BEGINNING GENETIC ALGORITHM DOCKING 74 of 100
Run: 74 Seed: 1175023651 1889632595 [ Run 74 of 100 GA/GALS ]
Beginning LAMARCKIAN GENETIC ALGORITHM (LGA), with a maximum of 2500000 energy evaluations.

Final-Value: -13.046


	FINAL GENETIC ALGORITHM DOCKED STATE
	_______________________________________________


Detailed state:  trans 20.541 -9.147 -1.264 quatxyzw 0.215642 -0.289926 -0.395760 0.844284 center 0.154 0.111 -0.146 ntor 7 -0.2860 70.2984 178.6760 104.3641 158.5280 56.5640 -27.7558
State:	 20.541  -9.147  -1.264   0.402 -0.541 -0.739 64.809     -0.29   70.30  178.68  104.36  158.53   56.56  -27.76

DOCKED: MODEL       74
DOCKED: USER    Run = 74
DOCKED: USER    DPF = ligand_dock.biased.dpf
DOCKED: USER  
DOCKED: USER    Estimated Free Energy of Binding    =   -9.69 kcal/mol  [=(1)+(2)+(3)-(4)]
DOCKED: USER    Estimated Inhibition Constant, Ki   =   78.49 nM (nanomolar)  [Temperature = 298.15 K]
DOCKED: USER    
DOCKED: USER    (1) Final Intermolecular Energy     =  -11.78 kcal/mol
DOCKED: USER        vdW + Hbond + desolv Energy     =  -11.78 kcal/mol
DOCKED: USER        Electrostatic Energy            =   +0.00 kcal/mol
DOCKED: USER    (2) Final Total Internal Energy     =   -1.26 kcal/mol
DOCKED: USER    (3) Torsional Free Energy           =   +2.09 kcal/mol
DOCKED: USER    (4) Unbound System's Energy  [=(2)] =   -1.26 kcal/mol
DOCKED: USER    
DOCKED: USER    
DOCKED: USER    NEWDPF move ligand.pdbqt
DOCKED: USER    NEWDPF about 0.154000 0.111000 -0.146000
DOCKED: USER    NEWDPF tran0 20.541044 -9.147087 -1.264228
DOCKED: USER    NEWDPF quaternion0 0.215642 -0.289926 -0.395760 0.844284
DOCKED: USER    NEWDPF axisangle0 0.402396 -0.541011 -0.738501 64.809338
DOCKED: USER    NEWDPF quat0 0.402396 -0.541011 -0.738501 64.809338
DOCKED: USER    NEWDPF dihe0 -0.29 70.30 178.68 104.36 158.53 56.56 -27.76 
DOCKED: USER  keepresnum = 1 
DOCKED: USER  
DOCKED: REMARK  Name = 
DOCKED: REMARK  7 active torsions:
DOCKED: REMARK  status: ('A' for Active; 'I' for Inactive)
DOCKED: REMARK    1  A    between atoms: C_2  and  C_5
DOCKED: REMARK    2  A    between atoms: N_3  and  O_4
DOCKED: REMARK    3  A    between atoms: C_5  and  C_6
DOCKED: REMARK    4  A    between atoms: C_6  and  C_7
DOCKED: REMARK    5  A    between atoms: C_7  and  C_8
DOCKED: REMARK    6  A    between atoms: C_8  and  C_9
DOCKED: REMARK    7  A    between atoms: C_9  and  N_10
DOCKED: REMARK                            x       y       z     vdW  Elec       q    Type
DOCKED: REMARK                         _______ _______ _______ _____ _____    ______ ____
DOCKED: USER                              x       y       z     vdW  Elec       q    Type
DOCKED: USER                           _______ _______ _______ _____ _____    ______ ____
DOCKED: ROOT
DOCKED: ATOM      1  N   UNL     1      20.424 -10.598  -1.618 -0.50 -0.00    +0.000 N 
DOCKED: ATOM      2  C   UNL     1      19.000 -10.744  -1.781 -0.43 -0.00    +0.000 C 
DOCKED: ATOM      3  C   UNL     1      18.133 -10.940  -0.596 -0.37 -0.00    +0.000 A 
DOCKED: ATOM      4  C   UNL     1      16.740 -11.058  -0.743 -0.31 -0.00    +0.000 A 
DOCKED: ATOM      5  C   UNL     1      15.921 -11.239   0.374 -0.34 +0.00    +0.000 A 
DOCKED: ATOM      6  C   UNL     1      16.478 -11.307   1.651 -0.39 +0.00    +0.000 A 
DOCKED: ATOM      7  C   UNL     1      17.865 -11.193   1.822 -0.44 -0.00    +0.000 A 
DOCKED: ATOM      8  C   UNL     1      18.425 -11.262   3.106 -0.37 -0.00    +0.000 A 
DOCKED: ATOM      9  C   UNL     1      19.804 -11.151   3.277 -0.65 -0.00    +0.000 A 
DOCKED: ATOM     10  C   UNL     1      20.639 -10.969   2.174 -0.58 -0.00    +0.000 A 
DOCKED: ATOM     11  C   UNL     1      20.102 -10.896   0.876 -0.60 -0.00    +0.000 A 
DOCKED: ATOM     12  C   UNL     1      18.705 -11.008   0.694 -0.47 -0.00    +0.000 A 
DOCKED: ATOM     13  O   UNL     1      18.489 -10.707  -2.934 -0.36 -0.00    +0.000 OA
DOCKED: ATOM     14  C   UNL     1      20.988 -10.702  -0.295 -0.67 -0.00    +0.000 C 
DOCKED: ATOM     15  O   UNL     1      22.236 -10.628  -0.129 -0.65 -0.00    +0.000 OA
DOCKED: ENDROOT
DOCKED: BRANCH   1  16
DOCKED: ATOM     16  C   UNL     1      21.276 -10.314  -2.784 -0.55 -0.00    +0.000 C 
DOCKED: BRANCH  16  17
DOCKED: ATOM     17  C   UNL     1      20.707  -9.163  -3.632 -0.41 -0.00    +0.000 C 
DOCKED: BRANCH  17  18
DOCKED: ATOM     18  C   UNL     1      21.653  -7.955  -3.773 -0.31 -0.00    +0.000 C 
DOCKED: BRANCH  18  19
DOCKED: ATOM     19  C   UNL     1      20.993  -6.585  -3.516 -0.33 -0.00    +0.000 C 
DOCKED: BRANCH  19  20
DOCKED: ATOM     20  C   UNL     1      21.977  -5.407  -3.431 -0.28 -0.00    +0.000 C 
DOCKED: BRANCH  20  22
DOCKED: ATOM     21  O   UNL     1      22.964  -4.196  -1.622 -0.91 +0.00    +0.000 OA
DOCKED: ATOM     22  C   UNL     1      21.922  -4.722  -2.095 -0.39 -0.00    +0.000 C 
DOCKED: ATOM     23  N   UNL     1      20.704  -4.694  -1.346 -0.44 +0.00    +0.000 N 
DOCKED: ATOM     24  H   UNL     1      19.894  -5.113  -1.714 -0.05 -0.00    +0.000 HD
DOCKED: BRANCH  23  25
DOCKED: ATOM     25  O   UNL     1      20.658  -4.096  -0.131 -0.93 +0.00    +0.000 OA
DOCKED: ATOM     26  H   UNL     1      21.534  -3.740   0.088 -0.05 +0.00    +0.000 HD
DOCKED: ENDBRANCH  23  25
DOCKED: ENDBRANCH  20  22
DOCKED: ENDBRANCH  19  20
DOCKED: ENDBRANCH  18  19
DOCKED: ENDBRANCH  17  18
DOCKED: ENDBRANCH  16  17
DOCKED: ENDBRANCH   1  16
DOCKED: TORSDOF 7
DOCKED: TER
DOCKED: ENDMDL
________________________________________________________________________________


	BEGINNING GENETIC ALGORITHM DOCKING 75 of 100
Run: 75 Seed: 1160626916 317728376 [ Run 75 of 100 GA/GALS ]
Beginning LAMARCKIAN GENETIC ALGORITHM (LGA), with a maximum of 2500000 energy evaluations.

Final-Value: -13.515


	FINAL GENETIC ALGORITHM DOCKED STATE
	_______________________________________________


Detailed state:  trans 16.716 -12.992 -1.203 quatxyzw -0.110911 0.555953 -0.766325 -0.302259 center 0.154 0.111 -0.146 ntor 7 21.7053 171.0049 156.7894 19.2311 -3.9238 173.4616 -165.0811
State:	 16.716 -12.992  -1.203  -0.116  0.583 -0.804 -144.813     21.71  171.00  156.79   19.23   -3.92  173.46 -165.08

DOCKED: MODEL       75
DOCKED: USER    Run = 75
DOCKED: USER    DPF = ligand_dock.biased.dpf
DOCKED: USER  
DOCKED: USER    Estimated Free Energy of Binding    =   -8.88 kcal/mol  [=(1)+(2)+(3)-(4)]
DOCKED: USER    Estimated Inhibition Constant, Ki   =  311.26 nM (nanomolar)  [Temperature = 298.15 K]
DOCKED: USER    
DOCKED: USER    (1) Final Intermolecular Energy     =  -10.97 kcal/mol
DOCKED: USER        vdW + Hbond + desolv Energy     =  -10.97 kcal/mol
DOCKED: USER        Electrostatic Energy            =   +0.00 kcal/mol
DOCKED: USER    (2) Final Total Internal Energy     =   -2.55 kcal/mol
DOCKED: USER    (3) Torsional Free Energy           =   +2.09 kcal/mol
DOCKED: USER    (4) Unbound System's Energy  [=(2)] =   -2.55 kcal/mol
DOCKED: USER    
DOCKED: USER    
DOCKED: USER    NEWDPF move ligand.pdbqt
DOCKED: USER    NEWDPF about 0.154000 0.111000 -0.146000
DOCKED: USER    NEWDPF tran0 16.715840 -12.991905 -1.202963
DOCKED: USER    NEWDPF quaternion0 -0.110911 0.555953 -0.766325 -0.302259
DOCKED: USER    NEWDPF axisangle0 -0.116353 0.583233 -0.803928 -144.813327
DOCKED: USER    NEWDPF quat0 -0.116353 0.583233 -0.803928 -144.813327
DOCKED: USER    NEWDPF dihe0 21.71 171.00 156.79 19.23 -3.92 173.46 -165.08 
DOCKED: USER  keepresnum = 1 
DOCKED: USER  
DOCKED: REMARK  Name = 
DOCKED: REMARK  7 active torsions:
DOCKED: REMARK  status: ('A' for Active; 'I' for Inactive)
DOCKED: REMARK    1  A    between atoms: C_2  and  C_5
DOCKED: REMARK    2  A    between atoms: N_3  and  O_4
DOCKED: REMARK    3  A    between atoms: C_5  and  C_6
DOCKED: REMARK    4  A    between atoms: C_6  and  C_7
DOCKED: REMARK    5  A    between atoms: C_7  and  C_8
DOCKED: REMARK    6  A    between atoms: C_8  and  C_9
DOCKED: REMARK    7  A    between atoms: C_9  and  N_10
DOCKED: REMARK                            x       y       z     vdW  Elec       q    Type
DOCKED: REMARK                         _______ _______ _______ _____ _____    ______ ____
DOCKED: USER                              x       y       z     vdW  Elec       q    Type
DOCKED: USER                           _______ _______ _______ _____ _____    ______ ____
DOCKED: ROOT
DOCKED: ATOM      1  N   UNL     1      16.372 -11.576  -0.852 -0.33 +0.00    +0.000 N 
DOCKED: ATOM      2  C   UNL     1      16.962 -10.853  -1.949 -0.13 -0.00    +0.000 C 
DOCKED: ATOM      3  C   UNL     1      18.407 -10.529  -1.933 -0.29 -0.00    +0.000 A 
DOCKED: ATOM      4  C   UNL     1      18.998  -9.846  -3.011 -0.24 -0.00    +0.000 A 
DOCKED: ATOM      5  C   UNL     1      20.360  -9.542  -2.998 -0.40 -0.00    +0.000 A 
DOCKED: ATOM      6  C   UNL     1      21.153  -9.914  -1.913 -0.53 -0.00    +0.000 A 
DOCKED: ATOM      7  C   UNL     1      20.588 -10.596  -0.826 -0.55 -0.00    +0.000 A 
DOCKED: ATOM      8  C   UNL     1      21.385 -10.968   0.265 -0.47 -0.00    +0.000 A 
DOCKED: ATOM      9  C   UNL     1      20.822 -11.644   1.347 -0.61 -0.00    +0.000 A 
DOCKED: ATOM     10  C   UNL     1      19.462 -11.956   1.353 -0.62 -0.00    +0.000 A 
DOCKED: ATOM     11  C   UNL     1      18.641 -11.594   0.270 -0.48 -0.00    +0.000 A 
DOCKED: ATOM     12  C   UNL     1      19.204 -10.909  -0.830 -0.44 -0.00    +0.000 A 
DOCKED: ATOM     13  O   UNL     1      16.248 -10.493  -2.926 -0.28 -0.00    +0.000 OA
DOCKED: ATOM     14  C   UNL     1      17.198 -11.926   0.276 -0.50 +0.00    +0.000 C 
DOCKED: ATOM     15  O   UNL     1      16.696 -12.515   1.273 -0.97 +0.00    +0.000 OA
DOCKED: ENDROOT
DOCKED: BRANCH   1  16
DOCKED: ATOM     16  C   UNL     1      14.956 -11.978  -0.908 -0.44 +0.00    +0.000 C 
DOCKED: BRANCH  16  17
DOCKED: ATOM     17  C   UNL     1      14.036 -10.887  -0.335 -0.32 +0.00    +0.000 C 
DOCKED: BRANCH  17  18
DOCKED: ATOM     18  C   UNL     1      13.148 -11.359   0.832 -0.41 +0.00    +0.000 C 
DOCKED: BRANCH  18  19
DOCKED: ATOM     19  C   UNL     1      13.917 -11.766   2.106 -0.43 +0.00    +0.000 C 
DOCKED: BRANCH  19  20
DOCKED: ATOM     20  C   UNL     1      14.251 -10.601   3.050 -0.41 +0.00    +0.000 C 
DOCKED: BRANCH  20  22
DOCKED: ATOM     21  O   UNL     1      15.726 -10.983   4.891 -0.62 +0.00    +0.000 OA
DOCKED: ATOM     22  C   UNL     1      15.617 -10.742   3.659 -0.54 +0.00    +0.000 C 
DOCKED: ATOM     23  N   UNL     1      16.789 -10.573   2.858 -0.44 +0.00    +0.000 N 
DOCKED: ATOM     24  H   UNL     1      16.699 -10.377   1.898 -0.00 +0.00    +0.000 HD
DOCKED: BRANCH  23  25
DOCKED: ATOM     25  O   UNL     1      18.021 -10.678   3.410 -0.50 -0.00    +0.000 OA
DOCKED: ATOM     26  H   UNL     1      17.965 -11.192   4.232 -0.03 +0.00    +0.000 HD
DOCKED: ENDBRANCH  23  25
DOCKED: ENDBRANCH  20  22
DOCKED: ENDBRANCH  19  20
DOCKED: ENDBRANCH  18  19
DOCKED: ENDBRANCH  17  18
DOCKED: ENDBRANCH  16  17
DOCKED: ENDBRANCH   1  16
DOCKED: TORSDOF 7
DOCKED: TER
DOCKED: ENDMDL
________________________________________________________________________________


	BEGINNING GENETIC ALGORITHM DOCKING 76 of 100
Run: 76 Seed: 201754273 1444205894 [ Run 76 of 100 GA/GALS ]
Beginning LAMARCKIAN GENETIC ALGORITHM (LGA), with a maximum of 2500000 energy evaluations.

Final-Value: -13.885


	FINAL GENETIC ALGORITHM DOCKED STATE
	_______________________________________________


Detailed state:  trans 19.090 -12.844 1.327 quatxyzw -0.810719 0.148363 0.123806 0.552626 center 0.154 0.111 -0.146 ntor 7 -9.9592 141.3653 -175.0588 -160.5070 42.0083 175.4335 -170.3901
State:	 19.090 -12.844   1.327  -0.973  0.178  0.149 112.905     -9.96  141.37 -175.06 -160.51   42.01  175.43 -170.39

DOCKED: MODEL       76
DOCKED: USER    Run = 76
DOCKED: USER    DPF = ligand_dock.biased.dpf
DOCKED: USER  
DOCKED: USER    Estimated Free Energy of Binding    =  -10.32 kcal/mol  [=(1)+(2)+(3)-(4)]
DOCKED: USER    Estimated Inhibition Constant, Ki   =   27.28 nM (nanomolar)  [Temperature = 298.15 K]
DOCKED: USER    
DOCKED: USER    (1) Final Intermolecular Energy     =  -12.41 kcal/mol
DOCKED: USER        vdW + Hbond + desolv Energy     =  -12.41 kcal/mol
DOCKED: USER        Electrostatic Energy            =   +0.00 kcal/mol
DOCKED: USER    (2) Final Total Internal Energy     =   -1.48 kcal/mol
DOCKED: USER    (3) Torsional Free Energy           =   +2.09 kcal/mol
DOCKED: USER    (4) Unbound System's Energy  [=(2)] =   -1.48 kcal/mol
DOCKED: USER    
DOCKED: USER    
DOCKED: USER    NEWDPF move ligand.pdbqt
DOCKED: USER    NEWDPF about 0.154000 0.111000 -0.146000
DOCKED: USER    NEWDPF tran0 19.089693 -12.843932 1.327102
DOCKED: USER    NEWDPF quaternion0 -0.810719 0.148363 0.123806 0.552626
DOCKED: USER    NEWDPF axisangle0 -0.972750 0.178015 0.148551 112.905358
DOCKED: USER    NEWDPF quat0 -0.972750 0.178015 0.148551 112.905358
DOCKED: USER    NEWDPF dihe0 -9.96 141.37 -175.06 -160.51 42.01 175.43 -170.39 
DOCKED: USER  keepresnum = 1 
DOCKED: USER  
DOCKED: REMARK  Name = 
DOCKED: REMARK  7 active torsions:
DOCKED: REMARK  status: ('A' for Active; 'I' for Inactive)
DOCKED: REMARK    1  A    between atoms: C_2  and  C_5
DOCKED: REMARK    2  A    between atoms: N_3  and  O_4
DOCKED: REMARK    3  A    between atoms: C_5  and  C_6
DOCKED: REMARK    4  A    between atoms: C_6  and  C_7
DOCKED: REMARK    5  A    between atoms: C_7  and  C_8
DOCKED: REMARK    6  A    between atoms: C_8  and  C_9
DOCKED: REMARK    7  A    between atoms: C_9  and  N_10
DOCKED: REMARK                            x       y       z     vdW  Elec       q    Type
DOCKED: REMARK                         _______ _______ _______ _____ _____    ______ ____
DOCKED: USER                              x       y       z     vdW  Elec       q    Type
DOCKED: USER                           _______ _______ _______ _____ _____    ______ ____
DOCKED: ROOT
DOCKED: ATOM      1  N   UNL     1      19.018 -11.366   1.093 -0.52 -0.00    +0.000 N 
DOCKED: ATOM      2  C   UNL     1      18.491 -10.897   2.350 -0.58 -0.00    +0.000 C 
DOCKED: ATOM      3  C   UNL     1      17.034 -10.950   2.610 -0.42 +0.00    +0.000 A 
DOCKED: ATOM      4  C   UNL     1      16.514 -10.518   3.843 -0.30 +0.00    +0.000 A 
DOCKED: ATOM      5  C   UNL     1      15.141 -10.569   4.090 -0.44 +0.00    +0.000 A 
DOCKED: ATOM      6  C   UNL     1      14.267 -11.050   3.114 -0.34 +0.00    +0.000 A 
DOCKED: ATOM      7  C   UNL     1      14.763 -11.485   1.877 -0.41 +0.00    +0.000 A 
DOCKED: ATOM      8  C   UNL     1      13.884 -11.966   0.896 -0.41 +0.00    +0.000 A 
DOCKED: ATOM      9  C   UNL     1      14.376 -12.397  -0.335 -0.42 +0.00    +0.000 A 
DOCKED: ATOM     10  C   UNL     1      15.745 -12.353  -0.602 -0.39 +0.00    +0.000 A 
DOCKED: ATOM     11  C   UNL     1      16.647 -11.875   0.366 -0.42 +0.00    +0.000 A 
DOCKED: ATOM     12  C   UNL     1      16.156 -11.437   1.616 -0.39 +0.00    +0.000 A 
DOCKED: ATOM     13  O   UNL     1      19.271 -10.441   3.231 -0.71 -0.00    +0.000 OA
DOCKED: ATOM     14  C   UNL     1      18.100 -11.830   0.083 -0.53 -0.00    +0.000 C 
DOCKED: ATOM     15  O   UNL     1      18.529 -12.198  -1.045 -0.46 -0.00    +0.000 OA
DOCKED: ENDROOT
DOCKED: BRANCH   1  16
DOCKED: ATOM     16  C   UNL     1      20.472 -11.399   0.867 -0.70 -0.00    +0.000 C 
DOCKED: BRANCH  16  17
DOCKED: ATOM     17  C   UNL     1      20.964 -10.124   0.162 -0.70 -0.00    +0.000 C 
DOCKED: BRANCH  17  18
DOCKED: ATOM     18  C   UNL     1      21.660 -10.378  -1.189 -0.56 -0.00    +0.000 C 
DOCKED: BRANCH  18  19
DOCKED: ATOM     19  C   UNL     1      20.875  -9.886  -2.423 -0.56 -0.00    +0.000 C 
DOCKED: BRANCH  19  20
DOCKED: ATOM     20  C   UNL     1      19.997 -10.956  -3.089 -0.44 -0.00    +0.000 C 
DOCKED: BRANCH  20  22
DOCKED: ATOM     21  O   UNL     1      19.661 -11.523  -5.386 -0.51 -0.00    +0.000 OA
DOCKED: ATOM     22  C   UNL     1      20.491 -11.317  -4.461 -0.50 -0.00    +0.000 C 
DOCKED: ATOM     23  N   UNL     1      21.891 -11.460  -4.712 -0.51 -0.00    +0.000 N 
DOCKED: ATOM     24  H   UNL     1      22.535 -11.307  -3.985 -0.05 -0.00    +0.000 HD
DOCKED: BRANCH  23  25
DOCKED: ATOM     25  O   UNL     1      22.337 -11.807  -5.943 -0.62 -0.00    +0.000 OA
DOCKED: ATOM     26  H   UNL     1      21.585 -12.074  -6.497 -0.52 -0.00    +0.000 HD
DOCKED: ENDBRANCH  23  25
DOCKED: ENDBRANCH  20  22
DOCKED: ENDBRANCH  19  20
DOCKED: ENDBRANCH  18  19
DOCKED: ENDBRANCH  17  18
DOCKED: ENDBRANCH  16  17
DOCKED: ENDBRANCH   1  16
DOCKED: TORSDOF 7
DOCKED: TER
DOCKED: ENDMDL
________________________________________________________________________________


	BEGINNING GENETIC ALGORITHM DOCKING 77 of 100
Run: 77 Seed: 1784946474 386964074 [ Run 77 of 100 GA/GALS ]
Beginning LAMARCKIAN GENETIC ALGORITHM (LGA), with a maximum of 2500000 energy evaluations.

Final-Value: -13.779


	FINAL GENETIC ALGORITHM DOCKED STATE
	_______________________________________________


Detailed state:  trans 16.193 -10.087 -0.743 quatxyzw -0.059240 -0.765204 -0.629759 0.119826 center 0.154 0.111 -0.146 ntor 7 -12.1853 67.7287 179.3872 28.3733 7.1163 -179.9619 6.5595
State:	 16.193 -10.087  -0.743  -0.060 -0.771 -0.634 166.236    -12.19   67.73  179.39   28.37    7.12 -179.96    6.56

DOCKED: MODEL       77
DOCKED: USER    Run = 77
DOCKED: USER    DPF = ligand_dock.biased.dpf
DOCKED: USER  
DOCKED: USER    Estimated Free Energy of Binding    =   -8.88 kcal/mol  [=(1)+(2)+(3)-(4)]
DOCKED: USER    Estimated Inhibition Constant, Ki   =  308.23 nM (nanomolar)  [Temperature = 298.15 K]
DOCKED: USER    
DOCKED: USER    (1) Final Intermolecular Energy     =  -10.97 kcal/mol
DOCKED: USER        vdW + Hbond + desolv Energy     =  -10.97 kcal/mol
DOCKED: USER        Electrostatic Energy            =   +0.00 kcal/mol
DOCKED: USER    (2) Final Total Internal Energy     =   -2.81 kcal/mol
DOCKED: USER    (3) Torsional Free Energy           =   +2.09 kcal/mol
DOCKED: USER    (4) Unbound System's Energy  [=(2)] =   -2.81 kcal/mol
DOCKED: USER    
DOCKED: USER    
DOCKED: USER    NEWDPF move ligand.pdbqt
DOCKED: USER    NEWDPF about 0.154000 0.111000 -0.146000
DOCKED: USER    NEWDPF tran0 16.193010 -10.086731 -0.742969
DOCKED: USER    NEWDPF quaternion0 -0.059240 -0.765204 -0.629759 0.119826
DOCKED: USER    NEWDPF axisangle0 -0.059670 -0.770757 -0.634329 166.235893
DOCKED: USER    NEWDPF quat0 -0.059670 -0.770757 -0.634329 166.235893
DOCKED: USER    NEWDPF dihe0 -12.19 67.73 179.39 28.37 7.12 -179.96 6.56 
DOCKED: USER  keepresnum = 1 
DOCKED: USER  
DOCKED: REMARK  Name = 
DOCKED: REMARK  7 active torsions:
DOCKED: REMARK  status: ('A' for Active; 'I' for Inactive)
DOCKED: REMARK    1  A    between atoms: C_2  and  C_5
DOCKED: REMARK    2  A    between atoms: N_3  and  O_4
DOCKED: REMARK    3  A    between atoms: C_5  and  C_6
DOCKED: REMARK    4  A    between atoms: C_6  and  C_7
DOCKED: REMARK    5  A    between atoms: C_7  and  C_8
DOCKED: REMARK    6  A    between atoms: C_8  and  C_9
DOCKED: REMARK    7  A    between atoms: C_9  and  N_10
DOCKED: REMARK                            x       y       z     vdW  Elec       q    Type
DOCKED: REMARK                         _______ _______ _______ _____ _____    ______ ____
DOCKED: USER                              x       y       z     vdW  Elec       q    Type
DOCKED: USER                           _______ _______ _______ _____ _____    ______ ____
DOCKED: ROOT
DOCKED: ATOM      1  N   UNL     1      16.531 -11.481  -1.175 -0.26 -0.00    +0.000 N 
DOCKED: ATOM      2  C   UNL     1      16.981 -12.068   0.062 -0.50 +0.00    +0.000 C 
DOCKED: ATOM      3  C   UNL     1      18.371 -11.850   0.524 -0.49 -0.00    +0.000 A 
DOCKED: ATOM      4  C   UNL     1      18.812 -12.397   1.742 -0.42 -0.00    +0.000 A 
DOCKED: ATOM      5  C   UNL     1      20.121 -12.191   2.180 -0.63 -0.00    +0.000 A 
DOCKED: ATOM      6  C   UNL     1      21.009 -11.438   1.413 -0.49 -0.00    +0.000 A 
DOCKED: ATOM      7  C   UNL     1      20.593 -10.882   0.195 -0.61 -0.00    +0.000 A 
DOCKED: ATOM      8  C   UNL     1      21.487 -10.126  -0.577 -0.61 -0.00    +0.000 A 
DOCKED: ATOM      9  C   UNL     1      21.074  -9.576  -1.790 -0.53 -0.00    +0.000 A 
DOCKED: ATOM     10  C   UNL     1      19.769  -9.771  -2.246 -0.30 -0.00    +0.000 A 
DOCKED: ATOM     11  C   UNL     1      18.854 -10.525  -1.489 -0.33 -0.00    +0.000 A 
DOCKED: ATOM     12  C   UNL     1      19.265 -11.086  -0.259 -0.47 -0.00    +0.000 A 
DOCKED: ATOM     13  O   UNL     1      16.191 -12.769   0.753 -1.11 +0.00    +0.000 OA
DOCKED: ATOM     14  C   UNL     1      17.470 -10.732  -1.972 -0.20 -0.00    +0.000 C 
DOCKED: ATOM     15  O   UNL     1      17.116 -10.250  -3.083 -0.29 -0.00    +0.000 OA
DOCKED: ENDROOT
DOCKED: BRANCH   1  16
DOCKED: ATOM     16  C   UNL     1      15.125 -11.621  -1.591 -0.33 +0.00    +0.000 C 
DOCKED: BRANCH  16  17
DOCKED: ATOM     17  C   UNL     1      14.228 -10.574  -0.909 -0.30 +0.00    +0.000 C 
DOCKED: BRANCH  17  18
DOCKED: ATOM     18  C   UNL     1      13.162 -11.171   0.030 -0.37 +0.00    +0.000 C 
DOCKED: BRANCH  18  19
DOCKED: ATOM     19  C   UNL     1      13.701 -11.657   1.392 -0.46 +0.00    +0.000 C 
DOCKED: BRANCH  19  20
DOCKED: ATOM     20  C   UNL     1      13.593 -10.626   2.526 -0.36 +0.00    +0.000 C 
DOCKED: BRANCH  20  22
DOCKED: ATOM     21  O   UNL     1      15.141  -9.077   3.482 -0.38 +0.00    +0.000 OA
DOCKED: ATOM     22  C   UNL     1      14.938 -10.253   3.080 -0.43 +0.00    +0.000 C 
DOCKED: ATOM     23  N   UNL     1      15.996 -11.214   3.120 -0.49 +0.00    +0.000 N 
DOCKED: ATOM     24  H   UNL     1      15.837 -12.129   2.797 -0.04 +0.00    +0.000 HD
DOCKED: BRANCH  23  25
DOCKED: ATOM     25  O   UNL     1      17.217 -10.873   3.597 -0.56 +0.00    +0.000 OA
DOCKED: ATOM     26  H   UNL     1      17.270  -9.909   3.692 -0.02 +0.00    +0.000 HD
DOCKED: ENDBRANCH  23  25
DOCKED: ENDBRANCH  20  22
DOCKED: ENDBRANCH  19  20
DOCKED: ENDBRANCH  18  19
DOCKED: ENDBRANCH  17  18
DOCKED: ENDBRANCH  16  17
DOCKED: ENDBRANCH   1  16
DOCKED: TORSDOF 7
DOCKED: TER
DOCKED: ENDMDL
________________________________________________________________________________


	BEGINNING GENETIC ALGORITHM DOCKING 78 of 100
Run: 78 Seed: 1569538726 1456472773 [ Run 78 of 100 GA/GALS ]
Beginning LAMARCKIAN GENETIC ALGORITHM (LGA), with a maximum of 2500000 energy evaluations.

Final-Value: -14.420


	FINAL GENETIC ALGORITHM DOCKED STATE
	_______________________________________________


Detailed state:  trans 19.108 -9.895 1.012 quatxyzw 0.466878 0.017140 -0.251090 0.847753 center 0.154 0.111 -0.146 ntor 7 6.7150 76.6429 -137.7203 -164.4127 64.0172 -179.6309 -4.2569
State:	 19.108  -9.895   1.012   0.880  0.032 -0.473 64.064      6.72   76.64 -137.72 -164.41   64.02 -179.63   -4.26

DOCKED: MODEL       78
DOCKED: USER    Run = 78
DOCKED: USER    DPF = ligand_dock.biased.dpf
DOCKED: USER  
DOCKED: USER    Estimated Free Energy of Binding    =  -10.67 kcal/mol  [=(1)+(2)+(3)-(4)]
DOCKED: USER    Estimated Inhibition Constant, Ki   =   15.04 nM (nanomolar)  [Temperature = 298.15 K]
DOCKED: USER    
DOCKED: USER    (1) Final Intermolecular Energy     =  -12.76 kcal/mol
DOCKED: USER        vdW + Hbond + desolv Energy     =  -12.76 kcal/mol
DOCKED: USER        Electrostatic Energy            =   +0.00 kcal/mol
DOCKED: USER    (2) Final Total Internal Energy     =   -1.66 kcal/mol
DOCKED: USER    (3) Torsional Free Energy           =   +2.09 kcal/mol
DOCKED: USER    (4) Unbound System's Energy  [=(2)] =   -1.66 kcal/mol
DOCKED: USER    
DOCKED: USER    
DOCKED: USER    NEWDPF move ligand.pdbqt
DOCKED: USER    NEWDPF about 0.154000 0.111000 -0.146000
DOCKED: USER    NEWDPF tran0 19.107710 -9.895099 1.011552
DOCKED: USER    NEWDPF quaternion0 0.466878 0.017140 -0.251090 0.847753
DOCKED: USER    NEWDPF axisangle0 0.880252 0.032316 -0.473406 64.063870
DOCKED: USER    NEWDPF quat0 0.880252 0.032316 -0.473406 64.063870
DOCKED: USER    NEWDPF dihe0 6.72 76.64 -137.72 -164.41 64.02 -179.63 -4.26 
DOCKED: USER  keepresnum = 1 
DOCKED: USER  
DOCKED: REMARK  Name = 
DOCKED: REMARK  7 active torsions:
DOCKED: REMARK  status: ('A' for Active; 'I' for Inactive)
DOCKED: REMARK    1  A    between atoms: C_2  and  C_5
DOCKED: REMARK    2  A    between atoms: N_3  and  O_4
DOCKED: REMARK    3  A    between atoms: C_5  and  C_6
DOCKED: REMARK    4  A    between atoms: C_6  and  C_7
DOCKED: REMARK    5  A    between atoms: C_7  and  C_8
DOCKED: REMARK    6  A    between atoms: C_8  and  C_9
DOCKED: REMARK    7  A    between atoms: C_9  and  N_10
DOCKED: REMARK                            x       y       z     vdW  Elec       q    Type
DOCKED: REMARK                         _______ _______ _______ _____ _____    ______ ____
DOCKED: USER                              x       y       z     vdW  Elec       q    Type
DOCKED: USER                           _______ _______ _______ _____ _____    ______ ____
DOCKED: ROOT
DOCKED: ATOM      1  N   UNL     1      19.171 -11.391   1.061 -0.53 -0.00    +0.000 N 
DOCKED: ATOM      2  C   UNL     1      18.289 -11.756  -0.017 -0.53 -0.00    +0.000 C 
DOCKED: ATOM      3  C   UNL     1      16.824 -11.788   0.200 -0.41 +0.00    +0.000 A 
DOCKED: ATOM      4  C   UNL     1      15.953 -12.119  -0.854 -0.27 +0.00    +0.000 A 
DOCKED: ATOM      5  C   UNL     1      14.573 -12.147  -0.651 -0.41 +0.00    +0.000 A 
DOCKED: ATOM      6  C   UNL     1      14.040 -11.848   0.603 -0.40 +0.00    +0.000 A 
DOCKED: ATOM      7  C   UNL     1      14.887 -11.517   1.669 -0.41 +0.00    +0.000 A 
DOCKED: ATOM      8  C   UNL     1      14.351 -11.217   2.930 -0.38 +0.00    +0.000 A 
DOCKED: ATOM      9  C   UNL     1      15.194 -10.890   3.991 -0.44 +0.00    +0.000 A 
DOCKED: ATOM     10  C   UNL     1      16.577 -10.856   3.808 -0.37 +0.00    +0.000 A 
DOCKED: ATOM     11  C   UNL     1      17.139 -11.152   2.553 -0.37 +0.00    +0.000 A 
DOCKED: ATOM     12  C   UNL     1      16.292 -11.485   1.473 -0.39 +0.00    +0.000 A 
DOCKED: ATOM     13  O   UNL     1      18.763 -12.050  -1.150 -0.48 -0.00    +0.000 OA
DOCKED: ATOM     14  C   UNL     1      18.607 -11.115   2.360 -0.59 -0.00    +0.000 C 
DOCKED: ATOM     15  O   UNL     1      19.360 -10.843   3.334 -0.75 -0.00    +0.000 OA
DOCKED: ENDROOT
DOCKED: BRANCH   1  16
DOCKED: ATOM     16  C   UNL     1      20.619 -11.270   0.823 -0.72 -0.00    +0.000 C 
DOCKED: BRANCH  16  17
DOCKED: ATOM     17  C   UNL     1      20.952 -10.022  -0.012 -0.69 -0.00    +0.000 C 
DOCKED: BRANCH  17  18
DOCKED: ATOM     18  C   UNL     1      21.567 -10.332  -1.391 -0.56 -0.00    +0.000 C 
DOCKED: BRANCH  18  19
DOCKED: ATOM     19  C   UNL     1      20.942  -9.551  -2.566 -0.53 -0.00    +0.000 C 
DOCKED: BRANCH  19  20
DOCKED: ATOM     20  C   UNL     1      19.887 -10.333  -3.363 -0.44 -0.00    +0.000 C 
DOCKED: BRANCH  20  22
DOCKED: ATOM     21  O   UNL     1      19.844 -12.368  -4.615 -0.72 -0.00    +0.000 OA
DOCKED: ATOM     22  C   UNL     1      20.509 -11.354  -4.271 -0.46 -0.00    +0.000 C 
DOCKED: ATOM     23  N   UNL     1      21.858 -11.200  -4.718 -0.51 -0.00    +0.000 N 
DOCKED: ATOM     24  H   UNL     1      22.377 -10.411  -4.441 -0.04 -0.00    +0.000 HD
DOCKED: BRANCH  23  25
DOCKED: ATOM     25  O   UNL     1      22.429 -12.132  -5.518 -0.73 -0.00    +0.000 OA
DOCKED: ATOM     26  H   UNL     1      21.761 -12.783  -5.784 -0.63 -0.00    +0.000 HD
DOCKED: ENDBRANCH  23  25
DOCKED: ENDBRANCH  20  22
DOCKED: ENDBRANCH  19  20
DOCKED: ENDBRANCH  18  19
DOCKED: ENDBRANCH  17  18
DOCKED: ENDBRANCH  16  17
DOCKED: ENDBRANCH   1  16
DOCKED: TORSDOF 7
DOCKED: TER
DOCKED: ENDMDL
________________________________________________________________________________


	BEGINNING GENETIC ALGORITHM DOCKING 79 of 100
Run: 79 Seed: 1403489591 1618687957 [ Run 79 of 100 GA/GALS ]
Beginning LAMARCKIAN GENETIC ALGORITHM (LGA), with a maximum of 2500000 energy evaluations.

Final-Value: -13.137


	FINAL GENETIC ALGORITHM DOCKED STATE
	_______________________________________________


Detailed state:  trans 18.045 -9.124 -1.880 quatxyzw 0.394919 0.786045 0.232987 0.414595 center 0.154 0.111 -0.146 ntor 7 -3.4454 5.8047 -27.0228 -179.7867 -20.9474 75.0686 173.3009
State:	 18.045  -9.124  -1.880   0.434  0.864  0.256 131.012     -3.45    5.80  -27.02 -179.79  -20.95   75.07  173.30

DOCKED: MODEL       79
DOCKED: USER    Run = 79
DOCKED: USER    DPF = ligand_dock.biased.dpf
DOCKED: USER  
DOCKED: USER    Estimated Free Energy of Binding    =   -8.51 kcal/mol  [=(1)+(2)+(3)-(4)]
DOCKED: USER    Estimated Inhibition Constant, Ki   =  578.21 nM (nanomolar)  [Temperature = 298.15 K]
DOCKED: USER    
DOCKED: USER    (1) Final Intermolecular Energy     =  -10.60 kcal/mol
DOCKED: USER        vdW + Hbond + desolv Energy     =  -10.60 kcal/mol
DOCKED: USER        Electrostatic Energy            =   +0.00 kcal/mol
DOCKED: USER    (2) Final Total Internal Energy     =   -2.54 kcal/mol
DOCKED: USER    (3) Torsional Free Energy           =   +2.09 kcal/mol
DOCKED: USER    (4) Unbound System's Energy  [=(2)] =   -2.54 kcal/mol
DOCKED: USER    
DOCKED: USER    
DOCKED: USER    NEWDPF move ligand.pdbqt
DOCKED: USER    NEWDPF about 0.154000 0.111000 -0.146000
DOCKED: USER    NEWDPF tran0 18.044612 -9.123523 -1.879589
DOCKED: USER    NEWDPF quaternion0 0.394919 0.786045 0.232987 0.414595
DOCKED: USER    NEWDPF axisangle0 0.433974 0.863780 0.256028 131.012328
DOCKED: USER    NEWDPF quat0 0.433974 0.863780 0.256028 131.012328
DOCKED: USER    NEWDPF dihe0 -3.45 5.80 -27.02 -179.79 -20.95 75.07 173.30 
DOCKED: USER  keepresnum = 1 
DOCKED: USER  
DOCKED: REMARK  Name = 
DOCKED: REMARK  7 active torsions:
DOCKED: REMARK  status: ('A' for Active; 'I' for Inactive)
DOCKED: REMARK    1  A    between atoms: C_2  and  C_5
DOCKED: REMARK    2  A    between atoms: N_3  and  O_4
DOCKED: REMARK    3  A    between atoms: C_5  and  C_6
DOCKED: REMARK    4  A    between atoms: C_6  and  C_7
DOCKED: REMARK    5  A    between atoms: C_7  and  C_8
DOCKED: REMARK    6  A    between atoms: C_8  and  C_9
DOCKED: REMARK    7  A    between atoms: C_9  and  N_10
DOCKED: REMARK                            x       y       z     vdW  Elec       q    Type
DOCKED: REMARK                         _______ _______ _______ _____ _____    ______ ____
DOCKED: USER                              x       y       z     vdW  Elec       q    Type
DOCKED: USER                           _______ _______ _______ _____ _____    ______ ____
DOCKED: ROOT
DOCKED: ATOM      1  N   UNL     1      18.212 -10.610  -1.787 -0.33 -0.00    +0.000 N 
DOCKED: ATOM      2  C   UNL     1      19.633 -10.755  -1.977 -0.45 -0.00    +0.000 C 
DOCKED: ATOM      3  C   UNL     1      20.203 -10.753  -3.344 -0.42 -0.00    +0.000 A 
DOCKED: ATOM      4  C   UNL     1      21.591 -10.869  -3.539 -0.37 -0.00    +0.000 A 
DOCKED: ATOM      5  C   UNL     1      22.130 -10.865  -4.826 -0.26 -0.00    +0.000 A 
DOCKED: ATOM      6  C   UNL     1      21.295 -10.747  -5.938 -0.38 -0.00    +0.000 A 
DOCKED: ATOM      7  C   UNL     1      19.908 -10.630  -5.769 -0.33 -0.00    +0.000 A 
DOCKED: ATOM      8  C   UNL     1      19.070 -10.513  -6.887 -0.28 -0.00    +0.000 A 
DOCKED: ATOM      9  C   UNL     1      17.690 -10.400  -6.720 -0.25 -0.00    +0.000 A 
DOCKED: ATOM     10  C   UNL     1      17.132 -10.402  -5.441 -0.23 -0.00    +0.000 A 
DOCKED: ATOM     11  C   UNL     1      17.952 -10.519  -4.304 -0.24 -0.00    +0.000 A 
DOCKED: ATOM     12  C   UNL     1      19.351 -10.634  -4.464 -0.35 -0.00    +0.000 A 
DOCKED: ATOM     13  O   UNL     1      20.394 -10.884  -0.979 -0.59 -0.00    +0.000 OA
DOCKED: ATOM     14  C   UNL     1      17.360 -10.520  -2.946 -0.16 -0.00    +0.000 C 
DOCKED: ATOM     15  O   UNL     1      16.108 -10.443  -2.810 -0.28 -0.00    +0.000 OA
DOCKED: ENDROOT
DOCKED: BRANCH   1  16
DOCKED: ATOM     16  C   UNL     1      17.654 -10.520  -0.428 -0.26 -0.00    +0.000 C 
DOCKED: BRANCH  16  17
DOCKED: ATOM     17  C   UNL     1      16.841 -11.775  -0.067 -0.46 +0.00    +0.000 C 
DOCKED: BRANCH  17  18
DOCKED: ATOM     18  C   UNL     1      17.059 -12.276   1.374 -0.38 +0.00    +0.000 C 
DOCKED: BRANCH  18  19
DOCKED: ATOM     19  C   UNL     1      16.969 -11.183   2.458 -0.44 +0.00    +0.000 C 
DOCKED: BRANCH  19  20
DOCKED: ATOM     20  C   UNL     1      18.291 -10.896   3.188 -0.50 -0.00    +0.000 C 
DOCKED: BRANCH  20  22
DOCKED: ATOM     21  O   UNL     1      19.812 -10.056   1.547 -0.64 -0.00    +0.000 OA
DOCKED: ATOM     22  C   UNL     1      19.477 -11.028   2.277 -0.69 -0.00    +0.000 C 
DOCKED: ATOM     23  N   UNL     1      20.205 -12.256   2.209 -0.71 -0.00    +0.000 N 
DOCKED: ATOM     24  H   UNL     1      19.936 -13.015   2.774 -0.39 -0.00    +0.000 HD
DOCKED: BRANCH  23  25
DOCKED: ATOM     25  O   UNL     1      21.262 -12.384   1.371 -1.01 -0.00    +0.000 OA
DOCKED: ATOM     26  H   UNL     1      21.362 -11.572   0.849 -0.18 -0.00    +0.000 HD
DOCKED: ENDBRANCH  23  25
DOCKED: ENDBRANCH  20  22
DOCKED: ENDBRANCH  19  20
DOCKED: ENDBRANCH  18  19
DOCKED: ENDBRANCH  17  18
DOCKED: ENDBRANCH  16  17
DOCKED: ENDBRANCH   1  16
DOCKED: TORSDOF 7
DOCKED: TER
DOCKED: ENDMDL
________________________________________________________________________________


	BEGINNING GENETIC ALGORITHM DOCKING 80 of 100
Run: 80 Seed: 791788554 290681785 [ Run 80 of 100 GA/GALS ]
Beginning LAMARCKIAN GENETIC ALGORITHM (LGA), with a maximum of 2500000 energy evaluations.

Final-Value: -14.320


	FINAL GENETIC ALGORITHM DOCKED STATE
	_______________________________________________


Detailed state:  trans 19.104 -12.920 1.042 quatxyzw 0.851331 -0.172641 -0.132843 -0.477267 center 0.154 0.111 -0.146 ntor 7 2.8314 72.5439 -134.9114 -158.7572 59.4561 -177.6531 179.7330
State:	 19.104 -12.920   1.042   0.969 -0.196 -0.151 -122.986      2.83   72.54 -134.91 -158.76   59.46 -177.65  179.73

DOCKED: MODEL       80
DOCKED: USER    Run = 80
DOCKED: USER    DPF = ligand_dock.biased.dpf
DOCKED: USER  
DOCKED: USER    Estimated Free Energy of Binding    =  -10.52 kcal/mol  [=(1)+(2)+(3)-(4)]
DOCKED: USER    Estimated Inhibition Constant, Ki   =   19.32 nM (nanomolar)  [Temperature = 298.15 K]
DOCKED: USER    
DOCKED: USER    (1) Final Intermolecular Energy     =  -12.61 kcal/mol
DOCKED: USER        vdW + Hbond + desolv Energy     =  -12.61 kcal/mol
DOCKED: USER        Electrostatic Energy            =   +0.00 kcal/mol
DOCKED: USER    (2) Final Total Internal Energy     =   -1.71 kcal/mol
DOCKED: USER    (3) Torsional Free Energy           =   +2.09 kcal/mol
DOCKED: USER    (4) Unbound System's Energy  [=(2)] =   -1.71 kcal/mol
DOCKED: USER    
DOCKED: USER    
DOCKED: USER    NEWDPF move ligand.pdbqt
DOCKED: USER    NEWDPF about 0.154000 0.111000 -0.146000
DOCKED: USER    NEWDPF tran0 19.103763 -12.919717 1.042417
DOCKED: USER    NEWDPF quaternion0 0.851331 -0.172641 -0.132843 -0.477267
DOCKED: USER    NEWDPF axisangle0 0.968788 -0.196461 -0.151171 -122.985930
DOCKED: USER    NEWDPF quat0 0.968788 -0.196461 -0.151171 -122.985930
DOCKED: USER    NEWDPF dihe0 2.83 72.54 -134.91 -158.76 59.46 -177.65 179.73 
DOCKED: USER  keepresnum = 1 
DOCKED: USER  
DOCKED: REMARK  Name = 
DOCKED: REMARK  7 active torsions:
DOCKED: REMARK  status: ('A' for Active; 'I' for Inactive)
DOCKED: REMARK    1  A    between atoms: C_2  and  C_5
DOCKED: REMARK    2  A    between atoms: N_3  and  O_4
DOCKED: REMARK    3  A    between atoms: C_5  and  C_6
DOCKED: REMARK    4  A    between atoms: C_6  and  C_7
DOCKED: REMARK    5  A    between atoms: C_7  and  C_8
DOCKED: REMARK    6  A    between atoms: C_8  and  C_9
DOCKED: REMARK    7  A    between atoms: C_9  and  N_10
DOCKED: REMARK                            x       y       z     vdW  Elec       q    Type
DOCKED: REMARK                         _______ _______ _______ _____ _____    ______ ____
DOCKED: USER                              x       y       z     vdW  Elec       q    Type
DOCKED: USER                           _______ _______ _______ _____ _____    ______ ____
DOCKED: ROOT
DOCKED: ATOM      1  N   UNL     1      19.120 -11.422   1.052 -0.53 -0.00    +0.000 N 
DOCKED: ATOM      2  C   UNL     1      18.558 -11.132   2.346 -0.58 -0.00    +0.000 C 
DOCKED: ATOM      3  C   UNL     1      17.089 -11.139   2.536 -0.38 +0.00    +0.000 A 
DOCKED: ATOM      4  C   UNL     1      16.532 -10.883   3.801 -0.40 +0.00    +0.000 A 
DOCKED: ATOM      5  C   UNL     1      15.148 -10.892   3.982 -0.44 +0.00    +0.000 A 
DOCKED: ATOM      6  C   UNL     1      14.300 -11.155   2.907 -0.38 +0.00    +0.000 A 
DOCKED: ATOM      7  C   UNL     1      14.832 -11.413   1.636 -0.39 +0.00    +0.000 A 
DOCKED: ATOM      8  C   UNL     1      13.979 -11.676   0.554 -0.38 +0.00    +0.000 A 
DOCKED: ATOM      9  C   UNL     1      14.507 -11.930  -0.710 -0.39 +0.00    +0.000 A 
DOCKED: ATOM     10  C   UNL     1      15.888 -11.926  -0.912 -0.28 +0.00    +0.000 A 
DOCKED: ATOM     11  C   UNL     1      16.765 -11.664   0.157 -0.39 +0.00    +0.000 A 
DOCKED: ATOM     12  C   UNL     1      16.237 -11.406   1.442 -0.38 +0.00    +0.000 A 
DOCKED: ATOM     13  O   UNL     1      19.317 -10.871   3.321 -0.74 -0.00    +0.000 OA
DOCKED: ATOM     14  C   UNL     1      18.230 -11.661  -0.057 -0.52 -0.00    +0.000 C 
DOCKED: ATOM     15  O   UNL     1      18.695 -11.867  -1.211 -0.48 -0.00    +0.000 OA
DOCKED: ENDROOT
DOCKED: BRANCH   1  16
DOCKED: ATOM     16  C   UNL     1      20.581 -11.504   0.882 -0.68 -0.00    +0.000 C 
DOCKED: BRANCH  16  17
DOCKED: ATOM     17  C   UNL     1      21.141 -10.251   0.188 -0.69 -0.00    +0.000 C 
DOCKED: BRANCH  17  18
DOCKED: ATOM     18  C   UNL     1      21.730 -10.514  -1.212 -0.54 -0.00    +0.000 C 
DOCKED: BRANCH  18  19
DOCKED: ATOM     19  C   UNL     1      21.192  -9.589  -2.323 -0.55 -0.00    +0.000 C 
DOCKED: BRANCH  19  20
DOCKED: ATOM     20  C   UNL     1      19.980 -10.146  -3.087 -0.45 -0.00    +0.000 C 
DOCKED: BRANCH  20  22
DOCKED: ATOM     21  O   UNL     1      19.526 -12.170  -4.273 -0.56 -0.00    +0.000 OA
DOCKED: ATOM     22  C   UNL     1      20.363 -11.265  -4.012 -0.47 -0.00    +0.000 C 
DOCKED: ATOM     23  N   UNL     1      21.678 -11.326  -4.570 -0.51 -0.00    +0.000 N 
DOCKED: ATOM     24  H   UNL     1      22.331 -10.622  -4.358 -0.04 -0.00    +0.000 HD
DOCKED: BRANCH  23  25
DOCKED: ATOM     25  O   UNL     1      22.032 -12.347  -5.387 -0.82 -0.00    +0.000 OA
DOCKED: ATOM     26  H   UNL     1      21.267 -12.927  -5.530 -0.62 -0.00    +0.000 HD
DOCKED: ENDBRANCH  23  25
DOCKED: ENDBRANCH  20  22
DOCKED: ENDBRANCH  19  20
DOCKED: ENDBRANCH  18  19
DOCKED: ENDBRANCH  17  18
DOCKED: ENDBRANCH  16  17
DOCKED: ENDBRANCH   1  16
DOCKED: TORSDOF 7
DOCKED: TER
DOCKED: ENDMDL
________________________________________________________________________________


	BEGINNING GENETIC ALGORITHM DOCKING 81 of 100
Run: 81 Seed: 1952193696 2122407138 [ Run 81 of 100 GA/GALS ]
Beginning LAMARCKIAN GENETIC ALGORITHM (LGA), with a maximum of 2500000 energy evaluations.

Final-Value: -13.364


	FINAL GENETIC ALGORITHM DOCKED STATE
	_______________________________________________


Detailed state:  trans 15.639 -10.165 -0.280 quatxyzw -0.105000 -0.843666 -0.524537 0.045434 center 0.154 0.111 -0.146 ntor 7 139.4411 -147.4326 -101.9352 160.0781 32.3787 -119.9483 15.0319
State:	 15.639 -10.165  -0.280  -0.105 -0.845 -0.525 174.792    139.44 -147.43 -101.94  160.08   32.38 -119.95   15.03

DOCKED: MODEL       81
DOCKED: USER    Run = 81
DOCKED: USER    DPF = ligand_dock.biased.dpf
DOCKED: USER  
DOCKED: USER    Estimated Free Energy of Binding    =   -8.66 kcal/mol  [=(1)+(2)+(3)-(4)]
DOCKED: USER    Estimated Inhibition Constant, Ki   =  449.63 nM (nanomolar)  [Temperature = 298.15 K]
DOCKED: USER    
DOCKED: USER    (1) Final Intermolecular Energy     =  -10.75 kcal/mol
DOCKED: USER        vdW + Hbond + desolv Energy     =  -10.75 kcal/mol
DOCKED: USER        Electrostatic Energy            =   +0.00 kcal/mol
DOCKED: USER    (2) Final Total Internal Energy     =   -2.62 kcal/mol
DOCKED: USER    (3) Torsional Free Energy           =   +2.09 kcal/mol
DOCKED: USER    (4) Unbound System's Energy  [=(2)] =   -2.62 kcal/mol
DOCKED: USER    
DOCKED: USER    
DOCKED: USER    NEWDPF move ligand.pdbqt
DOCKED: USER    NEWDPF about 0.154000 0.111000 -0.146000
DOCKED: USER    NEWDPF tran0 15.639117 -10.164616 -0.280071
DOCKED: USER    NEWDPF quaternion0 -0.105000 -0.843666 -0.524537 0.045434
DOCKED: USER    NEWDPF axisangle0 -0.105109 -0.844538 -0.525079 174.791860
DOCKED: USER    NEWDPF quat0 -0.105109 -0.844538 -0.525079 174.791860
DOCKED: USER    NEWDPF dihe0 139.44 -147.43 -101.94 160.08 32.38 -119.95 15.03 
DOCKED: USER  keepresnum = 1 
DOCKED: USER  
DOCKED: REMARK  Name = 
DOCKED: REMARK  7 active torsions:
DOCKED: REMARK  status: ('A' for Active; 'I' for Inactive)
DOCKED: REMARK    1  A    between atoms: C_2  and  C_5
DOCKED: REMARK    2  A    between atoms: N_3  and  O_4
DOCKED: REMARK    3  A    between atoms: C_5  and  C_6
DOCKED: REMARK    4  A    between atoms: C_6  and  C_7
DOCKED: REMARK    5  A    between atoms: C_7  and  C_8
DOCKED: REMARK    6  A    between atoms: C_8  and  C_9
DOCKED: REMARK    7  A    between atoms: C_9  and  N_10
DOCKED: REMARK                            x       y       z     vdW  Elec       q    Type
DOCKED: REMARK                         _______ _______ _______ _____ _____    ______ ____
DOCKED: USER                              x       y       z     vdW  Elec       q    Type
DOCKED: USER                           _______ _______ _______ _____ _____    ______ ____
DOCKED: ROOT
DOCKED: ATOM      1  N   UNL     1      15.929 -11.627  -0.429 -0.34 +0.00    +0.000 N 
DOCKED: ATOM      2  C   UNL     1      16.635 -11.910   0.795 -0.49 +0.00    +0.000 C 
DOCKED: ATOM      3  C   UNL     1      18.081 -11.612   0.903 -0.47 -0.00    +0.000 A 
DOCKED: ATOM      4  C   UNL     1      18.774 -11.861   2.102 -0.45 -0.00    +0.000 A 
DOCKED: ATOM      5  C   UNL     1      20.136 -11.578   2.206 -0.69 -0.00    +0.000 A 
DOCKED: ATOM      6  C   UNL     1      20.829 -11.044   1.119 -0.57 -0.00    +0.000 A 
DOCKED: ATOM      7  C   UNL     1      20.161 -10.787  -0.086 -0.56 -0.00    +0.000 A 
DOCKED: ATOM      8  C   UNL     1      20.858 -10.252  -1.178 -0.57 -0.00    +0.000 A 
DOCKED: ATOM      9  C   UNL     1      20.194  -9.999  -2.378 -0.43 -0.00    +0.000 A 
DOCKED: ATOM     10  C   UNL     1      18.832 -10.275  -2.503 -0.28 -0.00    +0.000 A 
DOCKED: ATOM     11  C   UNL     1      18.111 -10.813  -1.421 -0.30 -0.00    +0.000 A 
DOCKED: ATOM     12  C   UNL     1      18.776 -11.072  -0.202 -0.44 -0.00    +0.000 A 
DOCKED: ATOM     13  O   UNL     1      16.021 -12.414   1.776 -0.77 +0.00    +0.000 OA
DOCKED: ATOM     14  C   UNL     1      16.665 -11.105  -1.553 -0.14 -0.00    +0.000 C 
DOCKED: ATOM     15  O   UNL     1      16.082 -10.895  -2.652 -0.25 -0.00    +0.000 OA
DOCKED: ENDROOT
DOCKED: BRANCH   1  16
DOCKED: ATOM     16  C   UNL     1      14.474 -11.838  -0.509 -0.44 +0.00    +0.000 C 
DOCKED: BRANCH  16  17
DOCKED: ATOM     17  C   UNL     1      13.697 -10.567  -0.124 -0.29 +0.00    +0.000 C 
DOCKED: BRANCH  17  18
DOCKED: ATOM     18  C   UNL     1      14.042 -10.014   1.272 -0.26 +0.00    +0.000 C 
DOCKED: BRANCH  18  19
DOCKED: ATOM     19  C   UNL     1      14.998  -8.803   1.267 -0.28 +0.00    +0.000 C 
DOCKED: BRANCH  19  20
DOCKED: ATOM     20  C   UNL     1      16.147  -8.893   2.283 -0.19 +0.00    +0.000 C 
DOCKED: BRANCH  20  22
DOCKED: ATOM     21  O   UNL     1      14.929  -8.804   4.337 -0.42 +0.00    +0.000 OA
DOCKED: ATOM     22  C   UNL     1      15.697  -9.471   3.594 -0.44 +0.00    +0.000 C 
DOCKED: ATOM     23  N   UNL     1      16.161 -10.756   4.017 -0.52 +0.00    +0.000 N 
DOCKED: ATOM     24  H   UNL     1      16.767 -11.271   3.438 -0.03 +0.00    +0.000 HD
DOCKED: BRANCH  23  25
DOCKED: ATOM     25  O   UNL     1      15.774 -11.269   5.209 -0.56 +0.00    +0.000 OA
DOCKED: ATOM     26  H   UNL     1      15.592 -12.217   5.109 -0.57 +0.00    +0.000 HD
DOCKED: ENDBRANCH  23  25
DOCKED: ENDBRANCH  20  22
DOCKED: ENDBRANCH  19  20
DOCKED: ENDBRANCH  18  19
DOCKED: ENDBRANCH  17  18
DOCKED: ENDBRANCH  16  17
DOCKED: ENDBRANCH   1  16
DOCKED: TORSDOF 7
DOCKED: TER
DOCKED: ENDMDL
________________________________________________________________________________


	BEGINNING GENETIC ALGORITHM DOCKING 82 of 100
Run: 82 Seed: 875067637 1335161308 [ Run 82 of 100 GA/GALS ]
Beginning LAMARCKIAN GENETIC ALGORITHM (LGA), with a maximum of 2500000 energy evaluations.

Final-Value: -14.085


	FINAL GENETIC ALGORITHM DOCKED STATE
	_______________________________________________


Detailed state:  trans 19.083 -10.073 0.956 quatxyzw 0.564162 -0.001449 -0.236735 0.790997 center 0.154 0.111 -0.146 ntor 7 6.7026 113.5761 2.7032 70.2556 75.3927 -153.1955 3.2729
State:	 19.083 -10.073   0.956   0.922 -0.002 -0.387 75.442      6.70  113.58    2.70   70.26   75.39 -153.20    3.27

DOCKED: MODEL       82
DOCKED: USER    Run = 82
DOCKED: USER    DPF = ligand_dock.biased.dpf
DOCKED: USER  
DOCKED: USER    Estimated Free Energy of Binding    =  -10.47 kcal/mol  [=(1)+(2)+(3)-(4)]
DOCKED: USER    Estimated Inhibition Constant, Ki   =   20.99 nM (nanomolar)  [Temperature = 298.15 K]
DOCKED: USER    
DOCKED: USER    (1) Final Intermolecular Energy     =  -12.56 kcal/mol
DOCKED: USER        vdW + Hbond + desolv Energy     =  -12.56 kcal/mol
DOCKED: USER        Electrostatic Energy            =   +0.00 kcal/mol
DOCKED: USER    (2) Final Total Internal Energy     =   -1.52 kcal/mol
DOCKED: USER    (3) Torsional Free Energy           =   +2.09 kcal/mol
DOCKED: USER    (4) Unbound System's Energy  [=(2)] =   -1.52 kcal/mol
DOCKED: USER    
DOCKED: USER    
DOCKED: USER    NEWDPF move ligand.pdbqt
DOCKED: USER    NEWDPF about 0.154000 0.111000 -0.146000
DOCKED: USER    NEWDPF tran0 19.083006 -10.073406 0.955594
DOCKED: USER    NEWDPF quaternion0 0.564162 -0.001449 -0.236735 0.790997
DOCKED: USER    NEWDPF axisangle0 0.922104 -0.002368 -0.386935 75.442488
DOCKED: USER    NEWDPF quat0 0.922104 -0.002368 -0.386935 75.442488
DOCKED: USER    NEWDPF dihe0 6.70 113.58 2.70 70.26 75.39 -153.20 3.27 
DOCKED: USER  keepresnum = 1 
DOCKED: USER  
DOCKED: REMARK  Name = 
DOCKED: REMARK  7 active torsions:
DOCKED: REMARK  status: ('A' for Active; 'I' for Inactive)
DOCKED: REMARK    1  A    between atoms: C_2  and  C_5
DOCKED: REMARK    2  A    between atoms: N_3  and  O_4
DOCKED: REMARK    3  A    between atoms: C_5  and  C_6
DOCKED: REMARK    4  A    between atoms: C_6  and  C_7
DOCKED: REMARK    5  A    between atoms: C_7  and  C_8
DOCKED: REMARK    6  A    between atoms: C_8  and  C_9
DOCKED: REMARK    7  A    between atoms: C_9  and  N_10
DOCKED: REMARK                            x       y       z     vdW  Elec       q    Type
DOCKED: REMARK                         _______ _______ _______ _____ _____    ______ ____
DOCKED: USER                              x       y       z     vdW  Elec       q    Type
DOCKED: USER                           _______ _______ _______ _____ _____    ______ ____
DOCKED: ROOT
DOCKED: ATOM      1  N   UNL     1      19.114 -11.520   1.343 -0.55 -0.00    +0.000 N 
DOCKED: ATOM      2  C   UNL     1      18.258 -12.108   0.344 -0.55 -0.00    +0.000 C 
DOCKED: ATOM      3  C   UNL     1      16.788 -12.072   0.513 -0.44 +0.00    +0.000 A 
DOCKED: ATOM      4  C   UNL     1      15.943 -12.620  -0.469 -0.43 +0.00    +0.000 A 
DOCKED: ATOM      5  C   UNL     1      14.556 -12.585  -0.312 -0.42 +0.00    +0.000 A 
DOCKED: ATOM      6  C   UNL     1      13.991 -12.004   0.823 -0.42 +0.00    +0.000 A 
DOCKED: ATOM      7  C   UNL     1      14.813 -11.451   1.816 -0.41 +0.00    +0.000 A 
DOCKED: ATOM      8  C   UNL     1      14.244 -10.868   2.957 -0.37 +0.00    +0.000 A 
DOCKED: ATOM      9  C   UNL     1      15.061 -10.321   3.946 -0.43 +0.00    +0.000 A 
DOCKED: ATOM     10  C   UNL     1      16.449 -10.347   3.808 -0.26 +0.00    +0.000 A 
DOCKED: ATOM     11  C   UNL     1      17.044 -10.925   2.672 -0.43 +0.00    +0.000 A 
DOCKED: ATOM     12  C   UNL     1      16.223 -11.482   1.666 -0.39 +0.00    +0.000 A 
DOCKED: ATOM     13  O   UNL     1      18.761 -12.655  -0.676 -0.41 -0.00    +0.000 OA
DOCKED: ATOM     14  C   UNL     1      18.517 -10.952   2.526 -0.59 -0.00    +0.000 C 
DOCKED: ATOM     15  O   UNL     1      19.245 -10.476   3.439 -0.63 -0.00    +0.000 OA
DOCKED: ENDROOT
DOCKED: BRANCH   1  16
DOCKED: ATOM     16  C   UNL     1      20.571 -11.475   1.134 -0.73 -0.00    +0.000 C 
DOCKED: BRANCH  16  17
DOCKED: ATOM     17  C   UNL     1      20.971 -10.327   0.190 -0.70 -0.00    +0.000 C 
DOCKED: BRANCH  17  18
DOCKED: ATOM     18  C   UNL     1      20.990 -10.714  -1.301 -0.54 -0.00    +0.000 C 
DOCKED: BRANCH  18  19
DOCKED: ATOM     19  C   UNL     1      20.533  -9.597  -2.263 -0.51 -0.00    +0.000 C 
DOCKED: BRANCH  19  20
DOCKED: ATOM     20  C   UNL     1      21.404  -9.440  -3.519 -0.46 -0.00    +0.000 C 
DOCKED: BRANCH  20  22
DOCKED: ATOM     21  O   UNL     1      22.161 -10.771  -5.353 -0.49 -0.00    +0.000 OA
DOCKED: ATOM     22  C   UNL     1      21.342 -10.652  -4.403 -0.51 -0.00    +0.000 C 
DOCKED: ATOM     23  N   UNL     1      20.340 -11.650  -4.195 -0.45 -0.00    +0.000 N 
DOCKED: ATOM     24  H   UNL     1      19.697 -11.550  -3.457 -0.03 -0.00    +0.000 HD
DOCKED: BRANCH  23  25
DOCKED: ATOM     25  O   UNL     1      20.269 -12.733  -5.006 -0.79 -0.00    +0.000 OA
DOCKED: ATOM     26  H   UNL     1      21.029 -12.737  -5.609 -0.62 -0.00    +0.000 HD
DOCKED: ENDBRANCH  23  25
DOCKED: ENDBRANCH  20  22
DOCKED: ENDBRANCH  19  20
DOCKED: ENDBRANCH  18  19
DOCKED: ENDBRANCH  17  18
DOCKED: ENDBRANCH  16  17
DOCKED: ENDBRANCH   1  16
DOCKED: TORSDOF 7
DOCKED: TER
DOCKED: ENDMDL
________________________________________________________________________________


	BEGINNING GENETIC ALGORITHM DOCKING 83 of 100
Run: 83 Seed: 2020988349 1258464986 [ Run 83 of 100 GA/GALS ]
Beginning LAMARCKIAN GENETIC ALGORITHM (LGA), with a maximum of 2500000 energy evaluations.

Final-Value: -13.783


	FINAL GENETIC ALGORITHM DOCKED STATE
	_______________________________________________


Detailed state:  trans 16.045 -10.128 -0.588 quatxyzw 0.078971 0.776983 0.617937 -0.090636 center 0.154 0.111 -0.146 ntor 7 -180.0000 180.0000 -173.2765 -122.4283 37.1610 -157.5832 32.8977
State:	 16.045 -10.128  -0.588   0.079  0.780  0.620 -169.600   -180.00  180.00 -173.28 -122.43   37.16 -157.58   32.90

DOCKED: MODEL       83
DOCKED: USER    Run = 83
DOCKED: USER    DPF = ligand_dock.biased.dpf
DOCKED: USER  
DOCKED: USER    Estimated Free Energy of Binding    =   -9.10 kcal/mol  [=(1)+(2)+(3)-(4)]
DOCKED: USER    Estimated Inhibition Constant, Ki   =  213.16 nM (nanomolar)  [Temperature = 298.15 K]
DOCKED: USER    
DOCKED: USER    (1) Final Intermolecular Energy     =  -11.19 kcal/mol
DOCKED: USER        vdW + Hbond + desolv Energy     =  -11.19 kcal/mol
DOCKED: USER        Electrostatic Energy            =   +0.00 kcal/mol
DOCKED: USER    (2) Final Total Internal Energy     =   -2.59 kcal/mol
DOCKED: USER    (3) Torsional Free Energy           =   +2.09 kcal/mol
DOCKED: USER    (4) Unbound System's Energy  [=(2)] =   -2.59 kcal/mol
DOCKED: USER    
DOCKED: USER    
DOCKED: USER    NEWDPF move ligand.pdbqt
DOCKED: USER    NEWDPF about 0.154000 0.111000 -0.146000
DOCKED: USER    NEWDPF tran0 16.044583 -10.128395 -0.588488
DOCKED: USER    NEWDPF quaternion0 0.078971 0.776983 0.617937 -0.090636
DOCKED: USER    NEWDPF axisangle0 0.079298 0.780194 0.620491 -169.599595
DOCKED: USER    NEWDPF quat0 0.079298 0.780194 0.620491 -169.599595
DOCKED: USER    NEWDPF dihe0 -180.00 180.00 -173.28 -122.43 37.16 -157.58 32.90 
DOCKED: USER  keepresnum = 1 
DOCKED: USER  
DOCKED: REMARK  Name = 
DOCKED: REMARK  7 active torsions:
DOCKED: REMARK  status: ('A' for Active; 'I' for Inactive)
DOCKED: REMARK    1  A    between atoms: C_2  and  C_5
DOCKED: REMARK    2  A    between atoms: N_3  and  O_4
DOCKED: REMARK    3  A    between atoms: C_5  and  C_6
DOCKED: REMARK    4  A    between atoms: C_6  and  C_7
DOCKED: REMARK    5  A    between atoms: C_7  and  C_8
DOCKED: REMARK    6  A    between atoms: C_8  and  C_9
DOCKED: REMARK    7  A    between atoms: C_9  and  N_10
DOCKED: REMARK                            x       y       z     vdW  Elec       q    Type
DOCKED: REMARK                         _______ _______ _______ _____ _____    ______ ____
DOCKED: USER                              x       y       z     vdW  Elec       q    Type
DOCKED: USER                           _______ _______ _______ _____ _____    ______ ____
DOCKED: ROOT
DOCKED: ATOM      1  N   UNL     1      16.358 -11.532  -1.009 -0.30 +0.00    +0.000 N 
DOCKED: ATOM      2  C   UNL     1      16.902 -12.085   0.205 -0.50 +0.00    +0.000 C 
DOCKED: ATOM      3  C   UNL     1      18.321 -11.850   0.558 -0.49 -0.00    +0.000 A 
DOCKED: ATOM      4  C   UNL     1      18.853 -12.365   1.753 -0.44 -0.00    +0.000 A 
DOCKED: ATOM      5  C   UNL     1      20.190 -12.142   2.088 -0.64 -0.00    +0.000 A 
DOCKED: ATOM      6  C   UNL     1      21.015 -11.405   1.238 -0.51 -0.00    +0.000 A 
DOCKED: ATOM      7  C   UNL     1      20.507 -10.882   0.041 -0.59 -0.00    +0.000 A 
DOCKED: ATOM      8  C   UNL     1      21.336 -10.141  -0.813 -0.62 -0.00    +0.000 A 
DOCKED: ATOM      9  C   UNL     1      20.832  -9.623  -2.005 -0.51 -0.00    +0.000 A 
DOCKED: ATOM     10  C   UNL     1      19.499  -9.835  -2.358 -0.25 -0.00    +0.000 A 
DOCKED: ATOM     11  C   UNL     1      18.646 -10.574  -1.518 -0.31 -0.00    +0.000 A 
DOCKED: ATOM     12  C   UNL     1      19.149 -11.103  -0.308 -0.46 -0.00    +0.000 A 
DOCKED: ATOM     13  O   UNL     1      16.169 -12.773   0.969 -1.07 +0.00    +0.000 OA
DOCKED: ATOM     14  C   UNL     1      17.231 -10.798  -1.892 -0.17 -0.00    +0.000 C 
DOCKED: ATOM     15  O   UNL     1      16.794 -10.346  -2.986 -0.28 -0.00    +0.000 OA
DOCKED: ENDROOT
DOCKED: BRANCH   1  16
DOCKED: ATOM     16  C   UNL     1      14.927 -11.687  -1.317 -0.38 +0.00    +0.000 C 
DOCKED: BRANCH  16  17
DOCKED: ATOM     17  C   UNL     1      14.171 -10.354  -1.181 -0.28 -0.00    +0.000 C 
DOCKED: BRANCH  17  18
DOCKED: ATOM     18  C   UNL     1      13.523 -10.134   0.199 -0.24 +0.00    +0.000 C 
DOCKED: BRANCH  18  19
DOCKED: ATOM     19  C   UNL     1      14.242  -9.102   1.093 -0.24 +0.00    +0.000 C 
DOCKED: BRANCH  19  20
DOCKED: ATOM     20  C   UNL     1      15.727  -9.404   1.349 -0.30 +0.00    +0.000 C 
DOCKED: BRANCH  20  22
DOCKED: ATOM     21  O   UNL     1      16.483  -8.936   3.568 -0.47 +0.00    +0.000 OA
DOCKED: ATOM     22  C   UNL     1      15.986  -9.784   2.779 -0.43 +0.00    +0.000 C 
DOCKED: ATOM     23  N   UNL     1      15.703 -11.108   3.239 -0.50 +0.00    +0.000 N 
DOCKED: ATOM     24  H   UNL     1      15.323 -11.769   2.619 -0.03 +0.00    +0.000 HD
DOCKED: BRANCH  23  25
DOCKED: ATOM     25  O   UNL     1      15.957 -11.458   4.523 -0.61 +0.00    +0.000 OA
DOCKED: ATOM     26  H   UNL     1      15.708 -12.386   4.660 -0.57 +0.00    +0.000 HD
DOCKED: ENDBRANCH  23  25
DOCKED: ENDBRANCH  20  22
DOCKED: ENDBRANCH  19  20
DOCKED: ENDBRANCH  18  19
DOCKED: ENDBRANCH  17  18
DOCKED: ENDBRANCH  16  17
DOCKED: ENDBRANCH   1  16
DOCKED: TORSDOF 7
DOCKED: TER
DOCKED: ENDMDL
________________________________________________________________________________


	BEGINNING GENETIC ALGORITHM DOCKING 84 of 100
Run: 84 Seed: 1199756568 618221467 [ Run 84 of 100 GA/GALS ]
Beginning LAMARCKIAN GENETIC ALGORITHM (LGA), with a maximum of 2500000 energy evaluations.

Final-Value: -13.118


	FINAL GENETIC ALGORITHM DOCKED STATE
	_______________________________________________


Detailed state:  trans 15.748 -12.494 2.565 quatxyzw 0.296045 -0.466411 0.829541 0.081729 center 0.154 0.111 -0.146 ntor 7 0.5480 -98.9267 168.9865 -165.3293 103.7433 -153.0465 -153.4600
State:	 15.748 -12.494   2.565   0.297 -0.468  0.832 170.624      0.55  -98.93  168.99 -165.33  103.74 -153.05 -153.46

DOCKED: MODEL       84
DOCKED: USER    Run = 84
DOCKED: USER    DPF = ligand_dock.biased.dpf
DOCKED: USER  
DOCKED: USER    Estimated Free Energy of Binding    =   -9.73 kcal/mol  [=(1)+(2)+(3)-(4)]
DOCKED: USER    Estimated Inhibition Constant, Ki   =   73.87 nM (nanomolar)  [Temperature = 298.15 K]
DOCKED: USER    
DOCKED: USER    (1) Final Intermolecular Energy     =  -11.82 kcal/mol
DOCKED: USER        vdW + Hbond + desolv Energy     =  -11.82 kcal/mol
DOCKED: USER        Electrostatic Energy            =   +0.00 kcal/mol
DOCKED: USER    (2) Final Total Internal Energy     =   -1.30 kcal/mol
DOCKED: USER    (3) Torsional Free Energy           =   +2.09 kcal/mol
DOCKED: USER    (4) Unbound System's Energy  [=(2)] =   -1.30 kcal/mol
DOCKED: USER    
DOCKED: USER    
DOCKED: USER    NEWDPF move ligand.pdbqt
DOCKED: USER    NEWDPF about 0.154000 0.111000 -0.146000
DOCKED: USER    NEWDPF tran0 15.748245 -12.494042 2.565460
DOCKED: USER    NEWDPF quaternion0 0.296045 -0.466411 0.829541 0.081729
DOCKED: USER    NEWDPF axisangle0 0.297039 -0.467977 0.832325 170.624133
DOCKED: USER    NEWDPF quat0 0.297039 -0.467977 0.832325 170.624133
DOCKED: USER    NEWDPF dihe0 0.55 -98.93 168.99 -165.33 103.74 -153.05 -153.46 
DOCKED: USER  keepresnum = 1 
DOCKED: USER  
DOCKED: REMARK  Name = 
DOCKED: REMARK  7 active torsions:
DOCKED: REMARK  status: ('A' for Active; 'I' for Inactive)
DOCKED: REMARK    1  A    between atoms: C_2  and  C_5
DOCKED: REMARK    2  A    between atoms: N_3  and  O_4
DOCKED: REMARK    3  A    between atoms: C_5  and  C_6
DOCKED: REMARK    4  A    between atoms: C_6  and  C_7
DOCKED: REMARK    5  A    between atoms: C_7  and  C_8
DOCKED: REMARK    6  A    between atoms: C_8  and  C_9
DOCKED: REMARK    7  A    between atoms: C_9  and  N_10
DOCKED: REMARK                            x       y       z     vdW  Elec       q    Type
DOCKED: REMARK                         _______ _______ _______ _____ _____    ______ ____
DOCKED: USER                              x       y       z     vdW  Elec       q    Type
DOCKED: USER                           _______ _______ _______ _____ _____    ______ ____
DOCKED: ROOT
DOCKED: ATOM      1  N   UNL     1      15.691 -11.001   2.451 -0.40 +0.00    +0.000 N 
DOCKED: ATOM      2  C   UNL     1      15.743 -10.817   1.023 -0.36 +0.00    +0.000 C 
DOCKED: ATOM      3  C   UNL     1      17.044 -10.843   0.317 -0.33 -0.00    +0.000 A 
DOCKED: ATOM      4  C   UNL     1      17.102 -10.689  -1.079 -0.26 -0.00    +0.000 A 
DOCKED: ATOM      5  C   UNL     1      18.328 -10.717  -1.746 -0.29 -0.00    +0.000 A 
DOCKED: ATOM      6  C   UNL     1      19.513 -10.897  -1.032 -0.44 -0.00    +0.000 A 
DOCKED: ATOM      7  C   UNL     1      19.481 -11.052   0.361 -0.53 -0.00    +0.000 A 
DOCKED: ATOM      8  C   UNL     1      20.672 -11.232   1.078 -0.65 -0.00    +0.000 A 
DOCKED: ATOM      9  C   UNL     1      20.641 -11.384   2.463 -0.64 -0.00    +0.000 A 
DOCKED: ATOM     10  C   UNL     1      19.425 -11.359   3.148 -0.61 -0.00    +0.000 A 
DOCKED: ATOM     11  C   UNL     1      18.217 -11.180   2.452 -0.46 -0.00    +0.000 A 
DOCKED: ATOM     12  C   UNL     1      18.240 -11.026   1.047 -0.44 -0.00    +0.000 A 
DOCKED: ATOM     13  O   UNL     1      14.678 -10.631   0.371 -0.28 +0.00    +0.000 OA
DOCKED: ATOM     14  C   UNL     1      16.926 -11.155   3.178 -0.35 +0.00    +0.000 C 
DOCKED: ATOM     15  O   UNL     1      16.914 -11.268   4.435 -0.54 +0.00    +0.000 OA
DOCKED: ENDROOT
DOCKED: BRANCH   1  16
DOCKED: ATOM     16  C   UNL     1      14.392 -11.066   3.142 -0.41 +0.00    +0.000 C 
DOCKED: BRANCH  16  17
DOCKED: ATOM     17  C   UNL     1      13.776  -9.667   3.317 -0.33 +0.00    +0.000 C 
DOCKED: BRANCH  17  18
DOCKED: ATOM     18  C   UNL     1      14.189  -8.954   4.619 -0.43 +0.00    +0.000 C 
DOCKED: BRANCH  18  19
DOCKED: ATOM     19  C   UNL     1      13.723  -7.487   4.728 -0.35 +0.00    +0.000 C 
DOCKED: BRANCH  19  20
DOCKED: ATOM     20  C   UNL     1      14.797  -6.447   4.373 -0.41 +0.00    +0.000 C 
DOCKED: BRANCH  20  22
DOCKED: ATOM     21  O   UNL     1      13.991  -5.200   6.245 -1.04 +0.00    +0.000 OA
DOCKED: ATOM     22  C   UNL     1      14.938  -5.397   5.436 -0.47 +0.00    +0.000 C 
DOCKED: ATOM     23  N   UNL     1      16.121  -4.598   5.515 -0.47 -0.00    +0.000 N 
DOCKED: ATOM     24  H   UNL     1      16.855  -4.749   4.877 -0.57 -0.00    +0.000 HD
DOCKED: BRANCH  23  25
DOCKED: ATOM     25  O   UNL     1      16.240  -3.635   6.459 -0.69 +0.00    +0.000 OA
DOCKED: ATOM     26  H   UNL     1      15.440  -3.620   7.009 -0.07 +0.00    +0.000 HD
DOCKED: ENDBRANCH  23  25
DOCKED: ENDBRANCH  20  22
DOCKED: ENDBRANCH  19  20
DOCKED: ENDBRANCH  18  19
DOCKED: ENDBRANCH  17  18
DOCKED: ENDBRANCH  16  17
DOCKED: ENDBRANCH   1  16
DOCKED: TORSDOF 7
DOCKED: TER
DOCKED: ENDMDL
________________________________________________________________________________


	BEGINNING GENETIC ALGORITHM DOCKING 85 of 100
Run: 85 Seed: 1500296908 106356939 [ Run 85 of 100 GA/GALS ]
Beginning LAMARCKIAN GENETIC ALGORITHM (LGA), with a maximum of 2500000 energy evaluations.

Final-Value: -13.002


	FINAL GENETIC ALGORITHM DOCKED STATE
	_______________________________________________


Detailed state:  trans 19.599 -8.948 -1.540 quatxyzw -0.451903 -0.648798 -0.076615 -0.607434 center 0.154 0.111 -0.146 ntor 7 19.2561 -165.8501 -131.6893 12.0658 -13.0856 125.5060 -168.3954
State:	 19.599  -8.948  -1.540  -0.569 -0.817 -0.096 -105.192     19.26 -165.85 -131.69   12.07  -13.09  125.51 -168.40

DOCKED: MODEL       85
DOCKED: USER    Run = 85
DOCKED: USER    DPF = ligand_dock.biased.dpf
DOCKED: USER  
DOCKED: USER    Estimated Free Energy of Binding    =   -8.34 kcal/mol  [=(1)+(2)+(3)-(4)]
DOCKED: USER    Estimated Inhibition Constant, Ki   =  767.92 nM (nanomolar)  [Temperature = 298.15 K]
DOCKED: USER    
DOCKED: USER    (1) Final Intermolecular Energy     =  -10.43 kcal/mol
DOCKED: USER        vdW + Hbond + desolv Energy     =  -10.43 kcal/mol
DOCKED: USER        Electrostatic Energy            =   +0.00 kcal/mol
DOCKED: USER    (2) Final Total Internal Energy     =   -2.57 kcal/mol
DOCKED: USER    (3) Torsional Free Energy           =   +2.09 kcal/mol
DOCKED: USER    (4) Unbound System's Energy  [=(2)] =   -2.57 kcal/mol
DOCKED: USER    
DOCKED: USER    
DOCKED: USER    NEWDPF move ligand.pdbqt
DOCKED: USER    NEWDPF about 0.154000 0.111000 -0.146000
DOCKED: USER    NEWDPF tran0 19.599206 -8.947642 -1.539671
DOCKED: USER    NEWDPF quaternion0 -0.451903 -0.648798 -0.076615 -0.607434
DOCKED: USER    NEWDPF axisangle0 -0.568882 -0.816744 -0.096447 -105.191647
DOCKED: USER    NEWDPF quat0 -0.568882 -0.816744 -0.096447 -105.191647
DOCKED: USER    NEWDPF dihe0 19.26 -165.85 -131.69 12.07 -13.09 125.51 -168.40 
DOCKED: USER  keepresnum = 1 
DOCKED: USER  
DOCKED: REMARK  Name = 
DOCKED: REMARK  7 active torsions:
DOCKED: REMARK  status: ('A' for Active; 'I' for Inactive)
DOCKED: REMARK    1  A    between atoms: C_2  and  C_5
DOCKED: REMARK    2  A    between atoms: N_3  and  O_4
DOCKED: REMARK    3  A    between atoms: C_5  and  C_6
DOCKED: REMARK    4  A    between atoms: C_6  and  C_7
DOCKED: REMARK    5  A    between atoms: C_7  and  C_8
DOCKED: REMARK    6  A    between atoms: C_8  and  C_9
DOCKED: REMARK    7  A    between atoms: C_9  and  N_10
DOCKED: REMARK                            x       y       z     vdW  Elec       q    Type
DOCKED: REMARK                         _______ _______ _______ _____ _____    ______ ____
DOCKED: USER                              x       y       z     vdW  Elec       q    Type
DOCKED: USER                           _______ _______ _______ _____ _____    ______ ____
DOCKED: ROOT
DOCKED: ATOM      1  N   UNL     1      19.853 -10.422  -1.453 -0.46 -0.00    +0.000 N 
DOCKED: ATOM      2  C   UNL     1      20.948 -10.583  -2.375 -0.53 -0.00    +0.000 C 
DOCKED: ATOM      3  C   UNL     1      20.685 -10.691  -3.829 -0.45 -0.00    +0.000 A 
DOCKED: ATOM      4  C   UNL     1      21.749 -10.824  -4.739 -0.45 -0.00    +0.000 A 
DOCKED: ATOM      5  C   UNL     1      21.502 -10.923  -6.109 -0.39 -0.00    +0.000 A 
DOCKED: ATOM      6  C   UNL     1      20.194 -10.893  -6.593 -0.28 -0.00    +0.000 A 
DOCKED: ATOM      7  C   UNL     1      19.117 -10.762  -5.705 -0.33 -0.00    +0.000 A 
DOCKED: ATOM      8  C   UNL     1      17.802 -10.733  -6.191 -0.29 -0.00    +0.000 A 
DOCKED: ATOM      9  C   UNL     1      16.730 -10.605  -5.308 -0.23 -0.00    +0.000 A 
DOCKED: ATOM     10  C   UNL     1      16.956 -10.505  -3.935 -0.12 -0.00    +0.000 A 
DOCKED: ATOM     11  C   UNL     1      18.266 -10.532  -3.422 -0.24 -0.00    +0.000 A 
DOCKED: ATOM     12  C   UNL     1      19.357 -10.660  -4.310 -0.36 -0.00    +0.000 A 
DOCKED: ATOM     13  O   UNL     1      22.134 -10.634  -1.946 -0.44 -0.00    +0.000 OA
DOCKED: ATOM     14  C   UNL     1      18.505 -10.424  -1.965 -0.28 -0.00    +0.000 C 
DOCKED: ATOM     15  O   UNL     1      17.526 -10.335  -1.175 -0.29 -0.00    +0.000 OA
DOCKED: ENDROOT
DOCKED: BRANCH   1  16
DOCKED: ATOM     16  C   UNL     1      20.118 -10.223  -0.018 -0.59 -0.00    +0.000 C 
DOCKED: BRANCH  16  17
DOCKED: ATOM     17  C   UNL     1      20.121 -11.558   0.746 -0.67 -0.00    +0.000 C 
DOCKED: BRANCH  17  18
DOCKED: ATOM     18  C   UNL     1      20.166 -11.408   2.279 -0.77 -0.00    +0.000 C 
DOCKED: BRANCH  18  19
DOCKED: ATOM     19  C   UNL     1      19.034 -10.548   2.877 -0.64 -0.00    +0.000 C 
DOCKED: BRANCH  19  20
DOCKED: ATOM     20  C   UNL     1      17.681 -11.266   2.995 -0.30 +0.00    +0.000 C 
DOCKED: BRANCH  20  22
DOCKED: ATOM     21  O   UNL     1      16.323 -10.638   1.132 -0.36 +0.00    +0.000 OA
DOCKED: ATOM     22  C   UNL     1      17.058 -11.519   1.652 -0.46 +0.00    +0.000 C 
DOCKED: ATOM     23  N   UNL     1      17.267 -12.763   0.979 -0.50 +0.00    +0.000 N 
DOCKED: ATOM     24  H   UNL     1      17.835 -13.452   1.392 -0.15 +0.00    +0.000 HD
DOCKED: BRANCH  23  25
DOCKED: ATOM     25  O   UNL     1      16.688 -13.002  -0.221 -0.86 +0.00    +0.000 OA
DOCKED: ATOM     26  H   UNL     1      16.427 -12.160  -0.628 -0.01 +0.00    +0.000 HD
DOCKED: ENDBRANCH  23  25
DOCKED: ENDBRANCH  20  22
DOCKED: ENDBRANCH  19  20
DOCKED: ENDBRANCH  18  19
DOCKED: ENDBRANCH  17  18
DOCKED: ENDBRANCH  16  17
DOCKED: ENDBRANCH   1  16
DOCKED: TORSDOF 7
DOCKED: TER
DOCKED: ENDMDL
________________________________________________________________________________


	BEGINNING GENETIC ALGORITHM DOCKING 86 of 100
Run: 86 Seed: 1346715572 775467719 [ Run 86 of 100 GA/GALS ]
Beginning LAMARCKIAN GENETIC ALGORITHM (LGA), with a maximum of 2500000 energy evaluations.

Final-Value: -13.644


	FINAL GENETIC ALGORITHM DOCKED STATE
	_______________________________________________


Detailed state:  trans 16.633 -12.979 -1.103 quatxyzw -0.003964 0.505360 -0.794751 -0.336103 center 0.154 0.111 -0.146 ntor 7 19.2123 -173.6793 167.0111 89.0414 -179.8678 -70.7559 -170.0059
State:	 16.633 -12.979  -1.103  -0.004  0.537 -0.844 -140.721     19.21 -173.68  167.01   89.04 -179.87  -70.76 -170.01

DOCKED: MODEL       86
DOCKED: USER    Run = 86
DOCKED: USER    DPF = ligand_dock.biased.dpf
DOCKED: USER  
DOCKED: USER    Estimated Free Energy of Binding    =   -8.76 kcal/mol  [=(1)+(2)+(3)-(4)]
DOCKED: USER    Estimated Inhibition Constant, Ki   =  380.96 nM (nanomolar)  [Temperature = 298.15 K]
DOCKED: USER    
DOCKED: USER    (1) Final Intermolecular Energy     =  -10.85 kcal/mol
DOCKED: USER        vdW + Hbond + desolv Energy     =  -10.85 kcal/mol
DOCKED: USER        Electrostatic Energy            =   +0.00 kcal/mol
DOCKED: USER    (2) Final Total Internal Energy     =   -2.80 kcal/mol
DOCKED: USER    (3) Torsional Free Energy           =   +2.09 kcal/mol
DOCKED: USER    (4) Unbound System's Energy  [=(2)] =   -2.80 kcal/mol
DOCKED: USER    
DOCKED: USER    
DOCKED: USER    NEWDPF move ligand.pdbqt
DOCKED: USER    NEWDPF about 0.154000 0.111000 -0.146000
DOCKED: USER    NEWDPF tran0 16.632586 -12.979332 -1.103053
DOCKED: USER    NEWDPF quaternion0 -0.003964 0.505360 -0.794751 -0.336103
DOCKED: USER    NEWDPF axisangle0 -0.004208 0.536576 -0.843842 -140.720761
DOCKED: USER    NEWDPF quat0 -0.004208 0.536576 -0.843842 -140.720761
DOCKED: USER    NEWDPF dihe0 19.21 -173.68 167.01 89.04 -179.87 -70.76 -170.01 
DOCKED: USER  keepresnum = 1 
DOCKED: USER  
DOCKED: REMARK  Name = 
DOCKED: REMARK  7 active torsions:
DOCKED: REMARK  status: ('A' for Active; 'I' for Inactive)
DOCKED: REMARK    1  A    between atoms: C_2  and  C_5
DOCKED: REMARK    2  A    between atoms: N_3  and  O_4
DOCKED: REMARK    3  A    between atoms: C_5  and  C_6
DOCKED: REMARK    4  A    between atoms: C_6  and  C_7
DOCKED: REMARK    5  A    between atoms: C_7  and  C_8
DOCKED: REMARK    6  A    between atoms: C_8  and  C_9
DOCKED: REMARK    7  A    between atoms: C_9  and  N_10
DOCKED: REMARK                            x       y       z     vdW  Elec       q    Type
DOCKED: REMARK                         _______ _______ _______ _____ _____    ______ ____
DOCKED: USER                              x       y       z     vdW  Elec       q    Type
DOCKED: USER                           _______ _______ _______ _____ _____    ______ ____
DOCKED: ROOT
DOCKED: ATOM      1  N   UNL     1      16.326 -11.529  -0.884 -0.32 +0.00    +0.000 N 
DOCKED: ATOM      2  C   UNL     1      17.211 -10.898  -1.829 -0.16 -0.00    +0.000 C 
DOCKED: ATOM      3  C   UNL     1      18.633 -10.673  -1.479 -0.33 -0.00    +0.000 A 
DOCKED: ATOM      4  C   UNL     1      19.510 -10.081  -2.404 -0.34 -0.00    +0.000 A 
DOCKED: ATOM      5  C   UNL     1      20.851  -9.871  -2.076 -0.51 -0.00    +0.000 A 
DOCKED: ATOM      6  C   UNL     1      21.336 -10.246  -0.823 -0.62 -0.00    +0.000 A 
DOCKED: ATOM      7  C   UNL     1      20.480 -10.838   0.116 -0.60 -0.00    +0.000 A 
DOCKED: ATOM      8  C   UNL     1      20.967 -11.214   1.376 -0.47 -0.00    +0.000 A 
DOCKED: ATOM      9  C   UNL     1      20.115 -11.800   2.312 -0.70 -0.00    +0.000 A 
DOCKED: ATOM     10  C   UNL     1      18.772 -12.018   2.003 -0.43 -0.00    +0.000 A 
DOCKED: ATOM     11  C   UNL     1      18.259 -11.650   0.746 -0.48 -0.00    +0.000 A 
DOCKED: ATOM     12  C   UNL     1      19.115 -11.055  -0.207 -0.46 -0.00    +0.000 A 
DOCKED: ATOM     13  O   UNL     1      16.777 -10.535  -2.957 -0.27 -0.00    +0.000 OA
DOCKED: ATOM     14  C   UNL     1      16.834 -11.883   0.418 -0.48 +0.00    +0.000 C 
DOCKED: ATOM     15  O   UNL     1      16.068 -12.390   1.282 -0.92 +0.00    +0.000 OA
DOCKED: ENDROOT
DOCKED: BRANCH   1  16
DOCKED: ATOM     16  C   UNL     1      14.936 -11.836  -1.264 -0.40 +0.00    +0.000 C 
DOCKED: BRANCH  16  17
DOCKED: ATOM     17  C   UNL     1      13.975 -10.710  -0.846 -0.31 +0.00    +0.000 C 
DOCKED: BRANCH  17  18
DOCKED: ATOM     18  C   UNL     1      14.627  -9.609   0.012 -0.26 +0.00    +0.000 C 
DOCKED: BRANCH  18  19
DOCKED: ATOM     19  C   UNL     1      14.157  -9.572   1.481 -0.25 +0.00    +0.000 C 
DOCKED: BRANCH  19  20
DOCKED: ATOM     20  C   UNL     1      15.163  -8.942   2.458 -0.34 +0.00    +0.000 C 
DOCKED: BRANCH  20  22
DOCKED: ATOM     21  O   UNL     1      14.732  -9.574   4.722 -0.48 +0.00    +0.000 OA
DOCKED: ATOM     22  C   UNL     1      15.386  -9.802   3.669 -0.46 +0.00    +0.000 C 
DOCKED: ATOM     23  N   UNL     1      16.356 -10.851   3.644 -0.51 +0.00    +0.000 N 
DOCKED: ATOM     24  H   UNL     1      16.871 -11.021   2.823 -0.01 +0.00    +0.000 HD
DOCKED: BRANCH  23  25
DOCKED: ATOM     25  O   UNL     1      16.575 -11.613   4.743 -0.31 +0.00    +0.000 OA
DOCKED: ATOM     26  H   UNL     1      15.816 -11.539   5.344 -0.42 +0.00    +0.000 HD
DOCKED: ENDBRANCH  23  25
DOCKED: ENDBRANCH  20  22
DOCKED: ENDBRANCH  19  20
DOCKED: ENDBRANCH  18  19
DOCKED: ENDBRANCH  17  18
DOCKED: ENDBRANCH  16  17
DOCKED: ENDBRANCH   1  16
DOCKED: TORSDOF 7
DOCKED: TER
DOCKED: ENDMDL
________________________________________________________________________________


	BEGINNING GENETIC ALGORITHM DOCKING 87 of 100
Run: 87 Seed: 62384359 498534057 [ Run 87 of 100 GA/GALS ]
Beginning LAMARCKIAN GENETIC ALGORITHM (LGA), with a maximum of 2500000 energy evaluations.

Final-Value: -13.561


	FINAL GENETIC ALGORITHM DOCKED STATE
	_______________________________________________


Detailed state:  trans 17.858 -12.000 -1.969 quatxyzw 0.548783 -0.418705 0.719672 -0.074804 center 0.154 0.111 -0.146 ntor 7 37.6641 174.9436 12.7045 -170.1712 -108.5836 94.3879 31.1551
State:	 17.858 -12.000  -1.969   0.550 -0.420  0.722 -171.420     37.66  174.94   12.70 -170.17 -108.58   94.39   31.16

DOCKED: MODEL       87
DOCKED: USER    Run = 87
DOCKED: USER    DPF = ligand_dock.biased.dpf
DOCKED: USER  
DOCKED: USER    Estimated Free Energy of Binding    =   -9.16 kcal/mol  [=(1)+(2)+(3)-(4)]
DOCKED: USER    Estimated Inhibition Constant, Ki   =  194.16 nM (nanomolar)  [Temperature = 298.15 K]
DOCKED: USER    
DOCKED: USER    (1) Final Intermolecular Energy     =  -11.24 kcal/mol
DOCKED: USER        vdW + Hbond + desolv Energy     =  -11.24 kcal/mol
DOCKED: USER        Electrostatic Energy            =   +0.00 kcal/mol
DOCKED: USER    (2) Final Total Internal Energy     =   -2.32 kcal/mol
DOCKED: USER    (3) Torsional Free Energy           =   +2.09 kcal/mol
DOCKED: USER    (4) Unbound System's Energy  [=(2)] =   -2.32 kcal/mol
DOCKED: USER    
DOCKED: USER    
DOCKED: USER    NEWDPF move ligand.pdbqt
DOCKED: USER    NEWDPF about 0.154000 0.111000 -0.146000
DOCKED: USER    NEWDPF tran0 17.857584 -12.000049 -1.969318
DOCKED: USER    NEWDPF quaternion0 0.548783 -0.418705 0.719672 -0.074804
DOCKED: USER    NEWDPF axisangle0 0.550325 -0.419881 0.721694 -171.420127
DOCKED: USER    NEWDPF quat0 0.550325 -0.419881 0.721694 -171.420127
DOCKED: USER    NEWDPF dihe0 37.66 174.94 12.70 -170.17 -108.58 94.39 31.16 
DOCKED: USER  keepresnum = 1 
DOCKED: USER  
DOCKED: REMARK  Name = 
DOCKED: REMARK  7 active torsions:
DOCKED: REMARK  status: ('A' for Active; 'I' for Inactive)
DOCKED: REMARK    1  A    between atoms: C_2  and  C_5
DOCKED: REMARK    2  A    between atoms: N_3  and  O_4
DOCKED: REMARK    3  A    between atoms: C_5  and  C_6
DOCKED: REMARK    4  A    between atoms: C_6  and  C_7
DOCKED: REMARK    5  A    between atoms: C_7  and  C_8
DOCKED: REMARK    6  A    between atoms: C_8  and  C_9
DOCKED: REMARK    7  A    between atoms: C_9  and  N_10
DOCKED: REMARK                            x       y       z     vdW  Elec       q    Type
DOCKED: REMARK                         _______ _______ _______ _____ _____    ______ ____
DOCKED: USER                              x       y       z     vdW  Elec       q    Type
DOCKED: USER                           _______ _______ _______ _____ _____    ______ ____
DOCKED: ROOT
DOCKED: ATOM      1  N   UNL     1      17.661 -10.529  -2.174 -0.29 -0.00    +0.000 N 
DOCKED: ATOM      2  C   UNL     1      16.851 -10.506  -3.365 -0.12 -0.00    +0.000 C 
DOCKED: ATOM      3  C   UNL     1      17.485 -10.629  -4.697 -0.18 -0.00    +0.000 A 
DOCKED: ATOM      4  C   UNL     1      16.700 -10.633  -5.864 -0.24 -0.00    +0.000 A 
DOCKED: ATOM      5  C   UNL     1      17.297 -10.751  -7.120 -0.28 -0.00    +0.000 A 
DOCKED: ATOM      6  C   UNL     1      18.683 -10.866  -7.233 -0.30 -0.00    +0.000 A 
DOCKED: ATOM      7  C   UNL     1      19.486 -10.864  -6.084 -0.34 -0.00    +0.000 A 
DOCKED: ATOM      8  C   UNL     1      20.879 -10.978  -6.197 -0.31 -0.00    +0.000 A 
DOCKED: ATOM      9  C   UNL     1      21.679 -10.974  -5.055 -0.47 -0.00    +0.000 A 
DOCKED: ATOM     10  C   UNL     1      21.101 -10.856  -3.791 -0.45 -0.00    +0.000 A 
DOCKED: ATOM     11  C   UNL     1      19.707 -10.740  -3.650 -0.40 -0.00    +0.000 A 
DOCKED: ATOM     12  C   UNL     1      18.889 -10.744  -4.802 -0.33 -0.00    +0.000 A 
DOCKED: ATOM     13  O   UNL     1      15.598 -10.380  -3.274 -0.26 -0.00    +0.000 OA
DOCKED: ATOM     14  C   UNL     1      19.094 -10.617  -2.308 -0.42 -0.00    +0.000 C 
DOCKED: ATOM     15  O   UNL     1      19.830 -10.588  -1.284 -0.51 -0.00    +0.000 OA
DOCKED: ENDROOT
DOCKED: BRANCH   1  16
DOCKED: ATOM     16  C   UNL     1      17.025 -10.498  -0.846 -0.28 -0.00    +0.000 C 
DOCKED: BRANCH  16  17
DOCKED: ATOM     17  C   UNL     1      17.110 -11.866  -0.147 -0.47 +0.00    +0.000 C 
DOCKED: BRANCH  17  18
DOCKED: ATOM     18  C   UNL     1      16.965 -11.802   1.386 -0.47 +0.00    +0.000 C 
DOCKED: BRANCH  18  19
DOCKED: ATOM     19  C   UNL     1      17.679 -10.607   2.052 -0.50 -0.00    +0.000 C 
DOCKED: BRANCH  19  20
DOCKED: ATOM     20  C   UNL     1      18.991 -10.965   2.768 -0.65 -0.00    +0.000 C 
DOCKED: BRANCH  20  22
DOCKED: ATOM     21  O   UNL     1      20.512 -12.402   1.614 -1.53 -0.00    +0.000 OA
DOCKED: ATOM     22  C   UNL     1      20.109 -11.223   1.800 -0.74 -0.00    +0.000 C 
DOCKED: ATOM     23  N   UNL     1      20.739 -10.137   1.115 -0.57 -0.00    +0.000 N 
DOCKED: ATOM     24  H   UNL     1      20.428  -9.217   1.269 -0.35 -0.00    +0.000 HD
DOCKED: BRANCH  23  25
DOCKED: ATOM     25  O   UNL     1      21.763 -10.365   0.259 -0.72 -0.00    +0.000 OA
DOCKED: ATOM     26  H   UNL     1      21.596 -11.184  -0.235 -0.08 -0.00    +0.000 HD
DOCKED: ENDBRANCH  23  25
DOCKED: ENDBRANCH  20  22
DOCKED: ENDBRANCH  19  20
DOCKED: ENDBRANCH  18  19
DOCKED: ENDBRANCH  17  18
DOCKED: ENDBRANCH  16  17
DOCKED: ENDBRANCH   1  16
DOCKED: TORSDOF 7
DOCKED: TER
DOCKED: ENDMDL
________________________________________________________________________________


	BEGINNING GENETIC ALGORITHM DOCKING 88 of 100
Run: 88 Seed: 468400470 1303530687 [ Run 88 of 100 GA/GALS ]
Beginning LAMARCKIAN GENETIC ALGORITHM (LGA), with a maximum of 2500000 energy evaluations.

Final-Value: -12.746


	FINAL GENETIC ALGORITHM DOCKED STATE
	_______________________________________________


Detailed state:  trans 20.288 -8.438 -1.330 quatxyzw -0.087073 0.163230 0.495490 -0.848684 center 0.154 0.111 -0.146 ntor 7 0.8928 164.5415 -24.6890 -23.1658 45.7190 -51.8135 -155.3300
State:	 20.288  -8.438  -1.330  -0.165  0.309  0.937 -63.862      0.89  164.54  -24.69  -23.17   45.72  -51.81 -155.33

DOCKED: MODEL       88
DOCKED: USER    Run = 88
DOCKED: USER    DPF = ligand_dock.biased.dpf
DOCKED: USER  
DOCKED: USER    Estimated Free Energy of Binding    =   -9.17 kcal/mol  [=(1)+(2)+(3)-(4)]
DOCKED: USER    Estimated Inhibition Constant, Ki   =  189.25 nM (nanomolar)  [Temperature = 298.15 K]
DOCKED: USER    
DOCKED: USER    (1) Final Intermolecular Energy     =  -11.26 kcal/mol
DOCKED: USER        vdW + Hbond + desolv Energy     =  -11.26 kcal/mol
DOCKED: USER        Electrostatic Energy            =   +0.00 kcal/mol
DOCKED: USER    (2) Final Total Internal Energy     =   -1.49 kcal/mol
DOCKED: USER    (3) Torsional Free Energy           =   +2.09 kcal/mol
DOCKED: USER    (4) Unbound System's Energy  [=(2)] =   -1.49 kcal/mol
DOCKED: USER    
DOCKED: USER    
DOCKED: USER    NEWDPF move ligand.pdbqt
DOCKED: USER    NEWDPF about 0.154000 0.111000 -0.146000
DOCKED: USER    NEWDPF tran0 20.287610 -8.438294 -1.330366
DOCKED: USER    NEWDPF quaternion0 -0.087073 0.163230 0.495490 -0.848684
DOCKED: USER    NEWDPF axisangle0 -0.164631 0.308621 0.936830 -63.862434
DOCKED: USER    NEWDPF quat0 -0.164631 0.308621 0.936830 -63.862434
DOCKED: USER    NEWDPF dihe0 0.89 164.54 -24.69 -23.17 45.72 -51.81 -155.33 
DOCKED: USER  keepresnum = 1 
DOCKED: USER  
DOCKED: REMARK  Name = 
DOCKED: REMARK  7 active torsions:
DOCKED: REMARK  status: ('A' for Active; 'I' for Inactive)
DOCKED: REMARK    1  A    between atoms: C_2  and  C_5
DOCKED: REMARK    2  A    between atoms: N_3  and  O_4
DOCKED: REMARK    3  A    between atoms: C_5  and  C_6
DOCKED: REMARK    4  A    between atoms: C_6  and  C_7
DOCKED: REMARK    5  A    between atoms: C_7  and  C_8
DOCKED: REMARK    6  A    between atoms: C_8  and  C_9
DOCKED: REMARK    7  A    between atoms: C_9  and  N_10
DOCKED: REMARK                            x       y       z     vdW  Elec       q    Type
DOCKED: REMARK                         _______ _______ _______ _____ _____    ______ ____
DOCKED: USER                              x       y       z     vdW  Elec       q    Type
DOCKED: USER                           _______ _______ _______ _____ _____    ______ ____
DOCKED: ROOT
DOCKED: ATOM      1  N   UNL     1      20.412  -9.654  -2.197 -0.44 -0.00    +0.000 N 
DOCKED: ATOM      2  C   UNL     1      19.037  -9.910  -2.540 -0.18 -0.00    +0.000 C 
DOCKED: ATOM      3  C   UNL     1      18.161 -10.644  -1.598 -0.27 -0.00    +0.000 A 
DOCKED: ATOM      4  C   UNL     1      16.811 -10.876  -1.913 -0.10 -0.00    +0.000 A 
DOCKED: ATOM      5  C   UNL     1      15.983 -11.566  -1.025 -0.26 +0.00    +0.000 A 
DOCKED: ATOM      6  C   UNL     1      16.489 -12.035   0.188 -0.43 +0.00    +0.000 A 
DOCKED: ATOM      7  C   UNL     1      17.832 -11.816   0.523 -0.46 -0.00    +0.000 A 
DOCKED: ATOM      8  C   UNL     1      18.340 -12.288   1.742 -0.20 -0.00    +0.000 A 
DOCKED: ATOM      9  C   UNL     1      19.677 -12.073   2.075 -0.66 -0.00    +0.000 A 
DOCKED: ATOM     10  C   UNL     1      20.520 -11.386   1.201 -0.66 -0.00    +0.000 A 
DOCKED: ATOM     11  C   UNL     1      20.034 -10.902  -0.027 -0.55 -0.00    +0.000 A 
DOCKED: ATOM     12  C   UNL     1      18.681 -11.116  -0.372 -0.43 -0.00    +0.000 A 
DOCKED: ATOM     13  O   UNL     1      18.576  -9.509  -3.645 -0.28 -0.00    +0.000 OA
DOCKED: ATOM     14  C   UNL     1      20.929 -10.172  -0.954 -0.66 -0.00    +0.000 C 
DOCKED: ATOM     15  O   UNL     1      22.142 -10.006  -0.653 -0.61 -0.00    +0.000 OA
DOCKED: ENDROOT
DOCKED: BRANCH   1  16
DOCKED: ATOM     16  C   UNL     1      21.259  -8.846  -3.091 -0.46 -0.00    +0.000 C 
DOCKED: BRANCH  16  17
DOCKED: ATOM     17  C   UNL     1      21.770  -9.672  -4.285 -0.38 -0.00    +0.000 C 
DOCKED: BRANCH  17  18
DOCKED: ATOM     18  C   UNL     1      21.073 -11.036  -4.453 -0.52 -0.00    +0.000 C 
DOCKED: BRANCH  18  19
DOCKED: ATOM     19  C   UNL     1      20.237 -11.179  -5.741 -0.42 -0.00    +0.000 C 
DOCKED: BRANCH  19  20
DOCKED: ATOM     20  C   UNL     1      20.909 -10.620  -7.004 -0.30 -0.00    +0.000 C 
DOCKED: BRANCH  20  22
DOCKED: ATOM     21  O   UNL     1      23.185  -9.892  -7.011 -0.32 -0.00    +0.000 OA
DOCKED: ATOM     22  C   UNL     1      22.390 -10.869  -7.012 -0.41 -0.00    +0.000 C 
DOCKED: ATOM     23  N   UNL     1      22.899 -12.205  -7.056 -0.49 -0.00    +0.000 N 
DOCKED: ATOM     24  H   UNL     1      22.275 -12.965  -7.065 -0.61 -0.00    +0.000 HD
DOCKED: BRANCH  23  25
DOCKED: ATOM     25  O   UNL     1      24.234 -12.431  -7.086 -1.11 +0.00    +0.000 OA
DOCKED: ATOM     26  H   UNL     1      24.707 -11.584  -7.058 -0.04 +0.00    +0.000 HD
DOCKED: ENDBRANCH  23  25
DOCKED: ENDBRANCH  20  22
DOCKED: ENDBRANCH  19  20
DOCKED: ENDBRANCH  18  19
DOCKED: ENDBRANCH  17  18
DOCKED: ENDBRANCH  16  17
DOCKED: ENDBRANCH   1  16
DOCKED: TORSDOF 7
DOCKED: TER
DOCKED: ENDMDL
________________________________________________________________________________


	BEGINNING GENETIC ALGORITHM DOCKING 89 of 100
Run: 89 Seed: 181067954 459604943 [ Run 89 of 100 GA/GALS ]
Beginning LAMARCKIAN GENETIC ALGORITHM (LGA), with a maximum of 2500000 energy evaluations.

Final-Value: -13.309


	FINAL GENETIC ALGORITHM DOCKED STATE
	_______________________________________________


Detailed state:  trans 20.111 -12.052 -1.891 quatxyzw 0.776528 0.055305 -0.489012 -0.393464 center 0.154 0.111 -0.146 ntor 7 2.2349 177.3260 72.9994 169.8530 -108.6798 179.3786 157.0986
State:	 20.111 -12.052  -1.891   0.845  0.060 -0.532 -133.660      2.23  177.33   73.00  169.85 -108.68  179.38  157.10

DOCKED: MODEL       89
DOCKED: USER    Run = 89
DOCKED: USER    DPF = ligand_dock.biased.dpf
DOCKED: USER  
DOCKED: USER    Estimated Free Energy of Binding    =   -9.98 kcal/mol  [=(1)+(2)+(3)-(4)]
DOCKED: USER    Estimated Inhibition Constant, Ki   =   48.14 nM (nanomolar)  [Temperature = 298.15 K]
DOCKED: USER    
DOCKED: USER    (1) Final Intermolecular Energy     =  -12.07 kcal/mol
DOCKED: USER        vdW + Hbond + desolv Energy     =  -12.07 kcal/mol
DOCKED: USER        Electrostatic Energy            =   +0.00 kcal/mol
DOCKED: USER    (2) Final Total Internal Energy     =   -1.24 kcal/mol
DOCKED: USER    (3) Torsional Free Energy           =   +2.09 kcal/mol
DOCKED: USER    (4) Unbound System's Energy  [=(2)] =   -1.24 kcal/mol
DOCKED: USER    
DOCKED: USER    
DOCKED: USER    NEWDPF move ligand.pdbqt
DOCKED: USER    NEWDPF about 0.154000 0.111000 -0.146000
DOCKED: USER    NEWDPF tran0 20.110596 -12.051582 -1.891307
DOCKED: USER    NEWDPF quaternion0 0.776528 0.055305 -0.489012 -0.393464
DOCKED: USER    NEWDPF axisangle0 0.844658 0.060157 -0.531916 -133.659590
DOCKED: USER    NEWDPF quat0 0.844658 0.060157 -0.531916 -133.659590
DOCKED: USER    NEWDPF dihe0 2.23 177.33 73.00 169.85 -108.68 179.38 157.10 
DOCKED: USER  keepresnum = 1 
DOCKED: USER  
DOCKED: REMARK  Name = 
DOCKED: REMARK  7 active torsions:
DOCKED: REMARK  status: ('A' for Active; 'I' for Inactive)
DOCKED: REMARK    1  A    between atoms: C_2  and  C_5
DOCKED: REMARK    2  A    between atoms: N_3  and  O_4
DOCKED: REMARK    3  A    between atoms: C_5  and  C_6
DOCKED: REMARK    4  A    between atoms: C_6  and  C_7
DOCKED: REMARK    5  A    between atoms: C_7  and  C_8
DOCKED: REMARK    6  A    between atoms: C_8  and  C_9
DOCKED: REMARK    7  A    between atoms: C_9  and  N_10
DOCKED: REMARK                            x       y       z     vdW  Elec       q    Type
DOCKED: REMARK                         _______ _______ _______ _____ _____    ______ ____
DOCKED: USER                              x       y       z     vdW  Elec       q    Type
DOCKED: USER                           _______ _______ _______ _____ _____    ______ ____
DOCKED: ROOT
DOCKED: ATOM      1  N   UNL     1      20.284 -10.603  -1.552 -0.49 -0.00    +0.000 N 
DOCKED: ATOM      2  C   UNL     1      20.893 -10.679  -0.249 -0.67 -0.00    +0.000 C 
DOCKED: ATOM      3  C   UNL     1      20.051 -10.883   0.953 -0.60 -0.00    +0.000 A 
DOCKED: ATOM      4  C   UNL     1      20.638 -10.984   2.227 -0.58 -0.00    +0.000 A 
DOCKED: ATOM      5  C   UNL     1      19.846 -11.178   3.359 -0.65 -0.00    +0.000 A 
DOCKED: ATOM      6  C   UNL     1      18.459 -11.273   3.240 -0.35 -0.00    +0.000 A 
DOCKED: ATOM      7  C   UNL     1      17.851 -11.174   1.981 -0.44 -0.00    +0.000 A 
DOCKED: ATOM      8  C   UNL     1      16.457 -11.269   1.862 -0.39 +0.00    +0.000 A 
DOCKED: ATOM      9  C   UNL     1      15.851 -11.168   0.610 -0.33 +0.00    +0.000 A 
DOCKED: ATOM     10  C   UNL     1      16.626 -10.974  -0.534 -0.31 -0.00    +0.000 A 
DOCKED: ATOM     11  C   UNL     1      18.026 -10.876  -0.441 -0.35 -0.00    +0.000 A 
DOCKED: ATOM     12  C   UNL     1      18.647 -10.977   0.824 -0.46 -0.00    +0.000 A 
DOCKED: ATOM     13  O   UNL     1      22.144 -10.572  -0.129 -0.72 -0.00    +0.000 OA
DOCKED: ATOM     14  C   UNL     1      18.848 -10.671  -1.656 -0.40 -0.00    +0.000 C 
DOCKED: ATOM     15  O   UNL     1      18.286 -10.556  -2.779 -0.35 -0.00    +0.000 OA
DOCKED: ENDROOT
DOCKED: BRANCH   1  16
DOCKED: ATOM     16  C   UNL     1      21.126 -10.492  -2.756 -0.55 -0.00    +0.000 C 
DOCKED: BRANCH  16  17
DOCKED: ATOM     17  C   UNL     1      20.710  -9.294  -3.627 -0.42 -0.00    +0.000 C 
DOCKED: BRANCH  17  18
DOCKED: ATOM     18  C   UNL     1      20.197  -9.681  -5.028 -0.30 -0.00    +0.000 C 
DOCKED: BRANCH  18  19
DOCKED: ATOM     19  C   UNL     1      20.973 -10.829  -5.706 -0.45 -0.00    +0.000 C 
DOCKED: BRANCH  19  20
DOCKED: ATOM     20  C   UNL     1      21.548 -10.483  -7.088 -0.33 -0.00    +0.000 C 
DOCKED: BRANCH  20  22
DOCKED: ATOM     21  O   UNL     1      23.907 -10.114  -7.186 -0.35 -0.00    +0.000 OA
DOCKED: ATOM     22  C   UNL     1      22.967 -10.951  -7.241 -0.42 -0.00    +0.000 C 
DOCKED: ATOM     23  N   UNL     1      23.253 -12.331  -7.481 -0.51 -0.00    +0.000 N 
DOCKED: ATOM     24  H   UNL     1      22.516 -12.980  -7.532 -0.62 -0.00    +0.000 HD
DOCKED: BRANCH  23  25
DOCKED: ATOM     25  O   UNL     1      24.530 -12.751  -7.642 -0.94 +0.00    +0.000 OA
DOCKED: ATOM     26  H   UNL     1      25.135 -12.000  -7.530 -0.05 +0.00    +0.000 HD
DOCKED: ENDBRANCH  23  25
DOCKED: ENDBRANCH  20  22
DOCKED: ENDBRANCH  19  20
DOCKED: ENDBRANCH  18  19
DOCKED: ENDBRANCH  17  18
DOCKED: ENDBRANCH  16  17
DOCKED: ENDBRANCH   1  16
DOCKED: TORSDOF 7
DOCKED: TER
DOCKED: ENDMDL
________________________________________________________________________________


	BEGINNING GENETIC ALGORITHM DOCKING 90 of 100
Run: 90 Seed: 830577525 1458752707 [ Run 90 of 100 GA/GALS ]
Beginning LAMARCKIAN GENETIC ALGORITHM (LGA), with a maximum of 2500000 energy evaluations.

Final-Value: -13.145


	FINAL GENETIC ALGORITHM DOCKED STATE
	_______________________________________________


Detailed state:  trans 20.545 -9.214 -1.236 quatxyzw 0.206072 -0.300848 -0.384227 0.848171 center 0.154 0.111 -0.146 ntor 7 -5.0520 51.1968 169.3381 2.3023 -128.4558 -168.8566 -8.7328
State:	 20.545  -9.214  -1.236   0.389 -0.568 -0.725 63.973     -5.05   51.20  169.34    2.30 -128.46 -168.86   -8.73

DOCKED: MODEL       90
DOCKED: USER    Run = 90
DOCKED: USER    DPF = ligand_dock.biased.dpf
DOCKED: USER  
DOCKED: USER    Estimated Free Energy of Binding    =   -9.59 kcal/mol  [=(1)+(2)+(3)-(4)]
DOCKED: USER    Estimated Inhibition Constant, Ki   =   93.44 nM (nanomolar)  [Temperature = 298.15 K]
DOCKED: USER    
DOCKED: USER    (1) Final Intermolecular Energy     =  -11.68 kcal/mol
DOCKED: USER        vdW + Hbond + desolv Energy     =  -11.68 kcal/mol
DOCKED: USER        Electrostatic Energy            =   +0.00 kcal/mol
DOCKED: USER    (2) Final Total Internal Energy     =   -1.47 kcal/mol
DOCKED: USER    (3) Torsional Free Energy           =   +2.09 kcal/mol
DOCKED: USER    (4) Unbound System's Energy  [=(2)] =   -1.47 kcal/mol
DOCKED: USER    
DOCKED: USER    
DOCKED: USER    NEWDPF move ligand.pdbqt
DOCKED: USER    NEWDPF about 0.154000 0.111000 -0.146000
DOCKED: USER    NEWDPF tran0 20.544928 -9.213691 -1.235672
DOCKED: USER    NEWDPF quaternion0 0.206072 -0.300848 -0.384227 0.848171
DOCKED: USER    NEWDPF axisangle0 0.389019 -0.567935 -0.725337 63.973338
DOCKED: USER    NEWDPF quat0 0.389019 -0.567935 -0.725337 63.973338
DOCKED: USER    NEWDPF dihe0 -5.05 51.20 169.34 2.30 -128.46 -168.86 -8.73 
DOCKED: USER  keepresnum = 1 
DOCKED: USER  
DOCKED: REMARK  Name = 
DOCKED: REMARK  7 active torsions:
DOCKED: REMARK  status: ('A' for Active; 'I' for Inactive)
DOCKED: REMARK    1  A    between atoms: C_2  and  C_5
DOCKED: REMARK    2  A    between atoms: N_3  and  O_4
DOCKED: REMARK    3  A    between atoms: C_5  and  C_6
DOCKED: REMARK    4  A    between atoms: C_6  and  C_7
DOCKED: REMARK    5  A    between atoms: C_7  and  C_8
DOCKED: REMARK    6  A    between atoms: C_8  and  C_9
DOCKED: REMARK    7  A    between atoms: C_9  and  N_10
DOCKED: REMARK                            x       y       z     vdW  Elec       q    Type
DOCKED: REMARK                         _______ _______ _______ _____ _____    ______ ____
DOCKED: USER                              x       y       z     vdW  Elec       q    Type
DOCKED: USER                           _______ _______ _______ _____ _____    ______ ____
DOCKED: ROOT
DOCKED: ATOM      1  N   UNL     1      20.373 -10.659  -1.590 -0.49 -0.00    +0.000 N 
DOCKED: ATOM      2  C   UNL     1      18.943 -10.758  -1.726 -0.42 -0.00    +0.000 C 
DOCKED: ATOM      3  C   UNL     1      18.092 -10.928  -0.526 -0.37 -0.00    +0.000 A 
DOCKED: ATOM      4  C   UNL     1      16.693 -11.000  -0.647 -0.31 -0.00    +0.000 A 
DOCKED: ATOM      5  C   UNL     1      15.890 -11.158   0.484 -0.33 +0.00    +0.000 A 
DOCKED: ATOM      6  C   UNL     1      16.469 -11.248   1.750 -0.39 +0.00    +0.000 A 
DOCKED: ATOM      7  C   UNL     1      17.861 -11.179   1.896 -0.44 -0.00    +0.000 A 
DOCKED: ATOM      8  C   UNL     1      18.442 -11.270   3.169 -0.37 -0.00    +0.000 A 
DOCKED: ATOM      9  C   UNL     1      19.827 -11.205   3.314 -0.66 -0.00    +0.000 A 
DOCKED: ATOM     10  C   UNL     1      20.647 -11.047   2.196 -0.59 -0.00    +0.000 A 
DOCKED: ATOM     11  C   UNL     1      20.089 -10.953   0.909 -0.61 -0.00    +0.000 A 
DOCKED: ATOM     12  C   UNL     1      18.686 -11.019   0.753 -0.47 -0.00    +0.000 A 
DOCKED: ATOM     13  O   UNL     1      18.412 -10.700  -2.870 -0.35 -0.00    +0.000 OA
DOCKED: ATOM     14  C   UNL     1      20.958 -10.785  -0.278 -0.66 -0.00    +0.000 C 
DOCKED: ATOM     15  O   UNL     1      22.211 -10.753  -0.136 -0.66 -0.00    +0.000 OA
DOCKED: ENDROOT
DOCKED: BRANCH   1  16
DOCKED: ATOM     16  C   UNL     1      21.213 -10.399  -2.772 -0.55 -0.00    +0.000 C 
DOCKED: BRANCH  16  17
DOCKED: ATOM     17  C   UNL     1      20.972  -8.989  -3.337 -0.44 -0.00    +0.000 C 
DOCKED: BRANCH  17  18
DOCKED: ATOM     18  C   UNL     1      20.140  -8.962  -4.634 -0.27 -0.00    +0.000 C 
DOCKED: BRANCH  18  19
DOCKED: ATOM     19  C   UNL     1      20.753  -9.748  -5.810 -0.29 -0.00    +0.000 C 
DOCKED: BRANCH  19  20
DOCKED: ATOM     20  C   UNL     1      20.773 -11.273  -5.618 -0.47 -0.00    +0.000 C 
DOCKED: BRANCH  20  22
DOCKED: ATOM     21  O   UNL     1      22.649 -12.621  -5.005 -0.50 -0.00    +0.000 OA
DOCKED: ATOM     22  C   UNL     1      22.136 -11.854  -5.863 -0.49 -0.00    +0.000 C 
DOCKED: ATOM     23  N   UNL     1      22.866 -11.516  -7.045 -0.46 -0.00    +0.000 N 
DOCKED: ATOM     24  H   UNL     1      22.466 -10.911  -7.710 -0.02 -0.00    +0.000 HD
DOCKED: BRANCH  23  25
DOCKED: ATOM     25  O   UNL     1      24.104 -12.022  -7.257 -1.02 -0.00    +0.000 OA
DOCKED: ATOM     26  H   UNL     1      24.384 -12.531  -6.480 -0.06 +0.00    +0.000 HD
DOCKED: ENDBRANCH  23  25
DOCKED: ENDBRANCH  20  22
DOCKED: ENDBRANCH  19  20
DOCKED: ENDBRANCH  18  19
DOCKED: ENDBRANCH  17  18
DOCKED: ENDBRANCH  16  17
DOCKED: ENDBRANCH   1  16
DOCKED: TORSDOF 7
DOCKED: TER
DOCKED: ENDMDL
________________________________________________________________________________


	BEGINNING GENETIC ALGORITHM DOCKING 91 of 100
Run: 91 Seed: 1381647190 1370399816 [ Run 91 of 100 GA/GALS ]
Beginning LAMARCKIAN GENETIC ALGORITHM (LGA), with a maximum of 2500000 energy evaluations.

Final-Value: -13.510


	FINAL GENETIC ALGORITHM DOCKED STATE
	_______________________________________________


Detailed state:  trans 16.505 -12.873 -1.563 quatxyzw 0.483142 -0.625251 0.592320 0.157455 center 0.154 0.111 -0.146 ntor 7 -19.0220 174.3792 48.7330 131.8763 20.2930 -149.4333 -169.3504
State:	 16.505 -12.873  -1.563   0.489 -0.633  0.600 161.882    -19.02  174.38   48.73  131.88   20.29 -149.43 -169.35

DOCKED: MODEL       91
DOCKED: USER    Run = 91
DOCKED: USER    DPF = ligand_dock.biased.dpf
DOCKED: USER  
DOCKED: USER    Estimated Free Energy of Binding    =   -9.30 kcal/mol  [=(1)+(2)+(3)-(4)]
DOCKED: USER    Estimated Inhibition Constant, Ki   =  151.80 nM (nanomolar)  [Temperature = 298.15 K]
DOCKED: USER    
DOCKED: USER    (1) Final Intermolecular Energy     =  -11.39 kcal/mol
DOCKED: USER        vdW + Hbond + desolv Energy     =  -11.39 kcal/mol
DOCKED: USER        Electrostatic Energy            =   +0.00 kcal/mol
DOCKED: USER    (2) Final Total Internal Energy     =   -2.12 kcal/mol
DOCKED: USER    (3) Torsional Free Energy           =   +2.09 kcal/mol
DOCKED: USER    (4) Unbound System's Energy  [=(2)] =   -2.12 kcal/mol
DOCKED: USER    
DOCKED: USER    
DOCKED: USER    NEWDPF move ligand.pdbqt
DOCKED: USER    NEWDPF about 0.154000 0.111000 -0.146000
DOCKED: USER    NEWDPF tran0 16.504896 -12.873414 -1.562708
DOCKED: USER    NEWDPF quaternion0 0.483142 -0.625251 0.592320 0.157455
DOCKED: USER    NEWDPF axisangle0 0.489245 -0.633149 0.599802 161.881548
DOCKED: USER    NEWDPF quat0 0.489245 -0.633149 0.599802 161.881548
DOCKED: USER    NEWDPF dihe0 -19.02 174.38 48.73 131.88 20.29 -149.43 -169.35 
DOCKED: USER  keepresnum = 1 
DOCKED: USER  
DOCKED: REMARK  Name = 
DOCKED: REMARK  7 active torsions:
DOCKED: REMARK  status: ('A' for Active; 'I' for Inactive)
DOCKED: REMARK    1  A    between atoms: C_2  and  C_5
DOCKED: REMARK    2  A    between atoms: N_3  and  O_4
DOCKED: REMARK    3  A    between atoms: C_5  and  C_6
DOCKED: REMARK    4  A    between atoms: C_6  and  C_7
DOCKED: REMARK    5  A    between atoms: C_7  and  C_8
DOCKED: REMARK    6  A    between atoms: C_8  and  C_9
DOCKED: REMARK    7  A    between atoms: C_9  and  N_10
DOCKED: REMARK                            x       y       z     vdW  Elec       q    Type
DOCKED: REMARK                         _______ _______ _______ _____ _____    ______ ____
DOCKED: USER                              x       y       z     vdW  Elec       q    Type
DOCKED: USER                           _______ _______ _______ _____ _____    ______ ____
DOCKED: ROOT
DOCKED: ATOM      1  N   UNL     1      16.212 -11.582  -0.862 -0.33 +0.00    +0.000 N 
DOCKED: ATOM      2  C   UNL     1      15.602 -10.811  -1.915 -0.30 -0.00    +0.000 C 
DOCKED: ATOM      3  C   UNL     1      16.448 -10.107  -2.905 -0.23 -0.00    +0.000 A 
DOCKED: ATOM      4  C   UNL     1      15.862  -9.372  -3.951 -0.18 -0.00    +0.000 A 
DOCKED: ATOM      5  C   UNL     1      16.659  -8.710  -4.887 -0.14 -0.00    +0.000 A 
DOCKED: ATOM      6  C   UNL     1      18.049  -8.769  -4.794 -0.17 -0.00    +0.000 A 
DOCKED: ATOM      7  C   UNL     1      18.657  -9.494  -3.759 -0.22 -0.00    +0.000 A 
DOCKED: ATOM      8  C   UNL     1      20.055  -9.552  -3.665 -0.33 -0.00    +0.000 A 
DOCKED: ATOM      9  C   UNL     1      20.659 -10.271  -2.635 -0.48 -0.00    +0.000 A 
DOCKED: ATOM     10  C   UNL     1      19.880 -10.940  -1.690 -0.34 -0.00    +0.000 A 
DOCKED: ATOM     11  C   UNL     1      18.476 -10.897  -1.763 -0.33 -0.00    +0.000 A 
DOCKED: ATOM     12  C   UNL     1      17.856 -10.171  -2.803 -0.21 -0.00    +0.000 A 
DOCKED: ATOM     13  O   UNL     1      14.344 -10.734  -1.994 -0.31 -0.00    +0.000 OA
DOCKED: ATOM     14  C   UNL     1      17.650 -11.608  -0.760 -0.39 -0.00    +0.000 C 
DOCKED: ATOM     15  O   UNL     1      18.209 -12.233   0.182 -0.60 -0.00    +0.000 OA
DOCKED: ENDROOT
DOCKED: BRANCH   1  16
DOCKED: ATOM     16  C   UNL     1      15.373 -12.356   0.069 -0.52 +0.00    +0.000 C 
DOCKED: BRANCH  16  17
DOCKED: ATOM     17  C   UNL     1      15.045 -11.551   1.338 -0.45 +0.00    +0.000 C 
DOCKED: BRANCH  17  18
DOCKED: ATOM     18  C   UNL     1      16.119 -11.643   2.439 -0.42 +0.00    +0.000 C 
DOCKED: BRANCH  18  19
DOCKED: ATOM     19  C   UNL     1      17.229 -10.575   2.349 -0.49 +0.00    +0.000 C 
DOCKED: BRANCH  19  20
DOCKED: ATOM     20  C   UNL     1      18.502 -10.909   3.143 -0.54 -0.00    +0.000 C 
DOCKED: BRANCH  20  22
DOCKED: ATOM     21  O   UNL     1      20.078 -12.394   2.132 -1.67 -0.00    +0.000 OA
DOCKED: ATOM     22  C   UNL     1      19.666 -11.208   2.242 -0.72 -0.00    +0.000 C 
DOCKED: ATOM     23  N   UNL     1      20.327 -10.154   1.538 -0.51 -0.00    +0.000 N 
DOCKED: ATOM     24  H   UNL     1      20.008  -9.228   1.633 -0.33 -0.00    +0.000 HD
DOCKED: BRANCH  23  25
DOCKED: ATOM     25  O   UNL     1      21.391 -10.419   0.743 -0.70 -0.00    +0.000 OA
DOCKED: ATOM     26  H   UNL     1      21.764 -11.283   0.979 -0.49 -0.00    +0.000 HD
DOCKED: ENDBRANCH  23  25
DOCKED: ENDBRANCH  20  22
DOCKED: ENDBRANCH  19  20
DOCKED: ENDBRANCH  18  19
DOCKED: ENDBRANCH  17  18
DOCKED: ENDBRANCH  16  17
DOCKED: ENDBRANCH   1  16
DOCKED: TORSDOF 7
DOCKED: TER
DOCKED: ENDMDL
________________________________________________________________________________


	BEGINNING GENETIC ALGORITHM DOCKING 92 of 100
Run: 92 Seed: 1731796111 1258965359 [ Run 92 of 100 GA/GALS ]
Beginning LAMARCKIAN GENETIC ALGORITHM (LGA), with a maximum of 2500000 energy evaluations.

Final-Value: -13.704


	FINAL GENETIC ALGORITHM DOCKED STATE
	_______________________________________________


Detailed state:  trans 16.304 -9.922 -0.760 quatxyzw -0.080845 -0.761835 -0.626526 0.143305 center 0.154 0.111 -0.146 ntor 7 22.7304 179.3959 151.2119 -36.2645 42.0031 168.9377 1.6825
State:	 16.304  -9.922  -0.760  -0.082 -0.770 -0.633 163.522     22.73  179.40  151.21  -36.26   42.00  168.94    1.68

DOCKED: MODEL       92
DOCKED: USER    Run = 92
DOCKED: USER    DPF = ligand_dock.biased.dpf
DOCKED: USER  
DOCKED: USER    Estimated Free Energy of Binding    =   -8.99 kcal/mol  [=(1)+(2)+(3)-(4)]
DOCKED: USER    Estimated Inhibition Constant, Ki   =  258.22 nM (nanomolar)  [Temperature = 298.15 K]
DOCKED: USER    
DOCKED: USER    (1) Final Intermolecular Energy     =  -11.08 kcal/mol
DOCKED: USER        vdW + Hbond + desolv Energy     =  -11.08 kcal/mol
DOCKED: USER        Electrostatic Energy            =   +0.00 kcal/mol
DOCKED: USER    (2) Final Total Internal Energy     =   -2.63 kcal/mol
DOCKED: USER    (3) Torsional Free Energy           =   +2.09 kcal/mol
DOCKED: USER    (4) Unbound System's Energy  [=(2)] =   -2.63 kcal/mol
DOCKED: USER    
DOCKED: USER    
DOCKED: USER    NEWDPF move ligand.pdbqt
DOCKED: USER    NEWDPF about 0.154000 0.111000 -0.146000
DOCKED: USER    NEWDPF tran0 16.304283 -9.922276 -0.759951
DOCKED: USER    NEWDPF quaternion0 -0.080845 -0.761835 -0.626526 0.143305
DOCKED: USER    NEWDPF axisangle0 -0.081688 -0.769781 -0.633060 163.521680
DOCKED: USER    NEWDPF quat0 -0.081688 -0.769781 -0.633060 163.521680
DOCKED: USER    NEWDPF dihe0 22.73 179.40 151.21 -36.26 42.00 168.94 1.68 
DOCKED: USER  keepresnum = 1 
DOCKED: USER  
DOCKED: REMARK  Name = 
DOCKED: REMARK  7 active torsions:
DOCKED: REMARK  status: ('A' for Active; 'I' for Inactive)
DOCKED: REMARK    1  A    between atoms: C_2  and  C_5
DOCKED: REMARK    2  A    between atoms: N_3  and  O_4
DOCKED: REMARK    3  A    between atoms: C_5  and  C_6
DOCKED: REMARK    4  A    between atoms: C_6  and  C_7
DOCKED: REMARK    5  A    between atoms: C_7  and  C_8
DOCKED: REMARK    6  A    between atoms: C_8  and  C_9
DOCKED: REMARK    7  A    between atoms: C_9  and  N_10
DOCKED: REMARK                            x       y       z     vdW  Elec       q    Type
DOCKED: REMARK                         _______ _______ _______ _____ _____    ______ ____
DOCKED: USER                              x       y       z     vdW  Elec       q    Type
DOCKED: USER                           _______ _______ _______ _____ _____    ______ ____
DOCKED: ROOT
DOCKED: ATOM      1  N   UNL     1      16.557 -11.335  -1.191 -0.28 -0.00    +0.000 N 
DOCKED: ATOM      2  C   UNL     1      16.957 -11.950   0.048 -0.48 +0.00    +0.000 C 
DOCKED: ATOM      3  C   UNL     1      18.354 -11.822   0.524 -0.49 -0.00    +0.000 A 
DOCKED: ATOM      4  C   UNL     1      18.748 -12.399   1.744 -0.39 -0.00    +0.000 A 
DOCKED: ATOM      5  C   UNL     1      20.063 -12.277   2.195 -0.61 -0.00    +0.000 A 
DOCKED: ATOM      6  C   UNL     1      21.005 -11.581   1.437 -0.52 -0.00    +0.000 A 
DOCKED: ATOM      7  C   UNL     1      20.636 -10.998   0.216 -0.59 -0.00    +0.000 A 
DOCKED: ATOM      8  C   UNL     1      21.583 -10.299  -0.546 -0.60 -0.00    +0.000 A 
DOCKED: ATOM      9  C   UNL     1      21.217  -9.722  -1.762 -0.54 -0.00    +0.000 A 
DOCKED: ATOM     10  C   UNL     1      19.907  -9.833  -2.229 -0.36 -0.00    +0.000 A 
DOCKED: ATOM     11  C   UNL     1      18.939 -10.529  -1.483 -0.34 -0.00    +0.000 A 
DOCKED: ATOM     12  C   UNL     1      19.301 -11.117  -0.251 -0.48 -0.00    +0.000 A 
DOCKED: ATOM     13  O   UNL     1      16.118 -12.601   0.730 -1.02 +0.00    +0.000 OA
DOCKED: ATOM     14  C   UNL     1      17.548 -10.645  -1.979 -0.23 -0.00    +0.000 C 
DOCKED: ATOM     15  O   UNL     1      17.237 -10.141  -3.092 -0.30 -0.00    +0.000 OA
DOCKED: ENDROOT
DOCKED: BRANCH   1  16
DOCKED: ATOM     16  C   UNL     1      15.149 -11.384  -1.620 -0.33 -0.00    +0.000 C 
DOCKED: BRANCH  16  17
DOCKED: ATOM     17  C   UNL     1      14.289 -10.362  -0.856 -0.28 +0.00    +0.000 C 
DOCKED: BRANCH  17  18
DOCKED: ATOM     18  C   UNL     1      13.037 -10.964  -0.190 -0.33 +0.00    +0.000 C 
DOCKED: BRANCH  18  19
DOCKED: ATOM     19  C   UNL     1      13.077 -10.995   1.352 -0.37 +0.00    +0.000 C 
DOCKED: BRANCH  19  20
DOCKED: ATOM     20  C   UNL     1      13.901  -9.866   1.992 -0.27 +0.00    +0.000 C 
DOCKED: BRANCH  20  22
DOCKED: ATOM     21  O   UNL     1      14.091  -9.967   4.372 -0.44 +0.00    +0.000 OA
DOCKED: ATOM     22  C   UNL     1      14.574 -10.309   3.260 -0.42 +0.00    +0.000 C 
DOCKED: ATOM     23  N   UNL     1      15.773 -11.086   3.210 -0.49 +0.00    +0.000 N 
DOCKED: ATOM     24  H   UNL     1      16.152 -11.344   2.340 -0.01 +0.00    +0.000 HD
DOCKED: BRANCH  23  25
DOCKED: ATOM     25  O   UNL     1      16.393 -11.467   4.353 -0.54 +0.00    +0.000 OA
DOCKED: ATOM     26  H   UNL     1      15.756 -11.464   5.084 -0.34 +0.00    +0.000 HD
DOCKED: ENDBRANCH  23  25
DOCKED: ENDBRANCH  20  22
DOCKED: ENDBRANCH  19  20
DOCKED: ENDBRANCH  18  19
DOCKED: ENDBRANCH  17  18
DOCKED: ENDBRANCH  16  17
DOCKED: ENDBRANCH   1  16
DOCKED: TORSDOF 7
DOCKED: TER
DOCKED: ENDMDL
________________________________________________________________________________


	BEGINNING GENETIC ALGORITHM DOCKING 93 of 100
Run: 93 Seed: 1585755280 1648146367 [ Run 93 of 100 GA/GALS ]
Beginning LAMARCKIAN GENETIC ALGORITHM (LGA), with a maximum of 2500000 energy evaluations.

Final-Value: -14.218


	FINAL GENETIC ALGORITHM DOCKED STATE
	_______________________________________________


Detailed state:  trans 19.193 -9.620 0.592 quatxyzw 0.419321 -0.022764 -0.304916 0.854797 center 0.154 0.111 -0.146 ntor 7 6.0283 76.1937 122.9377 -172.2673 -39.4965 -179.9135 25.5446
State:	 19.193  -9.620   0.592   0.808 -0.044 -0.588 62.525      6.03   76.19  122.94 -172.27  -39.50 -179.91   25.54

DOCKED: MODEL       93
DOCKED: USER    Run = 93
DOCKED: USER    DPF = ligand_dock.biased.dpf
DOCKED: USER  
DOCKED: USER    Estimated Free Energy of Binding    =   -9.80 kcal/mol  [=(1)+(2)+(3)-(4)]
DOCKED: USER    Estimated Inhibition Constant, Ki   =   65.68 nM (nanomolar)  [Temperature = 298.15 K]
DOCKED: USER    
DOCKED: USER    (1) Final Intermolecular Energy     =  -11.89 kcal/mol
DOCKED: USER        vdW + Hbond + desolv Energy     =  -11.89 kcal/mol
DOCKED: USER        Electrostatic Energy            =   +0.00 kcal/mol
DOCKED: USER    (2) Final Total Internal Energy     =   -2.33 kcal/mol
DOCKED: USER    (3) Torsional Free Energy           =   +2.09 kcal/mol
DOCKED: USER    (4) Unbound System's Energy  [=(2)] =   -2.33 kcal/mol
DOCKED: USER    
DOCKED: USER    
DOCKED: USER    NEWDPF move ligand.pdbqt
DOCKED: USER    NEWDPF about 0.154000 0.111000 -0.146000
DOCKED: USER    NEWDPF tran0 19.193318 -9.619597 0.592004
DOCKED: USER    NEWDPF quaternion0 0.419321 -0.022764 -0.304916 0.854797
DOCKED: USER    NEWDPF axisangle0 0.807999 -0.043864 -0.587549 62.525341
DOCKED: USER    NEWDPF quat0 0.807999 -0.043864 -0.587549 62.525341
DOCKED: USER    NEWDPF dihe0 6.03 76.19 122.94 -172.27 -39.50 -179.91 25.54 
DOCKED: USER  keepresnum = 1 
DOCKED: USER  
DOCKED: REMARK  Name = 
DOCKED: REMARK  7 active torsions:
DOCKED: REMARK  status: ('A' for Active; 'I' for Inactive)
DOCKED: REMARK    1  A    between atoms: C_2  and  C_5
DOCKED: REMARK    2  A    between atoms: N_3  and  O_4
DOCKED: REMARK    3  A    between atoms: C_5  and  C_6
DOCKED: REMARK    4  A    between atoms: C_6  and  C_7
DOCKED: REMARK    5  A    between atoms: C_7  and  C_8
DOCKED: REMARK    6  A    between atoms: C_8  and  C_9
DOCKED: REMARK    7  A    between atoms: C_9  and  N_10
DOCKED: REMARK                            x       y       z     vdW  Elec       q    Type
DOCKED: REMARK                         _______ _______ _______ _____ _____    ______ ____
DOCKED: USER                              x       y       z     vdW  Elec       q    Type
DOCKED: USER                           _______ _______ _______ _____ _____    ______ ____
DOCKED: ROOT
DOCKED: ATOM      1  N   UNL     1      19.334 -11.110   0.529 -0.51 -0.00    +0.000 N 
DOCKED: ATOM      2  C   UNL     1      18.324 -11.457  -0.438 -0.49 -0.00    +0.000 C 
DOCKED: ATOM      3  C   UNL     1      16.909 -11.586  -0.021 -0.38 +0.00    +0.000 A 
DOCKED: ATOM      4  C   UNL     1      15.913 -11.900  -0.962 -0.24 +0.00    +0.000 A 
DOCKED: ATOM      5  C   UNL     1      14.578 -12.018  -0.571 -0.41 +0.00    +0.000 A 
DOCKED: ATOM      6  C   UNL     1      14.217 -11.828   0.763 -0.40 +0.00    +0.000 A 
DOCKED: ATOM      7  C   UNL     1      15.192 -11.514   1.720 -0.41 +0.00    +0.000 A 
DOCKED: ATOM      8  C   UNL     1      14.828 -11.324   3.061 -0.43 +0.00    +0.000 A 
DOCKED: ATOM      9  C   UNL     1      15.798 -11.015   4.013 -0.49 +0.00    +0.000 A 
DOCKED: ATOM     10  C   UNL     1      17.138 -10.892   3.642 -0.28 +0.00    +0.000 A 
DOCKED: ATOM     11  C   UNL     1      17.528 -11.079   2.304 -0.42 +0.00    +0.000 A 
DOCKED: ATOM     12  C   UNL     1      16.551 -11.392   1.332 -0.39 +0.00    +0.000 A 
DOCKED: ATOM     13  O   UNL     1      18.645 -11.654  -1.643 -0.43 -0.00    +0.000 OA
DOCKED: ATOM     14  C   UNL     1      18.949 -10.947   1.910 -0.61 -0.00    +0.000 C 
DOCKED: ATOM     15  O   UNL     1      19.821 -10.692   2.786 -0.83 -0.00    +0.000 OA
DOCKED: ENDROOT
DOCKED: BRANCH   1  16
DOCKED: ATOM     16  C   UNL     1      20.725 -10.893   0.100 -0.68 -0.00    +0.000 C 
DOCKED: BRANCH  16  17
DOCKED: ATOM     17  C   UNL     1      21.059  -9.395   0.002 -0.57 -0.00    +0.000 C 
DOCKED: BRANCH  17  18
DOCKED: ATOM     18  C   UNL     1      21.400  -8.915  -1.422 -0.55 -0.00    +0.000 C 
DOCKED: BRANCH  18  19
DOCKED: ATOM     19  C   UNL     1      20.707  -9.705  -2.552 -0.52 -0.00    +0.000 C 
DOCKED: BRANCH  19  20
DOCKED: ATOM     20  C   UNL     1      21.631 -10.661  -3.323 -0.45 -0.00    +0.000 C 
DOCKED: BRANCH  20  22
DOCKED: ATOM     21  O   UNL     1      21.600 -11.708  -5.471 -0.62 -0.00    +0.000 OA
DOCKED: ATOM     22  C   UNL     1      20.929 -11.310  -4.481 -0.49 -0.00    +0.000 C 
DOCKED: ATOM     23  N   UNL     1      19.506 -11.448  -4.482 -0.45 -0.00    +0.000 N 
DOCKED: ATOM     24  H   UNL     1      18.985 -11.129  -3.711 -0.01 -0.00    +0.000 HD
DOCKED: BRANCH  23  25
DOCKED: ATOM     25  O   UNL     1      18.870 -12.013  -5.536 -0.41 -0.00    +0.000 OA
DOCKED: ATOM     26  H   UNL     1      19.526 -12.357  -6.163 -0.42 -0.00    +0.000 HD
DOCKED: ENDBRANCH  23  25
DOCKED: ENDBRANCH  20  22
DOCKED: ENDBRANCH  19  20
DOCKED: ENDBRANCH  18  19
DOCKED: ENDBRANCH  17  18
DOCKED: ENDBRANCH  16  17
DOCKED: ENDBRANCH   1  16
DOCKED: TORSDOF 7
DOCKED: TER
DOCKED: ENDMDL
________________________________________________________________________________


	BEGINNING GENETIC ALGORITHM DOCKING 94 of 100
Run: 94 Seed: 1583789675 833906741 [ Run 94 of 100 GA/GALS ]
Beginning LAMARCKIAN GENETIC ALGORITHM (LGA), with a maximum of 2500000 energy evaluations.

Final-Value: -15.154


	FINAL GENETIC ALGORITHM DOCKED STATE
	_______________________________________________


Detailed state:  trans 16.878 -10.832 0.545 quatxyzw 0.539456 -0.260305 -0.126089 0.790779 center 0.154 0.111 -0.146 ntor 7 -9.7837 5.9186 -76.8770 -147.4187 53.0621 3.1471 3.9951
State:	 16.878 -10.832   0.545   0.881 -0.425 -0.206 75.483     -9.78    5.92  -76.88 -147.42   53.06    3.15    4.00

DOCKED: MODEL       94
DOCKED: USER    Run = 94
DOCKED: USER    DPF = ligand_dock.biased.dpf
DOCKED: USER  
DOCKED: USER    Estimated Free Energy of Binding    =  -10.57 kcal/mol  [=(1)+(2)+(3)-(4)]
DOCKED: USER    Estimated Inhibition Constant, Ki   =   17.99 nM (nanomolar)  [Temperature = 298.15 K]
DOCKED: USER    
DOCKED: USER    (1) Final Intermolecular Energy     =  -12.65 kcal/mol
DOCKED: USER        vdW + Hbond + desolv Energy     =  -12.65 kcal/mol
DOCKED: USER        Electrostatic Energy            =   +0.00 kcal/mol
DOCKED: USER    (2) Final Total Internal Energy     =   -2.50 kcal/mol
DOCKED: USER    (3) Torsional Free Energy           =   +2.09 kcal/mol
DOCKED: USER    (4) Unbound System's Energy  [=(2)] =   -2.50 kcal/mol
DOCKED: USER    
DOCKED: USER    
DOCKED: USER    NEWDPF move ligand.pdbqt
DOCKED: USER    NEWDPF about 0.154000 0.111000 -0.146000
DOCKED: USER    NEWDPF tran0 16.877714 -10.831603 0.544916
DOCKED: USER    NEWDPF quaternion0 0.539456 -0.260305 -0.126089 0.790779
DOCKED: USER    NEWDPF axisangle0 0.881316 -0.425263 -0.205994 75.483337
DOCKED: USER    NEWDPF quat0 0.881316 -0.425263 -0.205994 75.483337
DOCKED: USER    NEWDPF dihe0 -9.78 5.92 -76.88 -147.42 53.06 3.15 4.00 
DOCKED: USER  keepresnum = 1 
DOCKED: USER  
DOCKED: REMARK  Name = 
DOCKED: REMARK  7 active torsions:
DOCKED: REMARK  status: ('A' for Active; 'I' for Inactive)
DOCKED: REMARK    1  A    between atoms: C_2  and  C_5
DOCKED: REMARK    2  A    between atoms: N_3  and  O_4
DOCKED: REMARK    3  A    between atoms: C_5  and  C_6
DOCKED: REMARK    4  A    between atoms: C_6  and  C_7
DOCKED: REMARK    5  A    between atoms: C_7  and  C_8
DOCKED: REMARK    6  A    between atoms: C_8  and  C_9
DOCKED: REMARK    7  A    between atoms: C_9  and  N_10
DOCKED: REMARK                            x       y       z     vdW  Elec       q    Type
DOCKED: REMARK                         _______ _______ _______ _____ _____    ______ ____
DOCKED: USER                              x       y       z     vdW  Elec       q    Type
DOCKED: USER                           _______ _______ _______ _____ _____    ______ ____
DOCKED: ROOT
DOCKED: ATOM      1  N   UNL     1      16.391 -12.126   1.122 -0.44 +0.00    +0.000 N 
DOCKED: ATOM      2  C   UNL     1      15.106 -12.264   0.486 -0.50 +0.00    +0.000 C 
DOCKED: ATOM      3  C   UNL     1      13.928 -11.552   1.031 -0.39 +0.00    +0.000 A 
DOCKED: ATOM      4  C   UNL     1      12.675 -11.661   0.402 -0.36 +0.00    +0.000 A 
DOCKED: ATOM      5  C   UNL     1      11.563 -10.988   0.913 -0.32 +0.00    +0.000 A 
DOCKED: ATOM      6  C   UNL     1      11.683 -10.200   2.057 -0.16 +0.00    +0.000 A 
DOCKED: ATOM      7  C   UNL     1      12.922 -10.076   2.702 -0.20 +0.00    +0.000 A 
DOCKED: ATOM      8  C   UNL     1      13.042  -9.284   3.853 -0.23 +0.00    +0.000 A 
DOCKED: ATOM      9  C   UNL     1      14.273  -9.163   4.496 -0.37 +0.00    +0.000 A 
DOCKED: ATOM     10  C   UNL     1      15.395  -9.828   4.001 -0.40 +0.00    +0.000 A 
DOCKED: ATOM     11  C   UNL     1      15.301 -10.628   2.848 -0.41 +0.00    +0.000 A 
DOCKED: ATOM     12  C   UNL     1      14.057 -10.756   2.190 -0.33 +0.00    +0.000 A 
DOCKED: ATOM     13  O   UNL     1      14.983 -12.993  -0.537 -0.64 +0.00    +0.000 OA
DOCKED: ATOM     14  C   UNL     1      16.493 -11.332   2.322 -0.44 +0.00    +0.000 C 
DOCKED: ATOM     15  O   UNL     1      17.595 -11.235   2.928 -0.52 +0.00    +0.000 OA
DOCKED: ENDROOT
DOCKED: BRANCH   1  16
DOCKED: ATOM     16  C   UNL     1      17.582 -12.759   0.530 -0.49 +0.00    +0.000 C 
DOCKED: BRANCH  16  17
DOCKED: ATOM     17  C   UNL     1      18.144 -11.927  -0.635 -0.45 -0.00    +0.000 C 
DOCKED: BRANCH  17  18
DOCKED: ATOM     18  C   UNL     1      18.732 -10.566  -0.213 -0.38 -0.00    +0.000 C 
DOCKED: BRANCH  18  19
DOCKED: ATOM     19  C   UNL     1      20.212 -10.356  -0.593 -0.60 -0.00    +0.000 C 
DOCKED: BRANCH  19  20
DOCKED: ATOM     20  C   UNL     1      21.217 -11.005   0.371 -0.56 -0.00    +0.000 C 
DOCKED: BRANCH  20  22
DOCKED: ATOM     21  O   UNL     1      19.974 -12.507   1.753 -1.68 -0.00    +0.000 OA
DOCKED: ATOM     22  C   UNL     1      20.576 -11.403   1.670 -0.76 -0.00    +0.000 C 
DOCKED: ATOM     23  N   UNL     1      20.616 -10.524   2.797 -0.62 -0.00    +0.000 N 
DOCKED: ATOM     24  H   UNL     1      21.079  -9.660   2.726 -0.58 -0.00    +0.000 HD
DOCKED: BRANCH  23  25
DOCKED: ATOM     25  O   UNL     1      20.018 -10.872   3.962 -0.77 -0.00    +0.000 OA
DOCKED: ATOM     26  H   UNL     1      19.481 -11.669   3.825 -0.04 -0.00    +0.000 HD
DOCKED: ENDBRANCH  23  25
DOCKED: ENDBRANCH  20  22
DOCKED: ENDBRANCH  19  20
DOCKED: ENDBRANCH  18  19
DOCKED: ENDBRANCH  17  18
DOCKED: ENDBRANCH  16  17
DOCKED: ENDBRANCH   1  16
DOCKED: TORSDOF 7
DOCKED: TER
DOCKED: ENDMDL
________________________________________________________________________________


	BEGINNING GENETIC ALGORITHM DOCKING 95 of 100
Run: 95 Seed: 1444333388 566818666 [ Run 95 of 100 GA/GALS ]
Beginning LAMARCKIAN GENETIC ALGORITHM (LGA), with a maximum of 2500000 energy evaluations.

Final-Value: -13.662


	FINAL GENETIC ALGORITHM DOCKED STATE
	_______________________________________________


Detailed state:  trans 15.249 -10.494 0.800 quatxyzw 0.296940 0.682128 0.473393 0.471623 center 0.154 0.111 -0.146 ntor 7 113.7627 145.9598 33.8689 -157.9218 -152.0252 -14.6652 -16.9252
State:	 15.249 -10.494   0.800   0.337  0.774  0.537 123.721    113.76  145.96   33.87 -157.92 -152.03  -14.67  -16.93

DOCKED: MODEL       95
DOCKED: USER    Run = 95
DOCKED: USER    DPF = ligand_dock.biased.dpf
DOCKED: USER  
DOCKED: USER    Estimated Free Energy of Binding    =   -8.88 kcal/mol  [=(1)+(2)+(3)-(4)]
DOCKED: USER    Estimated Inhibition Constant, Ki   =  307.80 nM (nanomolar)  [Temperature = 298.15 K]
DOCKED: USER    
DOCKED: USER    (1) Final Intermolecular Energy     =  -10.97 kcal/mol
DOCKED: USER        vdW + Hbond + desolv Energy     =  -10.97 kcal/mol
DOCKED: USER        Electrostatic Energy            =   +0.00 kcal/mol
DOCKED: USER    (2) Final Total Internal Energy     =   -2.69 kcal/mol
DOCKED: USER    (3) Torsional Free Energy           =   +2.09 kcal/mol
DOCKED: USER    (4) Unbound System's Energy  [=(2)] =   -2.69 kcal/mol
DOCKED: USER    
DOCKED: USER    
DOCKED: USER    NEWDPF move ligand.pdbqt
DOCKED: USER    NEWDPF about 0.154000 0.111000 -0.146000
DOCKED: USER    NEWDPF tran0 15.249180 -10.493906 0.800172
DOCKED: USER    NEWDPF quaternion0 0.296940 0.682128 0.473393 0.471623
DOCKED: USER    NEWDPF axisangle0 0.336743 0.773562 0.536848 123.720630
DOCKED: USER    NEWDPF quat0 0.336743 0.773562 0.536848 123.720630
DOCKED: USER    NEWDPF dihe0 113.76 145.96 33.87 -157.92 -152.03 -14.67 -16.93 
DOCKED: USER  keepresnum = 1 
DOCKED: USER  
DOCKED: REMARK  Name = 
DOCKED: REMARK  7 active torsions:
DOCKED: REMARK  status: ('A' for Active; 'I' for Inactive)
DOCKED: REMARK    1  A    between atoms: C_2  and  C_5
DOCKED: REMARK    2  A    between atoms: N_3  and  O_4
DOCKED: REMARK    3  A    between atoms: C_5  and  C_6
DOCKED: REMARK    4  A    between atoms: C_6  and  C_7
DOCKED: REMARK    5  A    between atoms: C_7  and  C_8
DOCKED: REMARK    6  A    between atoms: C_8  and  C_9
DOCKED: REMARK    7  A    between atoms: C_9  and  N_10
DOCKED: REMARK                            x       y       z     vdW  Elec       q    Type
DOCKED: REMARK                         _______ _______ _______ _____ _____    ______ ____
DOCKED: USER                              x       y       z     vdW  Elec       q    Type
DOCKED: USER                           _______ _______ _______ _____ _____    ______ ____
DOCKED: ROOT
DOCKED: ATOM      1  N   UNL     1      15.289 -11.813   0.091 -0.38 +0.00    +0.000 N 
DOCKED: ATOM      2  C   UNL     1      16.704 -11.996  -0.105 -0.48 +0.00    +0.000 C 
DOCKED: ATOM      3  C   UNL     1      17.387 -11.339  -1.243 -0.17 -0.00    +0.000 A 
DOCKED: ATOM      4  C   UNL     1      18.772 -11.491  -1.429 -0.30 -0.00    +0.000 A 
DOCKED: ATOM      5  C   UNL     1      19.417 -10.870  -2.499 -0.39 -0.00    +0.000 A 
DOCKED: ATOM      6  C   UNL     1      18.693 -10.090  -3.401 -0.29 -0.00    +0.000 A 
DOCKED: ATOM      7  C   UNL     1      17.310  -9.924  -3.237 -0.20 -0.00    +0.000 A 
DOCKED: ATOM      8  C   UNL     1      16.582  -9.141  -4.144 -0.18 -0.00    +0.000 A 
DOCKED: ATOM      9  C   UNL     1      15.207  -8.977  -3.983 -0.16 -0.00    +0.000 A 
DOCKED: ATOM     10  C   UNL     1      14.544  -9.590  -2.919 -0.20 -0.00    +0.000 A 
DOCKED: ATOM     11  C   UNL     1      15.252 -10.381  -1.996 -0.26 -0.00    +0.000 A 
DOCKED: ATOM     12  C   UNL     1      16.646 -10.551  -2.152 -0.20 -0.00    +0.000 A 
DOCKED: ATOM     13  O   UNL     1      17.365 -12.718   0.692 -0.94 +0.00    +0.000 OA
DOCKED: ATOM     14  C   UNL     1      14.548 -11.030  -0.866 -0.34 +0.00    +0.000 C 
DOCKED: ATOM     15  O   UNL     1      13.299 -10.895  -0.747 -0.32 +0.00    +0.000 OA
DOCKED: ENDROOT
DOCKED: BRANCH   1  16
DOCKED: ATOM     16  C   UNL     1      14.625 -12.391   1.272 -0.44 +0.00    +0.000 C 
DOCKED: BRANCH  16  17
DOCKED: ATOM     17  C   UNL     1      15.236 -11.859   2.580 -0.50 +0.00    +0.000 C 
DOCKED: BRANCH  17  18
DOCKED: ATOM     18  C   UNL     1      15.377 -10.325   2.632 -0.42 +0.00    +0.000 C 
DOCKED: BRANCH  18  19
DOCKED: ATOM     19  C   UNL     1      16.642  -9.770   1.945 -0.36 +0.00    +0.000 C 
DOCKED: BRANCH  19  20
DOCKED: ATOM     20  C   UNL     1      17.854  -9.605   2.875 -0.37 -0.00    +0.000 C 
DOCKED: BRANCH  20  22
DOCKED: ATOM     21  O   UNL     1      19.252 -11.268   3.872 -0.70 -0.00    +0.000 OA
DOCKED: ATOM     22  C   UNL     1      18.780 -10.786   2.808 -0.62 -0.00    +0.000 C 
DOCKED: ATOM     23  N   UNL     1      19.153 -11.343   1.545 -0.54 -0.00    +0.000 N 
DOCKED: ATOM     24  H   UNL     1      18.789 -10.960   0.715 -0.00 -0.00    +0.000 HD
DOCKED: BRANCH  23  25
DOCKED: ATOM     25  O   UNL     1      20.005 -12.394   1.482 -1.66 -0.00    +0.000 OA
DOCKED: ATOM     26  H   UNL     1      19.536 -13.172   1.139 -0.54 -0.00    +0.000 HD
DOCKED: ENDBRANCH  23  25
DOCKED: ENDBRANCH  20  22
DOCKED: ENDBRANCH  19  20
DOCKED: ENDBRANCH  18  19
DOCKED: ENDBRANCH  17  18
DOCKED: ENDBRANCH  16  17
DOCKED: ENDBRANCH   1  16
DOCKED: TORSDOF 7
DOCKED: TER
DOCKED: ENDMDL
________________________________________________________________________________


	BEGINNING GENETIC ALGORITHM DOCKING 96 of 100
Run: 96 Seed: 1315315043 439050578 [ Run 96 of 100 GA/GALS ]
Beginning LAMARCKIAN GENETIC ALGORITHM (LGA), with a maximum of 2500000 energy evaluations.

Final-Value: -13.549


	FINAL GENETIC ALGORITHM DOCKED STATE
	_______________________________________________


Detailed state:  trans 18.570 -10.827 1.194 quatxyzw 0.142267 0.527368 0.089699 0.832825 center 0.154 0.111 -0.146 ntor 7 -6.6068 -173.1235 136.4930 89.7781 -132.3198 20.7948 0.4471
State:	 18.570 -10.827   1.194   0.257  0.953  0.162 67.220     -6.61 -173.12  136.49   89.78 -132.32   20.79    0.45

DOCKED: MODEL       96
DOCKED: USER    Run = 96
DOCKED: USER    DPF = ligand_dock.biased.dpf
DOCKED: USER  
DOCKED: USER    Estimated Free Energy of Binding    =   -8.62 kcal/mol  [=(1)+(2)+(3)-(4)]
DOCKED: USER    Estimated Inhibition Constant, Ki   =  484.07 nM (nanomolar)  [Temperature = 298.15 K]
DOCKED: USER    
DOCKED: USER    (1) Final Intermolecular Energy     =  -10.70 kcal/mol
DOCKED: USER        vdW + Hbond + desolv Energy     =  -10.70 kcal/mol
DOCKED: USER        Electrostatic Energy            =   +0.00 kcal/mol
DOCKED: USER    (2) Final Total Internal Energy     =   -2.85 kcal/mol
DOCKED: USER    (3) Torsional Free Energy           =   +2.09 kcal/mol
DOCKED: USER    (4) Unbound System's Energy  [=(2)] =   -2.85 kcal/mol
DOCKED: USER    
DOCKED: USER    
DOCKED: USER    NEWDPF move ligand.pdbqt
DOCKED: USER    NEWDPF about 0.154000 0.111000 -0.146000
DOCKED: USER    NEWDPF tran0 18.569955 -10.826736 1.193532
DOCKED: USER    NEWDPF quaternion0 0.142267 0.527368 0.089699 0.832825
DOCKED: USER    NEWDPF axisangle0 0.257014 0.952725 0.162048 67.219903
DOCKED: USER    NEWDPF quat0 0.257014 0.952725 0.162048 67.219903
DOCKED: USER    NEWDPF dihe0 -6.61 -173.12 136.49 89.78 -132.32 20.79 0.45 
DOCKED: USER  keepresnum = 1 
DOCKED: USER  
DOCKED: REMARK  Name = 
DOCKED: REMARK  7 active torsions:
DOCKED: REMARK  status: ('A' for Active; 'I' for Inactive)
DOCKED: REMARK    1  A    between atoms: C_2  and  C_5
DOCKED: REMARK    2  A    between atoms: N_3  and  O_4
DOCKED: REMARK    3  A    between atoms: C_5  and  C_6
DOCKED: REMARK    4  A    between atoms: C_6  and  C_7
DOCKED: REMARK    5  A    between atoms: C_7  and  C_8
DOCKED: REMARK    6  A    between atoms: C_8  and  C_9
DOCKED: REMARK    7  A    between atoms: C_9  and  N_10
DOCKED: REMARK                            x       y       z     vdW  Elec       q    Type
DOCKED: REMARK                         _______ _______ _______ _____ _____    ______ ____
DOCKED: USER                              x       y       z     vdW  Elec       q    Type
DOCKED: USER                           _______ _______ _______ _____ _____    ______ ____
DOCKED: ROOT
DOCKED: ATOM      1  N   UNL     1      19.080 -11.892   0.272 -0.54 -0.00    +0.000 N 
DOCKED: ATOM      2  C   UNL     1      19.659 -11.107  -0.788 -0.48 -0.00    +0.000 C 
DOCKED: ATOM      3  C   UNL     1      18.798 -10.559  -1.862 -0.33 -0.00    +0.000 A 
DOCKED: ATOM      4  C   UNL     1      19.350  -9.771  -2.887 -0.27 -0.00    +0.000 A 
DOCKED: ATOM      5  C   UNL     1      18.540  -9.251  -3.898 -0.20 -0.00    +0.000 A 
DOCKED: ATOM      6  C   UNL     1      17.169  -9.510  -3.903 -0.21 -0.00    +0.000 A 
DOCKED: ATOM      7  C   UNL     1      16.596 -10.294  -2.892 -0.19 -0.00    +0.000 A 
DOCKED: ATOM      8  C   UNL     1      15.218 -10.555  -2.898 -0.25 -0.00    +0.000 A 
DOCKED: ATOM      9  C   UNL     1      14.648 -11.337  -1.894 -0.31 -0.00    +0.000 A 
DOCKED: ATOM     10  C   UNL     1      15.441 -11.865  -0.875 -0.35 +0.00    +0.000 A 
DOCKED: ATOM     11  C   UNL     1      16.825 -11.617  -0.847 -0.27 -0.00    +0.000 A 
DOCKED: ATOM     12  C   UNL     1      17.411 -10.826  -1.860 -0.15 -0.00    +0.000 A 
DOCKED: ATOM     13  O   UNL     1      20.902 -10.886  -0.805 -0.66 -0.00    +0.000 OA
DOCKED: ATOM     14  C   UNL     1      17.667 -12.177   0.236 -0.54 -0.00    +0.000 C 
DOCKED: ATOM     15  O   UNL     1      17.143 -12.904   1.123 -1.03 +0.00    +0.000 OA
DOCKED: ENDROOT
DOCKED: BRANCH   1  16
DOCKED: ATOM     16  C   UNL     1      19.919 -12.361   1.387 -0.67 -0.00    +0.000 C 
DOCKED: BRANCH  16  17
DOCKED: ATOM     17  C   UNL     1      20.222 -11.227   2.382 -0.76 -0.00    +0.000 C 
DOCKED: BRANCH  17  18
DOCKED: ATOM     18  C   UNL     1      19.126 -11.007   3.442 -0.52 -0.00    +0.000 C 
DOCKED: BRANCH  18  19
DOCKED: ATOM     19  C   UNL     1      17.760 -10.566   2.877 -0.53 +0.00    +0.000 C 
DOCKED: BRANCH  19  20
DOCKED: ATOM     20  C   UNL     1      16.559 -10.897   3.776 -0.47 +0.00    +0.000 C 
DOCKED: BRANCH  20  22
DOCKED: ATOM     21  O   UNL     1      14.564  -9.815   3.029 -0.34 +0.00    +0.000 OA
DOCKED: ATOM     22  C   UNL     1      15.262 -10.863   3.020 -0.50 +0.00    +0.000 C 
DOCKED: ATOM     23  N   UNL     1      14.801 -12.022   2.320 -0.51 +0.00    +0.000 N 
DOCKED: ATOM     24  H   UNL     1      15.345 -12.842   2.322 -0.08 +0.00    +0.000 HD
DOCKED: BRANCH  23  25
DOCKED: ATOM     25  O   UNL     1      13.621 -12.001   1.656 -0.52 +0.00    +0.000 OA
DOCKED: ATOM     26  H   UNL     1      13.163 -11.164   1.837 -0.02 +0.00    +0.000 HD
DOCKED: ENDBRANCH  23  25
DOCKED: ENDBRANCH  20  22
DOCKED: ENDBRANCH  19  20
DOCKED: ENDBRANCH  18  19
DOCKED: ENDBRANCH  17  18
DOCKED: ENDBRANCH  16  17
DOCKED: ENDBRANCH   1  16
DOCKED: TORSDOF 7
DOCKED: TER
DOCKED: ENDMDL
________________________________________________________________________________


	BEGINNING GENETIC ALGORITHM DOCKING 97 of 100
Run: 97 Seed: 1462787653 1586363945 [ Run 97 of 100 GA/GALS ]
Beginning LAMARCKIAN GENETIC ALGORITHM (LGA), with a maximum of 2500000 energy evaluations.

Final-Value: -13.717


	FINAL GENETIC ALGORITHM DOCKED STATE
	_______________________________________________


Detailed state:  trans 19.258 -9.317 0.367 quatxyzw -0.367126 0.040526 0.327275 -0.869751 center 0.154 0.111 -0.146 ntor 7 -1.5247 -149.0628 37.3204 88.4822 -72.9874 -174.8957 -10.8056
State:	 19.258  -9.317   0.367  -0.744  0.082  0.663 -59.140     -1.52 -149.06   37.32   88.48  -72.99 -174.90  -10.81

DOCKED: MODEL       97
DOCKED: USER    Run = 97
DOCKED: USER    DPF = ligand_dock.biased.dpf
DOCKED: USER  
DOCKED: USER    Estimated Free Energy of Binding    =  -10.25 kcal/mol  [=(1)+(2)+(3)-(4)]
DOCKED: USER    Estimated Inhibition Constant, Ki   =   30.63 nM (nanomolar)  [Temperature = 298.15 K]
DOCKED: USER    
DOCKED: USER    (1) Final Intermolecular Energy     =  -12.34 kcal/mol
DOCKED: USER        vdW + Hbond + desolv Energy     =  -12.34 kcal/mol
DOCKED: USER        Electrostatic Energy            =   +0.00 kcal/mol
DOCKED: USER    (2) Final Total Internal Energy     =   -1.38 kcal/mol
DOCKED: USER    (3) Torsional Free Energy           =   +2.09 kcal/mol
DOCKED: USER    (4) Unbound System's Energy  [=(2)] =   -1.38 kcal/mol
DOCKED: USER    
DOCKED: USER    
DOCKED: USER    NEWDPF move ligand.pdbqt
DOCKED: USER    NEWDPF about 0.154000 0.111000 -0.146000
DOCKED: USER    NEWDPF tran0 19.257875 -9.317411 0.366631
DOCKED: USER    NEWDPF quaternion0 -0.367126 0.040526 0.327275 -0.869751
DOCKED: USER    NEWDPF axisangle0 -0.743937 0.082121 0.663184 -59.140495
DOCKED: USER    NEWDPF quat0 -0.743937 0.082121 0.663184 -59.140495
DOCKED: USER    NEWDPF dihe0 -1.52 -149.06 37.32 88.48 -72.99 -174.90 -10.81 
DOCKED: USER  keepresnum = 1 
DOCKED: USER  
DOCKED: REMARK  Name = 
DOCKED: REMARK  7 active torsions:
DOCKED: REMARK  status: ('A' for Active; 'I' for Inactive)
DOCKED: REMARK    1  A    between atoms: C_2  and  C_5
DOCKED: REMARK    2  A    between atoms: N_3  and  O_4
DOCKED: REMARK    3  A    between atoms: C_5  and  C_6
DOCKED: REMARK    4  A    between atoms: C_6  and  C_7
DOCKED: REMARK    5  A    between atoms: C_7  and  C_8
DOCKED: REMARK    6  A    between atoms: C_8  and  C_9
DOCKED: REMARK    7  A    between atoms: C_9  and  N_10
DOCKED: REMARK                            x       y       z     vdW  Elec       q    Type
DOCKED: REMARK                         _______ _______ _______ _____ _____    ______ ____
DOCKED: USER                              x       y       z     vdW  Elec       q    Type
DOCKED: USER                           _______ _______ _______ _____ _____    ______ ____
DOCKED: ROOT
DOCKED: ATOM      1  N   UNL     1      19.405 -10.794   0.156 -0.49 -0.00    +0.000 N 
DOCKED: ATOM      2  C   UNL     1      18.323 -11.066  -0.756 -0.45 -0.00    +0.000 C 
DOCKED: ATOM      3  C   UNL     1      16.948 -11.254  -0.241 -0.34 -0.00    +0.000 A 
DOCKED: ATOM      4  C   UNL     1      15.881 -11.496  -1.125 -0.26 +0.00    +0.000 A 
DOCKED: ATOM      5  C   UNL     1      14.584 -11.671  -0.642 -0.37 +0.00    +0.000 A 
DOCKED: ATOM      6  C   UNL     1      14.330 -11.609   0.729 -0.38 +0.00    +0.000 A 
DOCKED: ATOM      7  C   UNL     1      15.376 -11.369   1.630 -0.39 +0.00    +0.000 A 
DOCKED: ATOM      8  C   UNL     1      15.120 -11.307   3.007 -0.46 +0.00    +0.000 A 
DOCKED: ATOM      9  C   UNL     1      16.161 -11.072   3.904 -0.43 +0.00    +0.000 A 
DOCKED: ATOM     10  C   UNL     1      17.465 -10.895   3.440 -0.29 +0.00    +0.000 A 
DOCKED: ATOM     11  C   UNL     1      17.748 -10.952   2.064 -0.44 -0.00    +0.000 A 
DOCKED: ATOM     12  C   UNL     1      16.699 -11.190   1.148 -0.37 +0.00    +0.000 A 
DOCKED: ATOM     13  O   UNL     1      18.547 -11.147  -1.996 -0.40 -0.00    +0.000 OA
DOCKED: ATOM     14  C   UNL     1      19.132 -10.763   1.571 -0.60 -0.00    +0.000 C 
DOCKED: ATOM     15  O   UNL     1      20.069 -10.576   2.395 -0.84 -0.00    +0.000 OA
DOCKED: ENDROOT
DOCKED: BRANCH   1  16
DOCKED: ATOM     16  C   UNL     1      20.756 -10.517  -0.361 -0.68 -0.00    +0.000 C 
DOCKED: BRANCH  16  17
DOCKED: ATOM     17  C   UNL     1      20.794  -9.210  -1.172 -0.55 -0.00    +0.000 C 
DOCKED: BRANCH  17  18
DOCKED: ATOM     18  C   UNL     1      21.023  -9.411  -2.682 -0.52 -0.00    +0.000 C 
DOCKED: BRANCH  18  19
DOCKED: ATOM     19  C   UNL     1      21.270 -10.873  -3.109 -0.43 -0.00    +0.000 C 
DOCKED: BRANCH  19  20
DOCKED: ATOM     20  C   UNL     1      20.897 -11.184  -4.567 -0.52 -0.00    +0.000 C 
DOCKED: BRANCH  20  22
DOCKED: ATOM     21  O   UNL     1      22.665 -10.090  -5.746 -0.32 -0.00    +0.000 OA
DOCKED: ATOM     22  C   UNL     1      22.098 -11.181  -5.469 -0.49 -0.00    +0.000 C 
DOCKED: ATOM     23  N   UNL     1      22.580 -12.401  -6.039 -0.58 -0.00    +0.000 N 
DOCKED: ATOM     24  H   UNL     1      22.130 -13.249  -5.827 -0.56 -0.00    +0.000 HD
DOCKED: BRANCH  23  25
DOCKED: ATOM     25  O   UNL     1      23.649 -12.396  -6.870 -1.14 -0.00    +0.000 OA
DOCKED: ATOM     26  H   UNL     1      23.959 -11.485  -6.995 -0.04 -0.00    +0.000 HD
DOCKED: ENDBRANCH  23  25
DOCKED: ENDBRANCH  20  22
DOCKED: ENDBRANCH  19  20
DOCKED: ENDBRANCH  18  19
DOCKED: ENDBRANCH  17  18
DOCKED: ENDBRANCH  16  17
DOCKED: ENDBRANCH   1  16
DOCKED: TORSDOF 7
DOCKED: TER
DOCKED: ENDMDL
________________________________________________________________________________


	BEGINNING GENETIC ALGORITHM DOCKING 98 of 100
Run: 98 Seed: 618389442 1681504690 [ Run 98 of 100 GA/GALS ]
Beginning LAMARCKIAN GENETIC ALGORITHM (LGA), with a maximum of 2500000 energy evaluations.

Final-Value: -13.001


	FINAL GENETIC ALGORITHM DOCKED STATE
	_______________________________________________


Detailed state:  trans 16.053 -10.097 -0.558 quatxyzw -0.105577 -0.816636 -0.566942 0.023148 center 0.154 0.111 -0.146 ntor 7 -153.1842 38.9439 -22.5914 149.0441 118.1475 -150.2875 -1.2770
State:	 16.053 -10.097  -0.558  -0.106 -0.817 -0.567 177.347   -153.18   38.94  -22.59  149.04  118.15 -150.29   -1.28

DOCKED: MODEL       98
DOCKED: USER    Run = 98
DOCKED: USER    DPF = ligand_dock.biased.dpf
DOCKED: USER  
DOCKED: USER    Estimated Free Energy of Binding    =   -8.47 kcal/mol  [=(1)+(2)+(3)-(4)]
DOCKED: USER    Estimated Inhibition Constant, Ki   =  617.10 nM (nanomolar)  [Temperature = 298.15 K]
DOCKED: USER    
DOCKED: USER    (1) Final Intermolecular Energy     =  -10.56 kcal/mol
DOCKED: USER        vdW + Hbond + desolv Energy     =  -10.56 kcal/mol
DOCKED: USER        Electrostatic Energy            =   +0.00 kcal/mol
DOCKED: USER    (2) Final Total Internal Energy     =   -2.44 kcal/mol
DOCKED: USER    (3) Torsional Free Energy           =   +2.09 kcal/mol
DOCKED: USER    (4) Unbound System's Energy  [=(2)] =   -2.44 kcal/mol
DOCKED: USER    
DOCKED: USER    
DOCKED: USER    NEWDPF move ligand.pdbqt
DOCKED: USER    NEWDPF about 0.154000 0.111000 -0.146000
DOCKED: USER    NEWDPF tran0 16.052847 -10.096618 -0.558474
DOCKED: USER    NEWDPF quaternion0 -0.105577 -0.816636 -0.566942 0.023148
DOCKED: USER    NEWDPF axisangle0 -0.105605 -0.816855 -0.567094 177.347181
DOCKED: USER    NEWDPF quat0 -0.105605 -0.816855 -0.567094 177.347181
DOCKED: USER    NEWDPF dihe0 -153.18 38.94 -22.59 149.04 118.15 -150.29 -1.28 
DOCKED: USER  keepresnum = 1 
DOCKED: USER  
DOCKED: REMARK  Name = 
DOCKED: REMARK  7 active torsions:
DOCKED: REMARK  status: ('A' for Active; 'I' for Inactive)
DOCKED: REMARK    1  A    between atoms: C_2  and  C_5
DOCKED: REMARK    2  A    between atoms: N_3  and  O_4
DOCKED: REMARK    3  A    between atoms: C_5  and  C_6
DOCKED: REMARK    4  A    between atoms: C_6  and  C_7
DOCKED: REMARK    5  A    between atoms: C_7  and  C_8
DOCKED: REMARK    6  A    between atoms: C_8  and  C_9
DOCKED: REMARK    7  A    between atoms: C_9  and  N_10
DOCKED: REMARK                            x       y       z     vdW  Elec       q    Type
DOCKED: REMARK                         _______ _______ _______ _____ _____    ______ ____
DOCKED: USER                              x       y       z     vdW  Elec       q    Type
DOCKED: USER                           _______ _______ _______ _____ _____    ______ ____
DOCKED: ROOT
DOCKED: ATOM      1  N   UNL     1      16.366 -11.529  -0.867 -0.32 +0.00    +0.000 N 
DOCKED: ATOM      2  C   UNL     1      17.111 -11.922   0.302 -0.49 +0.00    +0.000 C 
DOCKED: ATOM      3  C   UNL     1      18.554 -11.605   0.403 -0.49 -0.00    +0.000 A 
DOCKED: ATOM      4  C   UNL     1      19.284 -11.963   1.551 -0.61 -0.00    +0.000 A 
DOCKED: ATOM      5  C   UNL     1      20.644 -11.662   1.649 -0.69 -0.00    +0.000 A 
DOCKED: ATOM      6  C   UNL     1      21.296 -11.003   0.607 -0.36 -0.00    +0.000 A 
DOCKED: ATOM      7  C   UNL     1      20.589 -10.637  -0.547 -0.56 -0.00    +0.000 A 
DOCKED: ATOM      8  C   UNL     1      21.245  -9.975  -1.595 -0.55 -0.00    +0.000 A 
DOCKED: ATOM      9  C   UNL     1      20.544  -9.613  -2.744 -0.44 -0.00    +0.000 A 
DOCKED: ATOM     10  C   UNL     1      19.184  -9.905  -2.862 -0.27 -0.00    +0.000 A 
DOCKED: ATOM     11  C   UNL     1      18.504 -10.568  -1.825 -0.30 -0.00    +0.000 A 
DOCKED: ATOM     12  C   UNL     1      19.207 -10.938  -0.657 -0.45 -0.00    +0.000 A 
DOCKED: ATOM     13  O   UNL     1      16.535 -12.539   1.240 -0.99 +0.00    +0.000 OA
DOCKED: ATOM     14  C   UNL     1      17.061 -10.876  -1.949 -0.12 -0.00    +0.000 C 
DOCKED: ATOM     15  O   UNL     1      16.443 -10.566  -3.004 -0.26 -0.00    +0.000 OA
DOCKED: ENDROOT
DOCKED: BRANCH   1  16
DOCKED: ATOM     16  C   UNL     1      14.914 -11.762  -0.931 -0.41 +0.00    +0.000 C 
DOCKED: BRANCH  16  17
DOCKED: ATOM     17  C   UNL     1      14.142 -10.766  -0.049 -0.31 +0.00    +0.000 C 
DOCKED: BRANCH  17  18
DOCKED: ATOM     18  C   UNL     1      13.994 -11.206   1.420 -0.40 +0.00    +0.000 C 
DOCKED: BRANCH  18  19
DOCKED: ATOM     19  C   UNL     1      13.078 -10.306   2.275 -0.29 +0.00    +0.000 C 
DOCKED: BRANCH  19  20
DOCKED: ATOM     20  C   UNL     1      13.524 -10.145   3.737 -0.27 +0.00    +0.000 C 
DOCKED: BRANCH  20  22
DOCKED: ATOM     21  O   UNL     1      15.515  -8.957   4.318 -0.39 +0.00    +0.000 OA
DOCKED: ATOM     22  C   UNL     1      15.016 -10.019   3.860 -0.47 +0.00    +0.000 C 
DOCKED: ATOM     23  N   UNL     1      15.870 -11.081   3.429 -0.51 +0.00    +0.000 N 
DOCKED: ATOM     24  H   UNL     1      15.478 -11.906   3.063 -0.04 +0.00    +0.000 HD
DOCKED: BRANCH  23  25
DOCKED: ATOM     25  O   UNL     1      17.216 -10.961   3.518 -0.55 +0.00    +0.000 OA
DOCKED: ATOM     26  H   UNL     1      17.637 -11.516   2.842 -0.01 +0.00    +0.000 HD
DOCKED: ENDBRANCH  23  25
DOCKED: ENDBRANCH  20  22
DOCKED: ENDBRANCH  19  20
DOCKED: ENDBRANCH  18  19
DOCKED: ENDBRANCH  17  18
DOCKED: ENDBRANCH  16  17
DOCKED: ENDBRANCH   1  16
DOCKED: TORSDOF 7
DOCKED: TER
DOCKED: ENDMDL
________________________________________________________________________________


	BEGINNING GENETIC ALGORITHM DOCKING 99 of 100
Run: 99 Seed: 990076614 1655268612 [ Run 99 of 100 GA/GALS ]
Beginning LAMARCKIAN GENETIC ALGORITHM (LGA), with a maximum of 2500000 energy evaluations.

Final-Value: -13.601


	FINAL GENETIC ALGORITHM DOCKED STATE
	_______________________________________________


Detailed state:  trans 20.140 -12.025 -2.106 quatxyzw -0.768443 -0.078343 0.480716 0.415054 center 0.154 0.111 -0.146 ntor 7 2.8026 33.6529 -180.0000 -180.0000 170.4244 4.1092 -175.1049
State:	 20.140 -12.025  -2.106  -0.845 -0.086  0.528 130.955      2.80   33.65 -180.00 -180.00  170.42    4.11 -175.10

DOCKED: MODEL       99
DOCKED: USER    Run = 99
DOCKED: USER    DPF = ligand_dock.biased.dpf
DOCKED: USER  
DOCKED: USER    Estimated Free Energy of Binding    =  -10.04 kcal/mol  [=(1)+(2)+(3)-(4)]
DOCKED: USER    Estimated Inhibition Constant, Ki   =   43.72 nM (nanomolar)  [Temperature = 298.15 K]
DOCKED: USER    
DOCKED: USER    (1) Final Intermolecular Energy     =  -12.13 kcal/mol
DOCKED: USER        vdW + Hbond + desolv Energy     =  -12.13 kcal/mol
DOCKED: USER        Electrostatic Energy            =   +0.00 kcal/mol
DOCKED: USER    (2) Final Total Internal Energy     =   -1.47 kcal/mol
DOCKED: USER    (3) Torsional Free Energy           =   +2.09 kcal/mol
DOCKED: USER    (4) Unbound System's Energy  [=(2)] =   -1.47 kcal/mol
DOCKED: USER    
DOCKED: USER    
DOCKED: USER    NEWDPF move ligand.pdbqt
DOCKED: USER    NEWDPF about 0.154000 0.111000 -0.146000
DOCKED: USER    NEWDPF tran0 20.140442 -12.025314 -2.106252
DOCKED: USER    NEWDPF quaternion0 -0.768443 -0.078343 0.480716 0.415054
DOCKED: USER    NEWDPF axisangle0 -0.844632 -0.086110 0.528377 130.954599
DOCKED: USER    NEWDPF quat0 -0.844632 -0.086110 0.528377 130.954599
DOCKED: USER    NEWDPF dihe0 2.80 33.65 -180.00 -180.00 170.42 4.11 -175.10 
DOCKED: USER  keepresnum = 1 
DOCKED: USER  
DOCKED: REMARK  Name = 
DOCKED: REMARK  7 active torsions:
DOCKED: REMARK  status: ('A' for Active; 'I' for Inactive)
DOCKED: REMARK    1  A    between atoms: C_2  and  C_5
DOCKED: REMARK    2  A    between atoms: N_3  and  O_4
DOCKED: REMARK    3  A    between atoms: C_5  and  C_6
DOCKED: REMARK    4  A    between atoms: C_6  and  C_7
DOCKED: REMARK    5  A    between atoms: C_7  and  C_8
DOCKED: REMARK    6  A    between atoms: C_8  and  C_9
DOCKED: REMARK    7  A    between atoms: C_9  and  N_10
DOCKED: REMARK                            x       y       z     vdW  Elec       q    Type
DOCKED: REMARK                         _______ _______ _______ _____ _____    ______ ____
DOCKED: USER                              x       y       z     vdW  Elec       q    Type
DOCKED: USER                           _______ _______ _______ _____ _____    ______ ____
DOCKED: ROOT
DOCKED: ATOM      1  N   UNL     1      20.224 -10.563  -1.792 -0.48 -0.00    +0.000 N 
DOCKED: ATOM      2  C   UNL     1      20.849 -10.578  -0.495 -0.67 -0.00    +0.000 C 
DOCKED: ATOM      3  C   UNL     1      20.035 -10.815   0.719 -0.59 -0.00    +0.000 A 
DOCKED: ATOM      4  C   UNL     1      20.640 -10.857   1.988 -0.57 -0.00    +0.000 A 
DOCKED: ATOM      5  C   UNL     1      19.873 -11.083   3.132 -0.66 -0.00    +0.000 A 
DOCKED: ATOM      6  C   UNL     1      18.495 -11.268   3.031 -0.41 -0.00    +0.000 A 
DOCKED: ATOM      7  C   UNL     1      17.869 -11.230   1.777 -0.44 -0.00    +0.000 A 
DOCKED: ATOM      8  C   UNL     1      16.482 -11.416   1.675 -0.39 +0.00    +0.000 A 
DOCKED: ATOM      9  C   UNL     1      15.859 -11.375   0.429 -0.35 +0.00    +0.000 A 
DOCKED: ATOM     10  C   UNL     1      16.607 -11.151  -0.727 -0.31 -0.00    +0.000 A 
DOCKED: ATOM     11  C   UNL     1      17.999 -10.962  -0.652 -0.36 -0.00    +0.000 A 
DOCKED: ATOM     12  C   UNL     1      18.639 -11.001   0.608 -0.46 -0.00    +0.000 A 
DOCKED: ATOM     13  O   UNL     1      22.093 -10.389  -0.391 -0.75 -0.00    +0.000 OA
DOCKED: ATOM     14  C   UNL     1      18.794 -10.725  -1.879 -0.40 -0.00    +0.000 C 
DOCKED: ATOM     15  O   UNL     1      18.214 -10.665  -2.998 -0.32 -0.00    +0.000 OA
DOCKED: ENDROOT
DOCKED: BRANCH   1  16
DOCKED: ATOM     16  C   UNL     1      21.044 -10.418  -3.007 -0.55 -0.00    +0.000 C 
DOCKED: BRANCH  16  17
DOCKED: ATOM     17  C   UNL     1      21.040  -8.969  -3.522 -0.43 -0.00    +0.000 C 
DOCKED: BRANCH  17  18
DOCKED: ATOM     18  C   UNL     1      21.764  -7.969  -2.600 -0.31 -0.00    +0.000 C 
DOCKED: BRANCH  18  19
DOCKED: ATOM     19  C   UNL     1      20.882  -6.815  -2.079 -0.33 -0.00    +0.000 C 
DOCKED: BRANCH  19  20
DOCKED: ATOM     20  C   UNL     1      21.280  -5.424  -2.596 -0.39 -0.00    +0.000 C 
DOCKED: BRANCH  20  22
DOCKED: ATOM     21  O   UNL     1      22.892  -4.142  -1.383 -0.92 +0.00    +0.000 OA
DOCKED: ATOM     22  C   UNL     1      21.689  -4.505  -1.481 -0.38 +0.00    +0.000 C 
DOCKED: ATOM     23  N   UNL     1      20.732  -4.069  -0.513 -0.47 +0.00    +0.000 N 
DOCKED: ATOM     24  H   UNL     1      19.795  -4.360  -0.587 -0.06 +0.00    +0.000 HD
DOCKED: BRANCH  23  25
DOCKED: ATOM     25  O   UNL     1      21.104  -3.258   0.507 -1.09 +0.00    +0.000 OA
DOCKED: ATOM     26  H   UNL     1      22.042  -3.029   0.412 -0.04 +0.00    +0.000 HD
DOCKED: ENDBRANCH  23  25
DOCKED: ENDBRANCH  20  22
DOCKED: ENDBRANCH  19  20
DOCKED: ENDBRANCH  18  19
DOCKED: ENDBRANCH  17  18
DOCKED: ENDBRANCH  16  17
DOCKED: ENDBRANCH   1  16
DOCKED: TORSDOF 7
DOCKED: TER
DOCKED: ENDMDL
________________________________________________________________________________


	BEGINNING GENETIC ALGORITHM DOCKING 100 of 100
Run: 100 Seed: 1407035158 1733710843 [ Run 100 of 100 GA/GALS ]
Beginning LAMARCKIAN GENETIC ALGORITHM (LGA), with a maximum of 2500000 energy evaluations.

Final-Value: -12.867


	FINAL GENETIC ALGORITHM DOCKED STATE
	_______________________________________________


Detailed state:  trans 17.650 -11.785 -2.020 quatxyzw 0.541493 -0.366386 0.754394 -0.058626 center 0.154 0.111 -0.146 ntor 7 -2.9310 59.3511 -178.7026 88.2706 -128.1756 46.0382 0.7452
State:	 17.650 -11.785  -2.020   0.542 -0.367  0.756 -173.278     -2.93   59.35 -178.70   88.27 -128.18   46.04    0.75

DOCKED: MODEL      100
DOCKED: USER    Run = 100
DOCKED: USER    DPF = ligand_dock.biased.dpf
DOCKED: USER  
DOCKED: USER    Estimated Free Energy of Binding    =   -8.35 kcal/mol  [=(1)+(2)+(3)-(4)]
DOCKED: USER    Estimated Inhibition Constant, Ki   =  763.87 nM (nanomolar)  [Temperature = 298.15 K]
DOCKED: USER    
DOCKED: USER    (1) Final Intermolecular Energy     =  -10.43 kcal/mol
DOCKED: USER        vdW + Hbond + desolv Energy     =  -10.43 kcal/mol
DOCKED: USER        Electrostatic Energy            =   +0.00 kcal/mol
DOCKED: USER    (2) Final Total Internal Energy     =   -2.43 kcal/mol
DOCKED: USER    (3) Torsional Free Energy           =   +2.09 kcal/mol
DOCKED: USER    (4) Unbound System's Energy  [=(2)] =   -2.43 kcal/mol
DOCKED: USER    
DOCKED: USER    
DOCKED: USER    NEWDPF move ligand.pdbqt
DOCKED: USER    NEWDPF about 0.154000 0.111000 -0.146000
DOCKED: USER    NEWDPF tran0 17.650371 -11.784531 -2.019757
DOCKED: USER    NEWDPF quaternion0 0.541493 -0.366386 0.754394 -0.058626
DOCKED: USER    NEWDPF axisangle0 0.542426 -0.367017 0.755694 -173.278103
DOCKED: USER    NEWDPF quat0 0.542426 -0.367017 0.755694 -173.278103
DOCKED: USER    NEWDPF dihe0 -2.93 59.35 -178.70 88.27 -128.18 46.04 0.75 
DOCKED: USER  keepresnum = 1 
DOCKED: USER  
DOCKED: REMARK  Name = 
DOCKED: REMARK  7 active torsions:
DOCKED: REMARK  status: ('A' for Active; 'I' for Inactive)
DOCKED: REMARK    1  A    between atoms: C_2  and  C_5
DOCKED: REMARK    2  A    between atoms: N_3  and  O_4
DOCKED: REMARK    3  A    between atoms: C_5  and  C_6
DOCKED: REMARK    4  A    between atoms: C_6  and  C_7
DOCKED: REMARK    5  A    between atoms: C_7  and  C_8
DOCKED: REMARK    6  A    between atoms: C_8  and  C_9
DOCKED: REMARK    7  A    between atoms: C_9  and  N_10
DOCKED: REMARK                            x       y       z     vdW  Elec       q    Type
DOCKED: REMARK                         _______ _______ _______ _____ _____    ______ ____
DOCKED: USER                              x       y       z     vdW  Elec       q    Type
DOCKED: USER                           _______ _______ _______ _____ _____    ______ ____
DOCKED: ROOT
DOCKED: ATOM      1  N   UNL     1      17.353 -10.357  -2.365 -0.26 -0.00    +0.000 N 
DOCKED: ATOM      2  C   UNL     1      16.613 -10.503  -3.593 -0.15 -0.00    +0.000 C 
DOCKED: ATOM      3  C   UNL     1      17.331 -10.686  -4.875 -0.18 -0.00    +0.000 A 
DOCKED: ATOM      4  C   UNL     1      16.618 -10.854  -6.075 -0.26 -0.00    +0.000 A 
DOCKED: ATOM      5  C   UNL     1      17.293 -11.030  -7.283 -0.30 -0.00    +0.000 A 
DOCKED: ATOM      6  C   UNL     1      18.688 -11.040  -7.315 -0.27 -0.00    +0.000 A 
DOCKED: ATOM      7  C   UNL     1      19.421 -10.874  -6.132 -0.34 -0.00    +0.000 A 
DOCKED: ATOM      8  C   UNL     1      20.823 -10.883  -6.164 -0.35 -0.00    +0.000 A 
DOCKED: ATOM      9  C   UNL     1      21.553 -10.715  -4.988 -0.44 -0.00    +0.000 A 
DOCKED: ATOM     10  C   UNL     1      20.896 -10.538  -3.770 -0.45 -0.00    +0.000 A 
DOCKED: ATOM     11  C   UNL     1      19.491 -10.525  -3.711 -0.37 -0.00    +0.000 A 
DOCKED: ATOM     12  C   UNL     1      18.744 -10.695  -4.898 -0.32 -0.00    +0.000 A 
DOCKED: ATOM     13  O   UNL     1      15.351 -10.473  -3.577 -0.26 -0.00    +0.000 OA
DOCKED: ATOM     14  C   UNL     1      18.794 -10.338  -2.418 -0.33 -0.00    +0.000 C 
DOCKED: ATOM     15  O   UNL     1      19.465 -10.162  -1.365 -0.45 -0.00    +0.000 OA
DOCKED: ENDROOT
DOCKED: BRANCH   1  16
DOCKED: ATOM     16  C   UNL     1      16.641 -10.266  -1.079 -0.20 -0.00    +0.000 C 
DOCKED: BRANCH  16  17
DOCKED: ATOM     17  C   UNL     1      16.135 -11.642  -0.614 -0.39 +0.00    +0.000 C 
DOCKED: BRANCH  17  18
DOCKED: ATOM     18  C   UNL     1      16.879 -12.206   0.612 -0.52 +0.00    +0.000 C 
DOCKED: BRANCH  18  19
DOCKED: ATOM     19  C   UNL     1      18.398 -12.394   0.416 -0.53 -0.00    +0.000 C 
DOCKED: BRANCH  19  20
DOCKED: ATOM     20  C   UNL     1      19.220 -12.348   1.713 -0.65 -0.00    +0.000 C 
DOCKED: BRANCH  20  22
DOCKED: ATOM     21  O   UNL     1      20.315 -10.512   2.782 -0.82 -0.00    +0.000 OA
DOCKED: ATOM     22  C   UNL     1      20.181 -11.194   1.731 -0.74 -0.00    +0.000 C 
DOCKED: ATOM     23  N   UNL     1      20.916 -10.845   0.555 -0.65 -0.00    +0.000 N 
DOCKED: ATOM     24  H   UNL     1      20.803 -11.375  -0.266 -0.03 -0.00    +0.000 HD
DOCKED: BRANCH  23  25
DOCKED: ATOM     25  O   UNL     1      21.766  -9.791   0.563 -0.65 -0.00    +0.000 OA
DOCKED: ATOM     26  H   UNL     1      21.728  -9.350   1.426 -0.54 -0.00    +0.000 HD
DOCKED: ENDBRANCH  23  25
DOCKED: ENDBRANCH  20  22
DOCKED: ENDBRANCH  19  20
DOCKED: ENDBRANCH  18  19
DOCKED: ENDBRANCH  17  18
DOCKED: ENDBRANCH  16  17
DOCKED: ENDBRANCH   1  16
DOCKED: TORSDOF 7
DOCKED: TER
DOCKED: ENDMDL
________________________________________________________________________________

DPF>                           # do this many hybrid GA-LS runs

DPF> analysis                             # perform a ranked cluster analysis


		CLUSTER ANALYSIS OF CONFORMATIONS
		_________________________________

Number of conformations = 100

RMSD cluster analysis will be performed using the ligand atoms only (26 / 26 total atoms).

Outputting structurally similar clusters, ranked in order of increasing energy.


________________________________________________________________________________

Number of distinct conformational clusters found = 18,  out of 100 runs,
Using an rmsd-tolerance of 2.0 A


	CLUSTERING HISTOGRAM
	____________________

________________________________________________________________________________
     |           |     |           |     |                                    
Clus | Lowest    | Run | Mean      | Num | Histogram                          
-ter | Binding   |     | Binding   | in  |                                    
Rank | Energy    |     | Energy    | Clus|    5    10   15   20   25   30   35
_____|___________|_____|___________|_____|____:____|____:____|____:____|____:___
   1 |    -10.85 |  36 |    -10.04 |  27 |###########################
   2 |    -10.57 |  94 |     -9.87 |   7 |#######
   3 |    -10.04 |  31 |     -9.71 |  10 |##########
   4 |    -10.04 |  99 |     -9.36 |   5 |#####
   5 |     -9.87 |  56 |     -9.70 |   4 |####
   6 |     -9.61 |   5 |     -9.16 |   5 |#####
   7 |     -9.59 |  47 |     -8.79 |  19 |###################
   8 |     -9.50 |  17 |     -9.47 |   2 |##
   9 |     -9.32 |  44 |     -8.97 |   2 |##
  10 |     -9.30 |  91 |     -8.97 |   6 |######
  11 |     -9.24 |  60 |     -8.96 |   3 |###
  12 |     -9.17 |  62 |     -9.17 |   1 |#
  13 |     -8.98 |  20 |     -8.66 |   2 |##
  14 |     -8.86 |  64 |     -8.60 |   2 |##
  15 |     -8.60 |  51 |     -8.60 |   1 |#
  16 |     -8.50 |  32 |     -8.50 |   1 |#
  17 |     -8.20 |  25 |     -8.17 |   2 |##
  18 |     -7.65 |  11 |     -7.65 |   1 |#
_____|___________|_____|___________|_____|______________________________________


Number of multi-member conformational clusters found = 14, out of 100 runs.

	RMSD TABLE
	__________

_____________________________________________________________________
     |      |      |           |         |                 |
Rank | Sub- | Run  | Binding   | Cluster | Reference       | Grep
     | Rank |      | Energy    | RMSD    | RMSD            | Pattern
_____|______|______|___________|_________|_________________|___________
   1      1     36      -10.85      0.00     20.08           RANKING
   1      2     50      -10.75      0.96     19.97           RANKING
   1      3     78      -10.67      0.99     20.07           RANKING
   1      4     39      -10.67      0.98     20.02           RANKING
   1      5     67      -10.57      1.11     20.24           RANKING
   1      6     80      -10.52      0.99     19.99           RANKING
   1      7     82      -10.47      0.97     19.93           RANKING
   1      8     29      -10.45      1.11     19.83           RANKING
   1      9     26      -10.37      1.04     20.55           RANKING
   1     10     76      -10.32      0.90     20.00           RANKING
   1     11     97      -10.25      1.07     20.56           RANKING
   1     12     24      -10.14      0.93     19.86           RANKING
   1     13     55      -10.06      1.11     19.66           RANKING
   1     14     28      -10.03      1.13     19.72           RANKING
   1     15      3       -9.90      1.11     19.82           RANKING
   1     16     13       -9.82      1.18     19.84           RANKING
   1     17     93       -9.80      1.23     19.89           RANKING
   1     18     38       -9.80      1.09     19.80           RANKING
   1     19     73       -9.74      1.13     19.70           RANKING
   1     20     37       -9.72      1.38     19.94           RANKING
   1     21     48       -9.71      1.47     19.08           RANKING
   1     22      9       -9.69      1.27     19.85           RANKING
   1     23     72       -9.69      1.21     19.91           RANKING
   1     24     23       -9.43      1.23     19.62           RANKING
   1     25     33       -9.33      1.30     19.76           RANKING
   1     26     30       -9.27      1.39     19.87           RANKING
   1     27     69       -9.00      1.80     19.09           RANKING
   2      1     94      -10.57      0.00     18.21           RANKING
   2      2      1      -10.19      1.85     17.89           RANKING
   2      3     53      -10.13      1.91     17.78           RANKING
   2      4     52       -9.69      1.01     18.14           RANKING
   2      5     65       -9.60      1.29     18.61           RANKING
   2      6     54       -9.49      1.24     17.34           RANKING
   2      7     40       -9.45      1.38     17.08           RANKING
   3      1     31      -10.04      0.00     22.25           RANKING
   3      2     71      -10.03      1.28     21.65           RANKING
   3      3     89       -9.98      1.25     21.81           RANKING
   3      4     49       -9.96      1.54     21.60           RANKING
   3      5     15       -9.93      1.26     21.69           RANKING
   3      6     34       -9.92      1.49     21.56           RANKING
   3      7     90       -9.59      1.33     21.60           RANKING
   3      8     66       -9.53      1.22     21.70           RANKING
   3      9     88       -9.17      1.49     21.73           RANKING
   3     10     35       -8.98      1.55     21.32           RANKING
   4      1     99      -10.04      0.00     20.00           RANKING
   4      2      4       -9.91      0.60     19.92           RANKING
   4      3     74       -9.69      0.66     20.12           RANKING
   4      4     59       -9.14      0.84     19.76           RANKING
   4      5     10       -8.02      1.98     20.16           RANKING
   5      1     56       -9.87      0.00     18.11           RANKING
   5      2     84       -9.73      0.49     18.12           RANKING
   5      3     46       -9.73      1.35     18.58           RANKING
   5      4     61       -9.49      0.63     18.17           RANKING
   6      1      5       -9.61      0.00     20.97           RANKING
   6      2     41       -9.57      1.00     21.15           RANKING
   6      3      7       -9.39      0.99     21.10           RANKING
   6      4     68       -9.08      0.95     20.94           RANKING
   6      5     19       -8.14      1.73     20.70           RANKING
   7      1     47       -9.59      0.00     19.61           RANKING
   7      2     83       -9.10      1.51     19.42           RANKING
   7      3     92       -8.99      1.39     19.44           RANKING
   7      4     57       -8.90      1.51     19.32           RANKING
   7      5     77       -8.88      1.22     19.48           RANKING
   7      6     75       -8.88      0.83     19.55           RANKING
   7      7      2       -8.81      1.43     19.39           RANKING
   7      8     43       -8.80      0.83     19.51           RANKING
   7      9     12       -8.80      1.63     19.30           RANKING
   7     10     45       -8.77      1.50     19.51           RANKING
   7     11     58       -8.77      1.80     19.01           RANKING
   7     12     42       -8.76      1.05     19.36           RANKING
   7     13     86       -8.76      1.40     19.38           RANKING
   7     14     18       -8.70      0.97     19.51           RANKING
   7     15     81       -8.66      1.63     19.17           RANKING
   7     16     22       -8.51      1.48     19.43           RANKING
   7     17     98       -8.47      1.27     19.42           RANKING
   7     18     21       -8.45      1.98     18.87           RANKING
   7     19     70       -8.42      1.08     19.36           RANKING
   8      1     17       -9.50      0.00     23.49           RANKING
   8      2     63       -9.44      1.78     23.38           RANKING
   9      1     44       -9.32      0.00     19.40           RANKING
   9      2     96       -8.62      0.81     19.03           RANKING
  10      1     91       -9.30      0.00     19.58           RANKING
  10      2     87       -9.16      1.87     20.60           RANKING
  10      3      6       -9.15      1.51     18.72           RANKING
  10      4     95       -8.88      1.38     18.81           RANKING
  10      5     14       -8.83      0.99     19.91           RANKING
  10      6     79       -8.51      1.92     20.82           RANKING
  11      1     60       -9.24      0.00     19.17           RANKING
  11      2      8       -8.87      1.28     19.32           RANKING
  11      3     16       -8.78      0.66     19.05           RANKING
  12      1     62       -9.17      0.00     16.75           RANKING
  13      1     20       -8.98      0.00     20.43           RANKING
  13      2    100       -8.35      0.95     20.55           RANKING
  14      1     64       -8.86      0.00     20.57           RANKING
  14      2     85       -8.34      0.58     20.64           RANKING
  15      1     51       -8.60      0.00     18.09           RANKING
  16      1     32       -8.50      0.00     20.31           RANKING
  17      1     25       -8.20      0.00     18.22           RANKING
  17      2     27       -8.13      1.04     17.98           RANKING
  18      1     11       -7.65      0.00     22.35           RANKING
_______________________________________________________________________



	INFORMATION ENTROPY ANALYSIS FOR THIS CLUSTERING
	________________________________________________


Information entropy for this clustering = 0.51  (rmstol = 2.00 Angstrom)

_______________________________________________________________________


	STATISTICAL MECHANICAL ANALYSIS
	_______________________________


Partition function, Q =   101.60            at Temperature, T = 298.15 K
Free energy,        A ~ -2737.86 kcal/mol   at Temperature, T = 298.15 K
Internal energy,    U =    -9.38 kcal/mol   at Temperature, T = 298.15 K
Entropy,            S =     9.15 kcal/mol/K at Temperature, T = 298.15 K

_______________________________________________________________________


	LOWEST ENERGY DOCKED CONFORMATION from EACH CLUSTER
	___________________________________________________



Keeping original residue number (specified in the input PDBQ file) for outputting.

MODEL       36
USER    Run = 36
USER    Cluster Rank = 1
USER    Number of conformations in this cluster = 27
USER  
USER    RMSD from reference structure       = 20.084 A
USER  
USER    Estimated Free Energy of Binding    =  -10.85 kcal/mol  [=(1)+(2)+(3)-(4)]
USER    Estimated Inhibition Constant, Ki   =   11.11 nM (nanomolar)  [Temperature = 298.15 K]
USER    
USER    (1) Final Intermolecular Energy     =  -12.94 kcal/mol
USER        vdW + Hbond + desolv Energy     =  -12.94 kcal/mol
USER        Electrostatic Energy            =   +0.00 kcal/mol
USER    (2) Final Total Internal Energy     =   -0.99 kcal/mol
USER    (3) Torsional Free Energy           =   +2.09 kcal/mol
USER    (4) Unbound System's Energy  [=(2)] =   -0.99 kcal/mol
USER    
USER    
USER  
USER    DPF = ligand_dock.biased.dpf
USER    NEWDPF move	ligand.pdbqt
USER    NEWDPF about	0.154000 0.111000 -0.146000
USER    NEWDPF tran0	19.130396 -12.834032 1.143152
USER    NEWDPF axisangle0	-0.971680 0.179279 0.153938 111.278047
USER    NEWDPF quaternion0	-0.802120 0.147994 0.127076 0.564405
USER    NEWDPF dihe0	177.18 -85.20 -117.45 163.98 8.49 -167.63 -161.60 
USER  
USER                              x       y       z    vdW   Elec        q     RMS 
ATOM      1  N   UNL     1      19.059 -11.363   0.869 -0.51 -0.00    +0.000    20.084
ATOM      2  C   UNL     1      18.548 -10.858   2.118 -0.58 -0.00    +0.000    20.084
ATOM      3  C   UNL     1      17.094 -10.899   2.396 -0.43 +0.00    +0.000    20.084
ATOM      4  C   UNL     1      16.589 -10.433   3.623 -0.37 +0.00    +0.000    20.084
ATOM      5  C   UNL     1      15.219 -10.473   3.887 -0.45 +0.00    +0.000    20.084
ATOM      6  C   UNL     1      14.333 -10.978   2.935 -0.38 +0.00    +0.000    20.084
ATOM      7  C   UNL     1      14.813 -11.448   1.705 -0.40 +0.00    +0.000    20.084
ATOM      8  C   UNL     1      13.923 -11.954   0.747 -0.41 +0.00    +0.000    20.084
ATOM      9  C   UNL     1      14.400 -12.420  -0.478 -0.40 +0.00    +0.000    20.084
ATOM     10  C   UNL     1      15.765 -12.387  -0.761 -0.33 +0.00    +0.000    20.084
ATOM     11  C   UNL     1      16.679 -11.885   0.183 -0.42 +0.00    +0.000    20.084
ATOM     12  C   UNL     1      16.204 -11.411   1.426 -0.38 +0.00    +0.000    20.084
ATOM     13  O   UNL     1      19.340 -10.380   2.977 -0.72 -0.00    +0.000    20.084
ATOM     14  C   UNL     1      18.129 -11.852  -0.117 -0.52 -0.00    +0.000    20.084
ATOM     15  O   UNL     1      18.545 -12.252  -1.239 -0.38 -0.00    +0.000    20.084
ATOM     16  C   UNL     1      20.511 -11.406   0.628 -0.65 -0.00    +0.000    20.084
ATOM     17  C   UNL     1      21.034 -10.067   0.081 -0.70 -0.00    +0.000    20.084
ATOM     18  C   UNL     1      21.335 -10.077  -1.430 -0.64 -0.00    +0.000    20.084
ATOM     19  C   UNL     1      20.091  -9.976  -2.337 -0.47 -0.00    +0.000    20.084
ATOM     20  C   UNL     1      20.021 -11.037  -3.446 -0.45 -0.00    +0.000    20.084
ATOM     21  O   UNL     1      22.113 -10.125  -4.157 -0.46 -0.00    +0.000    20.084
ATOM     22  C   UNL     1      21.250 -11.031  -4.309 -0.51 -0.00    +0.000    20.084
ATOM     23  N   UNL     1      21.430 -12.024  -5.322 -0.53 -0.00    +0.000    20.084
ATOM     24  H   UNL     1      20.751 -12.726  -5.443 -0.61 -0.00    +0.000    20.084
ATOM     25  O   UNL     1      22.527 -12.007  -6.116 -0.66 -0.00    +0.000    20.084
ATOM     26  H   UNL     1      22.507 -12.773  -6.712 -0.58 -0.00    +0.000    20.084
TER
ENDMDL
MODEL       94
USER    Run = 94
USER    Cluster Rank = 2
USER    Number of conformations in this cluster = 7
USER  
USER    RMSD from reference structure       = 18.211 A
USER  
USER    Estimated Free Energy of Binding    =  -10.57 kcal/mol  [=(1)+(2)+(3)-(4)]
USER    Estimated Inhibition Constant, Ki   =   17.99 nM (nanomolar)  [Temperature = 298.15 K]
USER    
USER    (1) Final Intermolecular Energy     =  -12.65 kcal/mol
USER        vdW + Hbond + desolv Energy     =  -12.65 kcal/mol
USER        Electrostatic Energy            =   +0.00 kcal/mol
USER    (2) Final Total Internal Energy     =   -2.50 kcal/mol
USER    (3) Torsional Free Energy           =   +2.09 kcal/mol
USER    (4) Unbound System's Energy  [=(2)] =   -2.50 kcal/mol
USER    
USER    
USER  
USER    DPF = ligand_dock.biased.dpf
USER    NEWDPF move	ligand.pdbqt
USER    NEWDPF about	0.154000 0.111000 -0.146000
USER    NEWDPF tran0	16.877714 -10.831603 0.544916
USER    NEWDPF axisangle0	0.881316 -0.425263 -0.205994 75.483337
USER    NEWDPF quaternion0	0.539456 -0.260305 -0.126089 0.790779
USER    NEWDPF dihe0	-9.78 5.92 -76.88 -147.42 53.06 3.15 4.00 
USER  
USER                              x       y       z    vdW   Elec        q     RMS 
ATOM      1  N   UNL     1      16.391 -12.126   1.122 -0.44 +0.00    +0.000    18.211
ATOM      2  C   UNL     1      15.106 -12.264   0.486 -0.50 +0.00    +0.000    18.211
ATOM      3  C   UNL     1      13.928 -11.552   1.031 -0.39 +0.00    +0.000    18.211
ATOM      4  C   UNL     1      12.675 -11.661   0.402 -0.36 +0.00    +0.000    18.211
ATOM      5  C   UNL     1      11.563 -10.988   0.913 -0.32 +0.00    +0.000    18.211
ATOM      6  C   UNL     1      11.683 -10.200   2.057 -0.16 +0.00    +0.000    18.211
ATOM      7  C   UNL     1      12.922 -10.076   2.702 -0.20 +0.00    +0.000    18.211
ATOM      8  C   UNL     1      13.042  -9.284   3.853 -0.23 +0.00    +0.000    18.211
ATOM      9  C   UNL     1      14.273  -9.163   4.496 -0.37 +0.00    +0.000    18.211
ATOM     10  C   UNL     1      15.395  -9.828   4.001 -0.40 +0.00    +0.000    18.211
ATOM     11  C   UNL     1      15.301 -10.628   2.848 -0.41 +0.00    +0.000    18.211
ATOM     12  C   UNL     1      14.057 -10.756   2.190 -0.33 +0.00    +0.000    18.211
ATOM     13  O   UNL     1      14.983 -12.993  -0.537 -0.64 +0.00    +0.000    18.211
ATOM     14  C   UNL     1      16.493 -11.332   2.322 -0.44 +0.00    +0.000    18.211
ATOM     15  O   UNL     1      17.595 -11.235   2.928 -0.52 +0.00    +0.000    18.211
ATOM     16  C   UNL     1      17.582 -12.759   0.530 -0.49 +0.00    +0.000    18.211
ATOM     17  C   UNL     1      18.144 -11.927  -0.635 -0.45 -0.00    +0.000    18.211
ATOM     18  C   UNL     1      18.732 -10.566  -0.213 -0.38 -0.00    +0.000    18.211
ATOM     19  C   UNL     1      20.212 -10.356  -0.593 -0.60 -0.00    +0.000    18.211
ATOM     20  C   UNL     1      21.217 -11.005   0.371 -0.56 -0.00    +0.000    18.211
ATOM     21  O   UNL     1      19.974 -12.507   1.753 -1.68 -0.00    +0.000    18.211
ATOM     22  C   UNL     1      20.576 -11.403   1.670 -0.76 -0.00    +0.000    18.211
ATOM     23  N   UNL     1      20.616 -10.524   2.797 -0.62 -0.00    +0.000    18.211
ATOM     24  H   UNL     1      21.079  -9.660   2.726 -0.58 -0.00    +0.000    18.211
ATOM     25  O   UNL     1      20.018 -10.872   3.962 -0.77 -0.00    +0.000    18.211
ATOM     26  H   UNL     1      19.481 -11.669   3.825 -0.04 -0.00    +0.000    18.211
TER
ENDMDL
MODEL       31
USER    Run = 31
USER    Cluster Rank = 3
USER    Number of conformations in this cluster = 10
USER  
USER    RMSD from reference structure       = 22.253 A
USER  
USER    Estimated Free Energy of Binding    =  -10.04 kcal/mol  [=(1)+(2)+(3)-(4)]
USER    Estimated Inhibition Constant, Ki   =   43.57 nM (nanomolar)  [Temperature = 298.15 K]
USER    
USER    (1) Final Intermolecular Energy     =  -12.13 kcal/mol
USER        vdW + Hbond + desolv Energy     =  -12.13 kcal/mol
USER        Electrostatic Energy            =   +0.00 kcal/mol
USER    (2) Final Total Internal Energy     =   -0.65 kcal/mol
USER    (3) Torsional Free Energy           =   +2.09 kcal/mol
USER    (4) Unbound System's Energy  [=(2)] =   -0.65 kcal/mol
USER    
USER    
USER  
USER    DPF = ligand_dock.biased.dpf
USER    NEWDPF move	ligand.pdbqt
USER    NEWDPF about	0.154000 0.111000 -0.146000
USER    NEWDPF tran0	19.845817 -8.999581 -1.801932
USER    NEWDPF axisangle0	0.215934 -0.638648 -0.738581 72.469557
USER    NEWDPF quaternion0	0.127637 -0.377502 -0.436572 0.806602
USER    NEWDPF dihe0	161.74 -36.92 -128.88 -175.86 -151.30 169.85 -164.27 
USER  
USER                              x       y       z    vdW   Elec        q     RMS 
ATOM      1  N   UNL     1      19.640 -10.418  -2.239 -0.41 -0.00    +0.000    22.253
ATOM      2  C   UNL     1      18.222 -10.579  -2.047 -0.31 -0.00    +0.000    22.253
ATOM      3  C   UNL     1      17.686 -10.892  -0.702 -0.34 -0.00    +0.000    22.253
ATOM      4  C   UNL     1      16.301 -11.027  -0.500 -0.31 +0.00    +0.000    22.253
ATOM      5  C   UNL     1      15.794 -11.320   0.768 -0.35 +0.00    +0.000    22.253
ATOM      6  C   UNL     1      16.658 -11.483   1.850 -0.38 +0.00    +0.000    22.253
ATOM      7  C   UNL     1      18.043 -11.355   1.673 -0.45 -0.00    +0.000    22.253
ATOM      8  C   UNL     1      18.911 -11.520   2.761 -0.45 -0.00    +0.000    22.253
ATOM      9  C   UNL     1      20.288 -11.395   2.585 -0.68 -0.00    +0.000    22.253
ATOM     10  C   UNL     1      20.815 -11.103   1.326 -0.55 -0.00    +0.000    22.253
ATOM     11  C   UNL     1      19.964 -10.932   0.219 -0.56 -0.00    +0.000    22.253
ATOM     12  C   UNL     1      18.568 -11.057   0.389 -0.44 -0.00    +0.000    22.253
ATOM     13  O   UNL     1      17.433 -10.455  -3.025 -0.30 -0.00    +0.000    22.253
ATOM     14  C   UNL     1      20.523 -10.621  -1.117 -0.57 -0.00    +0.000    22.253
ATOM     15  O   UNL     1      21.772 -10.536  -1.268 -0.72 -0.00    +0.000    22.253
ATOM     16  C   UNL     1      20.167 -10.018  -3.554 -0.43 -0.00    +0.000    22.253
ATOM     17  C   UNL     1      20.437 -11.238  -4.451 -0.51 -0.00    +0.000    22.253
ATOM     18  C   UNL     1      21.866 -11.298  -5.023 -0.53 -0.00    +0.000    22.253
ATOM     19  C   UNL     1      22.093 -10.439  -6.285 -0.39 -0.00    +0.000    22.253
ATOM     20  C   UNL     1      22.291 -11.245  -7.579 -0.36 -0.00    +0.000    22.253
ATOM     21  O   UNL     1      23.924 -12.622  -6.507 -1.14 +0.00    +0.000    22.253
ATOM     22  C   UNL     1      23.570 -12.031  -7.562 -0.53 -0.00    +0.000    22.253
ATOM     23  N   UNL     1      24.403 -12.084  -8.724 -0.41 -0.00    +0.000    22.253
ATOM     24  H   UNL     1      24.128 -11.614  -9.543 +0.00 -0.00    +0.000    22.253
ATOM     25  O   UNL     1      25.568 -12.773  -8.704 -0.50 -0.00    +0.000    22.253
ATOM     26  H   UNL     1      25.856 -12.949  -9.614 -0.50 -0.00    +0.000    22.253
TER
ENDMDL
MODEL       99
USER    Run = 99
USER    Cluster Rank = 4
USER    Number of conformations in this cluster = 5
USER  
USER    RMSD from reference structure       = 20.005 A
USER  
USER    Estimated Free Energy of Binding    =  -10.04 kcal/mol  [=(1)+(2)+(3)-(4)]
USER    Estimated Inhibition Constant, Ki   =   43.72 nM (nanomolar)  [Temperature = 298.15 K]
USER    
USER    (1) Final Intermolecular Energy     =  -12.13 kcal/mol
USER        vdW + Hbond + desolv Energy     =  -12.13 kcal/mol
USER        Electrostatic Energy            =   +0.00 kcal/mol
USER    (2) Final Total Internal Energy     =   -1.47 kcal/mol
USER    (3) Torsional Free Energy           =   +2.09 kcal/mol
USER    (4) Unbound System's Energy  [=(2)] =   -1.47 kcal/mol
USER    
USER    
USER  
USER    DPF = ligand_dock.biased.dpf
USER    NEWDPF move	ligand.pdbqt
USER    NEWDPF about	0.154000 0.111000 -0.146000
USER    NEWDPF tran0	20.140442 -12.025314 -2.106252
USER    NEWDPF axisangle0	-0.844632 -0.086110 0.528377 130.954599
USER    NEWDPF quaternion0	-0.768443 -0.078343 0.480716 0.415054
USER    NEWDPF dihe0	2.80 33.65 -180.00 -180.00 170.42 4.11 -175.10 
USER  
USER                              x       y       z    vdW   Elec        q     RMS 
ATOM      1  N   UNL     1      20.224 -10.563  -1.792 -0.48 -0.00    +0.000    20.005
ATOM      2  C   UNL     1      20.849 -10.578  -0.495 -0.67 -0.00    +0.000    20.005
ATOM      3  C   UNL     1      20.035 -10.815   0.719 -0.59 -0.00    +0.000    20.005
ATOM      4  C   UNL     1      20.640 -10.857   1.988 -0.57 -0.00    +0.000    20.005
ATOM      5  C   UNL     1      19.873 -11.083   3.132 -0.66 -0.00    +0.000    20.005
ATOM      6  C   UNL     1      18.495 -11.268   3.031 -0.41 -0.00    +0.000    20.005
ATOM      7  C   UNL     1      17.869 -11.230   1.777 -0.44 -0.00    +0.000    20.005
ATOM      8  C   UNL     1      16.482 -11.416   1.675 -0.39 +0.00    +0.000    20.005
ATOM      9  C   UNL     1      15.859 -11.375   0.429 -0.35 +0.00    +0.000    20.005
ATOM     10  C   UNL     1      16.607 -11.151  -0.727 -0.31 -0.00    +0.000    20.005
ATOM     11  C   UNL     1      17.999 -10.962  -0.652 -0.36 -0.00    +0.000    20.005
ATOM     12  C   UNL     1      18.639 -11.001   0.608 -0.46 -0.00    +0.000    20.005
ATOM     13  O   UNL     1      22.093 -10.389  -0.391 -0.75 -0.00    +0.000    20.005
ATOM     14  C   UNL     1      18.794 -10.725  -1.879 -0.40 -0.00    +0.000    20.005
ATOM     15  O   UNL     1      18.214 -10.665  -2.998 -0.32 -0.00    +0.000    20.005
ATOM     16  C   UNL     1      21.044 -10.418  -3.007 -0.55 -0.00    +0.000    20.005
ATOM     17  C   UNL     1      21.040  -8.969  -3.522 -0.43 -0.00    +0.000    20.005
ATOM     18  C   UNL     1      21.764  -7.969  -2.600 -0.31 -0.00    +0.000    20.005
ATOM     19  C   UNL     1      20.882  -6.815  -2.079 -0.33 -0.00    +0.000    20.005
ATOM     20  C   UNL     1      21.280  -5.424  -2.596 -0.39 -0.00    +0.000    20.005
ATOM     21  O   UNL     1      22.892  -4.142  -1.383 -0.92 +0.00    +0.000    20.005
ATOM     22  C   UNL     1      21.689  -4.505  -1.481 -0.38 +0.00    +0.000    20.005
ATOM     23  N   UNL     1      20.732  -4.069  -0.513 -0.47 +0.00    +0.000    20.005
ATOM     24  H   UNL     1      19.795  -4.360  -0.587 -0.06 +0.00    +0.000    20.005
ATOM     25  O   UNL     1      21.104  -3.258   0.507 -1.09 +0.00    +0.000    20.005
ATOM     26  H   UNL     1      22.042  -3.029   0.412 -0.04 +0.00    +0.000    20.005
TER
ENDMDL
MODEL       56
USER    Run = 56
USER    Cluster Rank = 5
USER    Number of conformations in this cluster = 4
USER  
USER    RMSD from reference structure       = 18.106 A
USER  
USER    Estimated Free Energy of Binding    =   -9.87 kcal/mol  [=(1)+(2)+(3)-(4)]
USER    Estimated Inhibition Constant, Ki   =   58.33 nM (nanomolar)  [Temperature = 298.15 K]
USER    
USER    (1) Final Intermolecular Energy     =  -11.96 kcal/mol
USER        vdW + Hbond + desolv Energy     =  -11.96 kcal/mol
USER        Electrostatic Energy            =   +0.00 kcal/mol
USER    (2) Final Total Internal Energy     =   -1.38 kcal/mol
USER    (3) Torsional Free Energy           =   +2.09 kcal/mol
USER    (4) Unbound System's Energy  [=(2)] =   -1.38 kcal/mol
USER    
USER    
USER  
USER    DPF = ligand_dock.biased.dpf
USER    NEWDPF move	ligand.pdbqt
USER    NEWDPF about	0.154000 0.111000 -0.146000
USER    NEWDPF tran0	15.623897 -9.511506 2.338569
USER    NEWDPF axisangle0	0.306951 0.885733 0.348221 165.157553
USER    NEWDPF quaternion0	0.304380 0.878314 0.345304 0.129163
USER    NEWDPF dihe0	-10.11 -35.52 -171.92 -114.33 -179.29 50.47 -22.28 
USER  
USER                              x       y       z    vdW   Elec        q     RMS 
ATOM      1  N   UNL     1      15.675 -10.996   2.533 -0.41 +0.00    +0.000    18.106
ATOM      2  C   UNL     1      16.905 -11.152   3.267 -0.33 +0.00    +0.000    18.106
ATOM      3  C   UNL     1      18.199 -11.179   2.548 -0.45 -0.00    +0.000    18.106
ATOM      4  C   UNL     1      19.407 -11.306   3.257 -0.61 -0.00    +0.000    18.106
ATOM      5  C   UNL     1      20.628 -11.329   2.580 -0.62 -0.00    +0.000    18.106
ATOM      6  C   UNL     1      20.664 -11.229   1.189 -0.65 -0.00    +0.000    18.106
ATOM      7  C   UNL     1      19.473 -11.103   0.461 -0.54 -0.00    +0.000    18.106
ATOM      8  C   UNL     1      19.509 -11.003  -0.938 -0.43 -0.00    +0.000    18.106
ATOM      9  C   UNL     1      18.325 -10.880  -1.663 -0.32 -0.00    +0.000    18.106
ATOM     10  C   UNL     1      17.094 -10.855  -1.005 -0.29 -0.00    +0.000    18.106
ATOM     11  C   UNL     1      17.031 -10.953   0.396 -0.34 -0.00    +0.000    18.106
ATOM     12  C   UNL     1      18.227 -11.078   1.139 -0.45 -0.00    +0.000    18.106
ATOM     13  O   UNL     1      16.881 -11.266   4.523 -0.53 +0.00    +0.000    18.106
ATOM     14  C   UNL     1      15.726 -10.925   1.094 -0.37 +0.00    +0.000    18.106
ATOM     15  O   UNL     1      14.660 -10.839   0.425 -0.29 +0.00    +0.000    18.106
ATOM     16  C   UNL     1      14.395 -10.877   3.253 -0.43 +0.00    +0.000    18.106
ATOM     17  C   UNL     1      14.439  -9.753   4.302 -0.44 +0.00    +0.000    18.106
ATOM     18  C   UNL     1      13.495  -8.573   4.002 -0.30 +0.00    +0.000    18.106
ATOM     19  C   UNL     1      14.205  -7.262   3.606 -0.29 +0.00    +0.000    18.106
ATOM     20  C   UNL     1      15.363  -6.858   4.533 -0.45 +0.00    +0.000    18.106
ATOM     21  O   UNL     1      13.887  -5.544   5.878 -1.03 +0.00    +0.000    18.106
ATOM     22  C   UNL     1      15.029  -5.645   5.354 -0.45 +0.00    +0.000    18.106
ATOM     23  N   UNL     1      15.985  -4.594   5.515 -0.49 -0.00    +0.000    18.106
ATOM     24  H   UNL     1      16.872  -4.673   5.098 -0.56 -0.00    +0.000    18.106
ATOM     25  O   UNL     1      15.677  -3.489   6.237 -0.60 +0.00    +0.000    18.106
ATOM     26  H   UNL     1      14.729  -3.490   6.442 -0.27 +0.00    +0.000    18.106
TER
ENDMDL
MODEL        5
USER    Run = 5
USER    Cluster Rank = 6
USER    Number of conformations in this cluster = 5
USER  
USER    RMSD from reference structure       = 20.969 A
USER  
USER    Estimated Free Energy of Binding    =   -9.61 kcal/mol  [=(1)+(2)+(3)-(4)]
USER    Estimated Inhibition Constant, Ki   =   89.68 nM (nanomolar)  [Temperature = 298.15 K]
USER    
USER    (1) Final Intermolecular Energy     =  -11.70 kcal/mol
USER        vdW + Hbond + desolv Energy     =  -11.70 kcal/mol
USER        Electrostatic Energy            =   +0.00 kcal/mol
USER    (2) Final Total Internal Energy     =   -1.98 kcal/mol
USER    (3) Torsional Free Energy           =   +2.09 kcal/mol
USER    (4) Unbound System's Energy  [=(2)] =   -1.98 kcal/mol
USER    
USER    
USER  
USER    DPF = ligand_dock.biased.dpf
USER    NEWDPF move	ligand.pdbqt
USER    NEWDPF about	0.154000 0.111000 -0.146000
USER    NEWDPF tran0	20.321851 -9.060830 -1.264971
USER    NEWDPF axisangle0	-0.437214 0.483343 0.758435 -69.909887
USER    NEWDPF quaternion0	-0.250494 0.276923 0.434532 -0.819603
USER    NEWDPF dihe0	0.82 22.05 26.75 180.00 -34.73 -179.03 24.47 
USER  
USER                              x       y       z    vdW   Elec        q     RMS 
ATOM      1  N   UNL     1      20.373 -10.528  -1.565 -0.51 -0.00    +0.000    20.969
ATOM      2  C   UNL     1      18.977 -10.836  -1.746 -0.44 -0.00    +0.000    20.969
ATOM      3  C   UNL     1      18.113 -11.085  -0.569 -0.38 -0.00    +0.000    20.969
ATOM      4  C   UNL     1      16.744 -11.362  -0.734 -0.31 -0.00    +0.000    20.969
ATOM      5  C   UNL     1      15.928 -11.593   0.374 -0.37 +0.00    +0.000    20.969
ATOM      6  C   UNL     1      16.463 -11.553   1.662 -0.39 +0.00    +0.000    20.969
ATOM      7  C   UNL     1      17.825 -11.279   1.852 -0.44 +0.00    +0.000    20.969
ATOM      8  C   UNL     1      18.362 -11.240   3.147 -0.35 -0.00    +0.000    20.969
ATOM      9  C   UNL     1      19.717 -10.971   3.336 -0.62 -0.00    +0.000    20.969
ATOM     10  C   UNL     1      20.549 -10.737   2.240 -0.51 -0.00    +0.000    20.969
ATOM     11  C   UNL     1      20.034 -10.770   0.932 -0.59 -0.00    +0.000    20.969
ATOM     12  C   UNL     1      18.663 -11.043   0.732 -0.47 -0.00    +0.000    20.969
ATOM     13  O   UNL     1      18.489 -10.897  -2.908 -0.36 -0.00    +0.000    20.969
ATOM     14  C   UNL     1      20.917 -10.521  -0.230 -0.70 -0.00    +0.000    20.969
ATOM     15  O   UNL     1      22.146 -10.303  -0.047 -0.67 -0.00    +0.000    20.969
ATOM     16  C   UNL     1      21.212 -10.192  -2.727 -0.55 -0.00    +0.000    20.969
ATOM     17  C   UNL     1      21.416  -8.673  -2.857 -0.46 -0.00    +0.000    20.969
ATOM     18  C   UNL     1      20.796  -8.058  -4.127 -0.32 -0.00    +0.000    20.969
ATOM     19  C   UNL     1      19.484  -8.724  -4.592 -0.23 -0.00    +0.000    20.969
ATOM     20  C   UNL     1      19.581  -9.455  -5.940 -0.21 -0.00    +0.000    20.969
ATOM     21  O   UNL     1      19.139 -11.800  -5.809 -0.46 -0.00    +0.000    20.969
ATOM     22  C   UNL     1      20.006 -10.886  -5.775 -0.41 -0.00    +0.000    20.969
ATOM     23  N   UNL     1      21.379 -11.212  -5.548 -0.47 -0.00    +0.000    20.969
ATOM     24  H   UNL     1      22.052 -10.496  -5.514 -0.02 -0.00    +0.000    20.969
ATOM     25  O   UNL     1      21.761 -12.501  -5.376 -0.82 -0.00    +0.000    20.969
ATOM     26  H   UNL     1      20.986 -13.081  -5.450 -0.66 -0.00    +0.000    20.969
TER
ENDMDL
MODEL       47
USER    Run = 47
USER    Cluster Rank = 7
USER    Number of conformations in this cluster = 19
USER  
USER    RMSD from reference structure       = 19.611 A
USER  
USER    Estimated Free Energy of Binding    =   -9.59 kcal/mol  [=(1)+(2)+(3)-(4)]
USER    Estimated Inhibition Constant, Ki   =   93.78 nM (nanomolar)  [Temperature = 298.15 K]
USER    
USER    (1) Final Intermolecular Energy     =  -11.68 kcal/mol
USER        vdW + Hbond + desolv Energy     =  -11.68 kcal/mol
USER        Electrostatic Energy            =   +0.00 kcal/mol
USER    (2) Final Total Internal Energy     =   -2.09 kcal/mol
USER    (3) Torsional Free Energy           =   +2.09 kcal/mol
USER    (4) Unbound System's Energy  [=(2)] =   -2.09 kcal/mol
USER    
USER    
USER  
USER    DPF = ligand_dock.biased.dpf
USER    NEWDPF move	ligand.pdbqt
USER    NEWDPF about	0.154000 0.111000 -0.146000
USER    NEWDPF tran0	16.042401 -10.297646 -0.540243
USER    NEWDPF axisangle0	0.089449 0.785896 0.611854 -178.080863
USER    NEWDPF quaternion0	0.089436 0.785786 0.611769 -0.016747
USER    NEWDPF dihe0	-136.45 -140.86 155.24 -4.87 10.99 -172.47 7.26 
USER  
USER                              x       y       z    vdW   Elec        q     RMS 
ATOM      1  N   UNL     1      16.404 -11.678  -0.996 -0.29 +0.00    +0.000    19.611
ATOM      2  C   UNL     1      17.141 -12.176   0.138 -0.51 +0.00    +0.000    19.611
ATOM      3  C   UNL     1      18.571 -11.831   0.303 -0.50 -0.00    +0.000    19.611
ATOM      4  C   UNL     1      19.292 -12.291   1.420 -0.58 -0.00    +0.000    19.611
ATOM      5  C   UNL     1      20.640 -11.965   1.578 -0.65 -0.00    +0.000    19.611
ATOM      6  C   UNL     1      21.290 -11.178   0.627 -0.34 -0.00    +0.000    19.611
ATOM      7  C   UNL     1      20.592 -10.708  -0.495 -0.56 -0.00    +0.000    19.611
ATOM      8  C   UNL     1      21.246  -9.918  -1.452 -0.56 -0.00    +0.000    19.611
ATOM      9  C   UNL     1      20.554  -9.453  -2.569 -0.43 -0.00    +0.000    19.611
ATOM     10  C   UNL     1      19.206  -9.768  -2.745 -0.21 -0.00    +0.000    19.611
ATOM     11  C   UNL     1      18.528 -10.559  -1.800 -0.30 -0.00    +0.000    19.611
ATOM     12  C   UNL     1      19.222 -11.034  -0.665 -0.45 -0.00    +0.000    19.611
ATOM     13  O   UNL     1      16.567 -12.907   0.993 -1.08 +0.00    +0.000    19.611
ATOM     14  C   UNL     1      17.097 -10.892  -1.986 -0.10 -0.00    +0.000    19.611
ATOM     15  O   UNL     1      16.489 -10.487  -3.014 -0.28 -0.00    +0.000    19.611
ATOM     16  C   UNL     1      14.961 -11.944  -1.114 -0.42 +0.00    +0.000    19.611
ATOM     17  C   UNL     1      14.131 -10.932  -0.305 -0.33 +0.00    +0.000    19.611
ATOM     18  C   UNL     1      13.473 -11.521   0.957 -0.43 +0.00    +0.000    19.611
ATOM     19  C   UNL     1      14.413 -11.656   2.172 -0.49 +0.00    +0.000    19.611
ATOM     20  C   UNL     1      14.999 -10.329   2.678 -0.41 +0.00    +0.000    19.611
ATOM     21  O   UNL     1      16.683 -11.232   4.114 -0.58 +0.00    +0.000    19.611
ATOM     22  C   UNL     1      16.421 -10.479   3.138 -0.50 +0.00    +0.000    19.611
ATOM     23  N   UNL     1      17.470  -9.749   2.498 -0.45 -0.00    +0.000    19.611
ATOM     24  H   UNL     1      17.261  -9.155   1.742 -0.02 -0.00    +0.000    19.611
ATOM     25  O   UNL     1      18.750  -9.866   2.926 -0.64 -0.00    +0.000    19.611
ATOM     26  H   UNL     1      19.162  -8.987   2.961 -0.58 -0.00    +0.000    19.611
TER
ENDMDL
MODEL       17
USER    Run = 17
USER    Cluster Rank = 8
USER    Number of conformations in this cluster = 2
USER  
USER    RMSD from reference structure       = 23.488 A
USER  
USER    Estimated Free Energy of Binding    =   -9.50 kcal/mol  [=(1)+(2)+(3)-(4)]
USER    Estimated Inhibition Constant, Ki   =  109.65 nM (nanomolar)  [Temperature = 298.15 K]
USER    
USER    (1) Final Intermolecular Energy     =  -11.58 kcal/mol
USER        vdW + Hbond + desolv Energy     =  -11.58 kcal/mol
USER        Electrostatic Energy            =   +0.00 kcal/mol
USER    (2) Final Total Internal Energy     =   -0.91 kcal/mol
USER    (3) Torsional Free Energy           =   +2.09 kcal/mol
USER    (4) Unbound System's Energy  [=(2)] =   -0.91 kcal/mol
USER    
USER    
USER  
USER    DPF = ligand_dock.biased.dpf
USER    NEWDPF move	ligand.pdbqt
USER    NEWDPF about	0.154000 0.111000 -0.146000
USER    NEWDPF tran0	21.653979 -9.717969 -4.263422
USER    NEWDPF axisangle0	0.473834 0.427936 0.769645 146.938714
USER    NEWDPF quaternion0	0.454249 0.410248 0.737833 0.284528
USER    NEWDPF dihe0	-177.79 -75.95 -180.00 -27.74 92.88 -5.57 0.79 
USER  
USER                              x       y       z    vdW   Elec        q     RMS 
ATOM      1  N   UNL     1      20.838 -10.329  -5.361 -0.33 -0.00    +0.000    23.488
ATOM      2  C   UNL     1      21.695 -11.401  -5.799 -0.50 -0.00    +0.000    23.488
ATOM      3  C   UNL     1      22.802 -11.127  -6.744 -0.38 -0.00    +0.000    23.488
ATOM      4  C   UNL     1      23.659 -12.162  -7.158 -0.43 -0.00    +0.000    23.488
ATOM      5  C   UNL     1      24.705 -11.905  -8.047 -0.41 -0.00    +0.000    23.488
ATOM      6  C   UNL     1      24.910 -10.615  -8.537 -0.29 -0.00    +0.000    23.488
ATOM      7  C   UNL     1      24.068  -9.567  -8.139 -0.20 -0.00    +0.000    23.488
ATOM      8  C   UNL     1      24.274  -8.271  -8.633 -0.10 -0.00    +0.000    23.488
ATOM      9  C   UNL     1      23.435  -7.229  -8.240 -0.07 -0.00    +0.000    23.488
ATOM     10  C   UNL     1      22.384  -7.466  -7.353 -0.10 -0.00    +0.000    23.488
ATOM     11  C   UNL     1      22.157  -8.757  -6.843 -0.18 -0.00    +0.000    23.488
ATOM     12  C   UNL     1      23.003  -9.818  -7.237 -0.25 -0.00    +0.000    23.488
ATOM     13  O   UNL     1      21.504 -12.576  -5.378 -0.76 -0.00    +0.000    23.488
ATOM     14  C   UNL     1      21.043  -9.008  -5.900 -0.24 -0.00    +0.000    23.488
ATOM     15  O   UNL     1      20.276  -8.062  -5.573 -0.15 -0.00    +0.000    23.488
ATOM     16  C   UNL     1      19.795 -10.582  -4.353 -0.42 -0.00    +0.000    23.488
ATOM     17  C   UNL     1      20.390 -10.686  -2.938 -0.49 -0.00    +0.000    23.488
ATOM     18  C   UNL     1      21.167  -9.434  -2.487 -0.53 -0.00    +0.000    23.488
ATOM     19  C   UNL     1      21.390  -9.326  -0.964 -0.63 -0.00    +0.000    23.488
ATOM     20  C   UNL     1      21.694 -10.661  -0.267 -0.60 -0.00    +0.000    23.488
ATOM     21  O   UNL     1      19.652 -10.260   0.909 -0.63 -0.00    +0.000    23.488
ATOM     22  C   UNL     1      20.648 -11.016   0.751 -0.71 -0.00    +0.000    23.488
ATOM     23  N   UNL     1      20.792 -12.185   1.561 -0.68 -0.00    +0.000    23.488
ATOM     24  H   UNL     1      21.574 -12.770   1.440 -0.53 -0.00    +0.000    23.488
ATOM     25  O   UNL     1      19.861 -12.495   2.495 -1.44 -0.00    +0.000    23.488
ATOM     26  H   UNL     1      20.134 -13.294   2.972 -0.52 -0.00    +0.000    23.488
TER
ENDMDL
MODEL       44
USER    Run = 44
USER    Cluster Rank = 9
USER    Number of conformations in this cluster = 2
USER  
USER    RMSD from reference structure       = 19.405 A
USER  
USER    Estimated Free Energy of Binding    =   -9.32 kcal/mol  [=(1)+(2)+(3)-(4)]
USER    Estimated Inhibition Constant, Ki   =  146.87 nM (nanomolar)  [Temperature = 298.15 K]
USER    
USER    (1) Final Intermolecular Energy     =  -11.41 kcal/mol
USER        vdW + Hbond + desolv Energy     =  -11.41 kcal/mol
USER        Electrostatic Energy            =   +0.00 kcal/mol
USER    (2) Final Total Internal Energy     =   -2.28 kcal/mol
USER    (3) Torsional Free Energy           =   +2.09 kcal/mol
USER    (4) Unbound System's Energy  [=(2)] =   -2.28 kcal/mol
USER    
USER    
USER  
USER    DPF = ligand_dock.biased.dpf
USER    NEWDPF move	ligand.pdbqt
USER    NEWDPF about	0.154000 0.111000 -0.146000
USER    NEWDPF tran0	18.569924 -10.663308 1.578932
USER    NEWDPF axisangle0	0.283945 0.927177 0.244372 86.393604
USER    NEWDPF quaternion0	0.194362 0.634659 0.167274 0.729007
USER    NEWDPF dihe0	-113.43 -129.48 168.38 -87.56 46.80 -67.44 20.06 
USER  
USER                              x       y       z    vdW   Elec        q     RMS 
ATOM      1  N   UNL     1      19.129 -11.866   0.882 -0.56 -0.00    +0.000    19.405
ATOM      2  C   UNL     1      20.122 -11.271   0.025 -0.59 -0.00    +0.000    19.405
ATOM      3  C   UNL     1      19.723 -10.677  -1.272 -0.44 -0.00    +0.000    19.405
ATOM      4  C   UNL     1      20.681 -10.072  -2.105 -0.50 -0.00    +0.000    19.405
ATOM      5  C   UNL     1      20.306  -9.510  -3.326 -0.37 -0.00    +0.000    19.405
ATOM      6  C   UNL     1      18.973  -9.544  -3.736 -0.25 -0.00    +0.000    19.405
ATOM      7  C   UNL     1      18.000 -10.142  -2.924 -0.23 -0.00    +0.000    19.405
ATOM      8  C   UNL     1      16.661 -10.177  -3.337 -0.21 -0.00    +0.000    19.405
ATOM      9  C   UNL     1      15.693 -10.775  -2.531 -0.18 -0.00    +0.000    19.405
ATOM     10  C   UNL     1      16.048 -11.342  -1.307 -0.21 -0.00    +0.000    19.405
ATOM     11  C   UNL     1      17.385 -11.320  -0.870 -0.32 -0.00    +0.000    19.405
ATOM     12  C   UNL     1      18.371 -10.717  -1.681 -0.30 -0.00    +0.000    19.405
ATOM     13  O   UNL     1      21.334 -11.255   0.377 -0.77 -0.00    +0.000    19.405
ATOM     14  C   UNL     1      17.761 -11.921   0.430 -0.53 -0.00    +0.000    19.405
ATOM     15  O   UNL     1      16.880 -12.482   1.139 -0.96 +0.00    +0.000    19.405
ATOM     16  C   UNL     1      19.509 -12.375   2.211 -0.64 -0.00    +0.000    19.405
ATOM     17  C   UNL     1      19.239 -11.336   3.312 -0.64 -0.00    +0.000    19.405
ATOM     18  C   UNL     1      18.724  -9.981   2.790 -0.54 -0.00    +0.000    19.405
ATOM     19  C   UNL     1      17.294  -9.616   3.241 -0.23 +0.00    +0.000    19.405
ATOM     20  C   UNL     1      16.436 -10.814   3.676 -0.50 +0.00    +0.000    19.405
ATOM     21  O   UNL     1      14.378  -9.787   3.027 -0.33 +0.00    +0.000    19.405
ATOM     22  C   UNL     1      15.096 -10.823   2.999 -0.49 +0.00    +0.000    19.405
ATOM     23  N   UNL     1      14.617 -12.005   2.354 -0.51 +0.00    +0.000    19.405
ATOM     24  H   UNL     1      15.176 -12.814   2.341 -0.10 +0.00    +0.000    19.405
ATOM     25  O   UNL     1      13.399 -12.021   1.762 -0.51 +0.00    +0.000    19.405
ATOM     26  H   UNL     1      12.812 -12.624   2.246 -0.48 +0.00    +0.000    19.405
TER
ENDMDL
MODEL       91
USER    Run = 91
USER    Cluster Rank = 10
USER    Number of conformations in this cluster = 6
USER  
USER    RMSD from reference structure       = 19.583 A
USER  
USER    Estimated Free Energy of Binding    =   -9.30 kcal/mol  [=(1)+(2)+(3)-(4)]
USER    Estimated Inhibition Constant, Ki   =  151.80 nM (nanomolar)  [Temperature = 298.15 K]
USER    
USER    (1) Final Intermolecular Energy     =  -11.39 kcal/mol
USER        vdW + Hbond + desolv Energy     =  -11.39 kcal/mol
USER        Electrostatic Energy            =   +0.00 kcal/mol
USER    (2) Final Total Internal Energy     =   -2.12 kcal/mol
USER    (3) Torsional Free Energy           =   +2.09 kcal/mol
USER    (4) Unbound System's Energy  [=(2)] =   -2.12 kcal/mol
USER    
USER    
USER  
USER    DPF = ligand_dock.biased.dpf
USER    NEWDPF move	ligand.pdbqt
USER    NEWDPF about	0.154000 0.111000 -0.146000
USER    NEWDPF tran0	16.504896 -12.873414 -1.562708
USER    NEWDPF axisangle0	0.489245 -0.633149 0.599802 161.881548
USER    NEWDPF quaternion0	0.483142 -0.625251 0.592320 0.157455
USER    NEWDPF dihe0	-19.02 174.38 48.73 131.88 20.29 -149.43 -169.35 
USER  
USER                              x       y       z    vdW   Elec        q     RMS 
ATOM      1  N   UNL     1      16.212 -11.582  -0.862 -0.33 +0.00    +0.000    19.583
ATOM      2  C   UNL     1      15.602 -10.811  -1.915 -0.30 -0.00    +0.000    19.583
ATOM      3  C   UNL     1      16.448 -10.107  -2.905 -0.23 -0.00    +0.000    19.583
ATOM      4  C   UNL     1      15.862  -9.372  -3.951 -0.18 -0.00    +0.000    19.583
ATOM      5  C   UNL     1      16.659  -8.710  -4.887 -0.14 -0.00    +0.000    19.583
ATOM      6  C   UNL     1      18.049  -8.769  -4.794 -0.17 -0.00    +0.000    19.583
ATOM      7  C   UNL     1      18.657  -9.494  -3.759 -0.22 -0.00    +0.000    19.583
ATOM      8  C   UNL     1      20.055  -9.552  -3.665 -0.33 -0.00    +0.000    19.583
ATOM      9  C   UNL     1      20.659 -10.271  -2.635 -0.48 -0.00    +0.000    19.583
ATOM     10  C   UNL     1      19.880 -10.940  -1.690 -0.34 -0.00    +0.000    19.583
ATOM     11  C   UNL     1      18.476 -10.897  -1.763 -0.33 -0.00    +0.000    19.583
ATOM     12  C   UNL     1      17.856 -10.171  -2.803 -0.21 -0.00    +0.000    19.583
ATOM     13  O   UNL     1      14.344 -10.734  -1.994 -0.31 -0.00    +0.000    19.583
ATOM     14  C   UNL     1      17.650 -11.608  -0.760 -0.39 -0.00    +0.000    19.583
ATOM     15  O   UNL     1      18.209 -12.233   0.182 -0.60 -0.00    +0.000    19.583
ATOM     16  C   UNL     1      15.373 -12.356   0.069 -0.52 +0.00    +0.000    19.583
ATOM     17  C   UNL     1      15.045 -11.551   1.338 -0.45 +0.00    +0.000    19.583
ATOM     18  C   UNL     1      16.119 -11.643   2.439 -0.42 +0.00    +0.000    19.583
ATOM     19  C   UNL     1      17.229 -10.575   2.349 -0.49 +0.00    +0.000    19.583
ATOM     20  C   UNL     1      18.502 -10.909   3.143 -0.54 -0.00    +0.000    19.583
ATOM     21  O   UNL     1      20.078 -12.394   2.132 -1.67 -0.00    +0.000    19.583
ATOM     22  C   UNL     1      19.666 -11.208   2.242 -0.72 -0.00    +0.000    19.583
ATOM     23  N   UNL     1      20.327 -10.154   1.538 -0.51 -0.00    +0.000    19.583
ATOM     24  H   UNL     1      20.008  -9.228   1.633 -0.33 -0.00    +0.000    19.583
ATOM     25  O   UNL     1      21.391 -10.419   0.743 -0.70 -0.00    +0.000    19.583
ATOM     26  H   UNL     1      21.764 -11.283   0.979 -0.49 -0.00    +0.000    19.583
TER
ENDMDL
MODEL       60
USER    Run = 60
USER    Cluster Rank = 11
USER    Number of conformations in this cluster = 3
USER  
USER    RMSD from reference structure       = 19.167 A
USER  
USER    Estimated Free Energy of Binding    =   -9.24 kcal/mol  [=(1)+(2)+(3)-(4)]
USER    Estimated Inhibition Constant, Ki   =  168.00 nM (nanomolar)  [Temperature = 298.15 K]
USER    
USER    (1) Final Intermolecular Energy     =  -11.33 kcal/mol
USER        vdW + Hbond + desolv Energy     =  -11.33 kcal/mol
USER        Electrostatic Energy            =   +0.00 kcal/mol
USER    (2) Final Total Internal Energy     =   -1.87 kcal/mol
USER    (3) Torsional Free Energy           =   +2.09 kcal/mol
USER    (4) Unbound System's Energy  [=(2)] =   -1.87 kcal/mol
USER    
USER    
USER  
USER    DPF = ligand_dock.biased.dpf
USER    NEWDPF move	ligand.pdbqt
USER    NEWDPF about	0.154000 0.111000 -0.146000
USER    NEWDPF tran0	18.652044 -9.677076 -1.734160
USER    NEWDPF axisangle0	-0.188231 0.891597 0.411855 -36.713142
USER    NEWDPF quaternion0	-0.059280 0.280790 0.129705 -0.949115
USER    NEWDPF dihe0	-162.17 -108.28 -179.75 73.88 -170.99 30.23 15.66 
USER  
USER                              x       y       z    vdW   Elec        q     RMS 
ATOM      1  N   UNL     1      17.755 -10.715  -2.337 -0.24 -0.00    +0.000    19.167
ATOM      2  C   UNL     1      16.541  -9.967  -2.542 -0.22 -0.00    +0.000    19.167
ATOM      3  C   UNL     1      15.594  -9.767  -1.421 -0.22 -0.00    +0.000    19.167
ATOM      4  C   UNL     1      14.419  -9.017  -1.605 -0.20 -0.00    +0.000    19.167
ATOM      5  C   UNL     1      13.526  -8.826  -0.548 -0.16 -0.00    +0.000    19.167
ATOM      6  C   UNL     1      13.791  -9.379   0.705 -0.18 +0.00    +0.000    19.167
ATOM      7  C   UNL     1      14.956 -10.131   0.912 -0.25 +0.00    +0.000    19.167
ATOM      8  C   UNL     1      15.220 -10.687   2.172 -0.36 +0.00    +0.000    19.167
ATOM      9  C   UNL     1      16.378 -11.437   2.378 -0.35 +0.00    +0.000    19.167
ATOM     10  C   UNL     1      17.282 -11.640   1.335 -0.42 +0.00    +0.000    19.167
ATOM     11  C   UNL     1      17.039 -11.092   0.062 -0.35 -0.00    +0.000    19.167
ATOM     12  C   UNL     1      15.869 -10.331  -0.155 -0.27 +0.00    +0.000    19.167
ATOM     13  O   UNL     1      16.282  -9.482  -3.678 -0.23 -0.00    +0.000    19.167
ATOM     14  C   UNL     1      17.999 -11.306  -1.045 -0.39 -0.00    +0.000    19.167
ATOM     15  O   UNL     1      19.029 -12.008  -0.852 -0.47 -0.00    +0.000    19.167
ATOM     16  C   UNL     1      18.740 -10.838  -3.424 -0.29 -0.00    +0.000    19.167
ATOM     17  C   UNL     1      19.795  -9.720  -3.360 -0.38 -0.00    +0.000    19.167
ATOM     18  C   UNL     1      21.076 -10.104  -2.594 -0.56 -0.00    +0.000    19.167
ATOM     19  C   UNL     1      21.165  -9.541  -1.161 -0.64 -0.00    +0.000    19.167
ATOM     20  C   UNL     1      21.745 -10.517  -0.126 -0.61 -0.00    +0.000    19.167
ATOM     21  O   UNL     1      19.890  -9.996   1.287 -0.63 -0.00    +0.000    19.167
ATOM     22  C   UNL     1      20.755 -10.850   0.953 -0.68 -0.00    +0.000    19.167
ATOM     23  N   UNL     1      20.809 -12.111   1.623 -0.71 -0.00    +0.000    19.167
ATOM     24  H   UNL     1      21.491 -12.772   1.365 -0.54 -0.00    +0.000    19.167
ATOM     25  O   UNL     1      19.930 -12.404   2.611 -1.40 -0.00    +0.000    19.167
ATOM     26  H   UNL     1      20.269 -13.147   3.136 -0.57 -0.00    +0.000    19.167
TER
ENDMDL
MODEL       62
USER    Run = 62
USER    Cluster Rank = 12
USER    Number of conformations in this cluster = 1
USER  
USER    RMSD from reference structure       = 16.748 A
USER  
USER    Estimated Free Energy of Binding    =   -9.17 kcal/mol  [=(1)+(2)+(3)-(4)]
USER    Estimated Inhibition Constant, Ki   =  189.23 nM (nanomolar)  [Temperature = 298.15 K]
USER    
USER    (1) Final Intermolecular Energy     =  -11.26 kcal/mol
USER        vdW + Hbond + desolv Energy     =  -11.26 kcal/mol
USER        Electrostatic Energy            =   +0.00 kcal/mol
USER    (2) Final Total Internal Energy     =   -1.06 kcal/mol
USER    (3) Torsional Free Energy           =   +2.09 kcal/mol
USER    (4) Unbound System's Energy  [=(2)] =   -1.06 kcal/mol
USER    
USER    
USER  
USER    DPF = ligand_dock.biased.dpf
USER    NEWDPF move	ligand.pdbqt
USER    NEWDPF about	0.154000 0.111000 -0.146000
USER    NEWDPF tran0	14.340100 -8.848151 1.835745
USER    NEWDPF axisangle0	0.421497 0.898187 -0.124898 163.057919
USER    NEWDPF quaternion0	0.416899 0.888389 -0.123536 0.147310
USER    NEWDPF dihe0	-1.06 107.03 96.09 -152.79 134.11 -174.41 -33.61 
USER  
USER                              x       y       z    vdW   Elec        q     RMS 
ATOM      1  N   UNL     1      14.631  -9.663   3.059 -0.31 +0.00    +0.000    16.748
ATOM      2  C   UNL     1      16.054  -9.489   3.194 -0.44 +0.00    +0.000    16.748
ATOM      3  C   UNL     1      16.983 -10.319   2.393 -0.41 +0.00    +0.000    16.748
ATOM      4  C   UNL     1      18.373 -10.139   2.499 -0.50 -0.00    +0.000    16.748
ATOM      5  C   UNL     1      19.250 -10.919   1.743 -0.56 -0.00    +0.000    16.748
ATOM      6  C   UNL     1      18.755 -11.889   0.872 -0.54 -0.00    +0.000    16.748
ATOM      7  C   UNL     1      17.373 -12.088   0.750 -0.46 +0.00    +0.000    16.748
ATOM      8  C   UNL     1      16.875 -13.065  -0.125 -0.46 +0.00    +0.000    16.748
ATOM      9  C   UNL     1      15.501 -13.264  -0.246 -0.49 +0.00    +0.000    16.748
ATOM     10  C   UNL     1      14.608 -12.495   0.502 -0.41 +0.00    +0.000    16.748
ATOM     11  C   UNL     1      15.082 -11.509   1.386 -0.39 +0.00    +0.000    16.748
ATOM     12  C   UNL     1      16.474 -11.300   1.514 -0.38 +0.00    +0.000    16.748
ATOM     13  O   UNL     1      16.512  -8.628   3.996 -0.32 +0.00    +0.000    16.748
ATOM     14  C   UNL     1      14.135 -10.691   2.178 -0.38 +0.00    +0.000    16.748
ATOM     15  O   UNL     1      12.895 -10.899   2.079 -0.36 +0.00    +0.000    16.748
ATOM     16  C   UNL     1      13.705  -8.778   3.786 -0.31 +0.00    +0.000    16.748
ATOM     17  C   UNL     1      14.169  -7.312   3.736 -0.30 +0.00    +0.000    16.748
ATOM     18  C   UNL     1      14.659  -6.759   5.088 -0.46 +0.00    +0.000    16.748
ATOM     19  C   UNL     1      14.595  -5.223   5.219 -0.46 +0.00    +0.000    16.748
ATOM     20  C   UNL     1      15.834  -4.485   4.688 -0.48 -0.00    +0.000    16.748
ATOM     21  O   UNL     1      16.425  -2.342   3.810 -0.51 -0.00    +0.000    16.748
ATOM     22  C   UNL     1      15.534  -3.053   4.347 -0.48 -0.00    +0.000    16.748
ATOM     23  N   UNL     1      14.259  -2.486   4.658 -0.30 -0.00    +0.000    16.748
ATOM     24  H   UNL     1      13.569  -3.042   5.084 -0.45 -0.00    +0.000    16.748
ATOM     25  O   UNL     1      13.995  -1.189   4.372 -0.53 -0.00    +0.000    16.748
ATOM     26  H   UNL     1      14.779  -0.779   3.973 -0.56 -0.00    +0.000    16.748
TER
ENDMDL
MODEL       20
USER    Run = 20
USER    Cluster Rank = 13
USER    Number of conformations in this cluster = 2
USER  
USER    RMSD from reference structure       = 20.427 A
USER  
USER    Estimated Free Energy of Binding    =   -8.98 kcal/mol  [=(1)+(2)+(3)-(4)]
USER    Estimated Inhibition Constant, Ki   =  262.10 nM (nanomolar)  [Temperature = 298.15 K]
USER    
USER    (1) Final Intermolecular Energy     =  -11.07 kcal/mol
USER        vdW + Hbond + desolv Energy     =  -11.07 kcal/mol
USER        Electrostatic Energy            =   +0.00 kcal/mol
USER    (2) Final Total Internal Energy     =   -2.42 kcal/mol
USER    (3) Torsional Free Energy           =   +2.09 kcal/mol
USER    (4) Unbound System's Energy  [=(2)] =   -2.42 kcal/mol
USER    
USER    
USER  
USER    DPF = ligand_dock.biased.dpf
USER    NEWDPF move	ligand.pdbqt
USER    NEWDPF about	0.154000 0.111000 -0.146000
USER    NEWDPF tran0	16.888580 -11.866071 -2.445517
USER    NEWDPF axisangle0	-0.456565 0.388440 -0.800414 177.844248
USER    NEWDPF quaternion0	-0.456484 0.388372 -0.800272 0.018811
USER    NEWDPF dihe0	-1.87 177.46 123.95 64.66 -140.68 46.17 14.09 
USER  
USER                              x       y       z    vdW   Elec        q     RMS 
ATOM      1  N   UNL     1      16.694 -10.422  -2.795 -0.24 -0.00    +0.000    20.427
ATOM      2  C   UNL     1      16.225 -10.513  -4.154 -0.22 -0.00    +0.000    20.427
ATOM      3  C   UNL     1      17.192 -10.674  -5.265 -0.23 -0.00    +0.000    20.427
ATOM      4  C   UNL     1      16.742 -10.789  -6.592 -0.26 -0.00    +0.000    20.427
ATOM      5  C   UNL     1      17.652 -10.944  -7.639 -0.29 -0.00    +0.000    20.427
ATOM      6  C   UNL     1      19.022 -10.986  -7.380 -0.24 -0.00    +0.000    20.427
ATOM      7  C   UNL     1      19.494 -10.874  -6.065 -0.34 -0.00    +0.000    20.427
ATOM      8  C   UNL     1      20.872 -10.916  -5.805 -0.39 -0.00    +0.000    20.427
ATOM      9  C   UNL     1      21.342 -10.801  -4.497 -0.47 -0.00    +0.000    20.427
ATOM     10  C   UNL     1      20.449 -10.645  -3.437 -0.44 -0.00    +0.000    20.427
ATOM     11  C   UNL     1      19.063 -10.601  -3.672 -0.34 -0.00    +0.000    20.427
ATOM     12  C   UNL     1      18.577 -10.716  -4.994 -0.31 -0.00    +0.000    20.427
ATOM     13  O   UNL     1      14.988 -10.453  -4.401 -0.24 -0.00    +0.000    20.427
ATOM     14  C   UNL     1      18.114 -10.436  -2.546 -0.28 -0.00    +0.000    20.427
ATOM     15  O   UNL     1      18.554 -10.308  -1.371 -0.34 -0.00    +0.000    20.427
ATOM     16  C   UNL     1      15.731 -10.353  -1.684 -0.30 -0.00    +0.000    20.427
ATOM     17  C   UNL     1      15.366 -11.754  -1.164 -0.36 +0.00    +0.000    20.427
ATOM     18  C   UNL     1      15.923 -12.072   0.237 -0.49 +0.00    +0.000    20.427
ATOM     19  C   UNL     1      17.448 -12.299   0.290 -0.54 +0.00    +0.000    20.427
ATOM     20  C   UNL     1      18.175 -11.506   1.387 -0.54 -0.00    +0.000    20.427
ATOM     21  O   UNL     1      20.267 -12.398   2.121 -1.64 -0.00    +0.000    20.427
ATOM     22  C   UNL     1      19.666 -11.657   1.298 -0.71 -0.00    +0.000    20.427
ATOM     23  N   UNL     1      20.409 -10.940   0.309 -0.60 -0.00    +0.000    20.427
ATOM     24  H   UNL     1      19.937 -10.355  -0.327 -0.01 -0.00    +0.000    20.427
ATOM     25  O   UNL     1      21.756 -11.057   0.241 -0.69 -0.00    +0.000    20.427
ATOM     26  H   UNL     1      22.067 -11.642   0.950 -0.58 -0.00    +0.000    20.427
TER
ENDMDL
MODEL       64
USER    Run = 64
USER    Cluster Rank = 14
USER    Number of conformations in this cluster = 2
USER  
USER    RMSD from reference structure       = 20.566 A
USER  
USER    Estimated Free Energy of Binding    =   -8.86 kcal/mol  [=(1)+(2)+(3)-(4)]
USER    Estimated Inhibition Constant, Ki   =  320.68 nM (nanomolar)  [Temperature = 298.15 K]
USER    
USER    (1) Final Intermolecular Energy     =  -10.95 kcal/mol
USER        vdW + Hbond + desolv Energy     =  -10.95 kcal/mol
USER        Electrostatic Energy            =   +0.00 kcal/mol
USER    (2) Final Total Internal Energy     =   -2.01 kcal/mol
USER    (3) Torsional Free Energy           =   +2.09 kcal/mol
USER    (4) Unbound System's Energy  [=(2)] =   -2.01 kcal/mol
USER    
USER    
USER  
USER    DPF = ligand_dock.biased.dpf
USER    NEWDPF move	ligand.pdbqt
USER    NEWDPF about	0.154000 0.111000 -0.146000
USER    NEWDPF tran0	19.697139 -8.977276 -1.422395
USER    NEWDPF axisangle0	0.595807 0.800846 0.060496 96.004101
USER    NEWDPF quaternion0	0.442785 0.595164 0.044959 0.669104
USER    NEWDPF dihe0	2.44 91.78 31.54 -122.98 37.58 128.21 -173.30 
USER  
USER                              x       y       z    vdW   Elec        q     RMS 
ATOM      1  N   UNL     1      19.974 -10.450  -1.432 -0.47 -0.00    +0.000    20.566
ATOM      2  C   UNL     1      20.896 -10.565  -2.534 -0.53 -0.00    +0.000    20.566
ATOM      3  C   UNL     1      20.388 -10.629  -3.923 -0.43 -0.00    +0.000    20.566
ATOM      4  C   UNL     1      21.280 -10.717  -5.006 -0.44 -0.00    +0.000    20.566
ATOM      5  C   UNL     1      20.802 -10.774  -6.317 -0.32 -0.00    +0.000    20.566
ATOM      6  C   UNL     1      19.430 -10.747  -6.567 -0.30 -0.00    +0.000    20.566
ATOM      7  C   UNL     1      18.521 -10.660  -5.504 -0.30 -0.00    +0.000    20.566
ATOM      8  C   UNL     1      17.142 -10.634  -5.756 -0.25 -0.00    +0.000    20.566
ATOM      9  C   UNL     1      16.237 -10.551  -4.698 -0.20 -0.00    +0.000    20.566
ATOM     10  C   UNL     1      16.695 -10.492  -3.382 -0.11 -0.00    +0.000    20.566
ATOM     11  C   UNL     1      18.073 -10.517  -3.103 -0.22 -0.00    +0.000    20.566
ATOM     12  C   UNL     1      18.997 -10.601  -4.168 -0.33 -0.00    +0.000    20.566
ATOM     13  O   UNL     1      22.138 -10.613  -2.316 -0.42 -0.00    +0.000    20.566
ATOM     14  C   UNL     1      18.558 -10.454  -1.705 -0.28 -0.00    +0.000    20.566
ATOM     15  O   UNL     1      17.729 -10.405  -0.756 -0.32 -0.00    +0.000    20.566
ATOM     16  C   UNL     1      20.480 -10.295  -0.058 -0.65 -0.00    +0.000    20.566
ATOM     17  C   UNL     1      20.511 -11.640   0.688 -0.58 -0.00    +0.000    20.566
ATOM     18  C   UNL     1      20.748 -11.515   2.205 -0.67 -0.00    +0.000    20.566
ATOM     19  C   UNL     1      19.503 -11.779   3.077 -0.65 -0.00    +0.000    20.566
ATOM     20  C   UNL     1      18.297 -10.882   2.758 -0.57 -0.00    +0.000    20.566
ATOM     21  O   UNL     1      16.232 -11.006   1.561 -0.40 +0.00    +0.000    20.566
ATOM     22  C   UNL     1      17.360 -11.525   1.776 -0.45 +0.00    +0.000    20.566
ATOM     23  N   UNL     1      17.726 -12.738   1.113 -0.48 +0.00    +0.000    20.566
ATOM     24  H   UNL     1      18.604 -13.145   1.290 -0.32 -0.00    +0.000    20.566
ATOM     25  O   UNL     1      16.873 -13.331   0.245 -1.22 +0.00    +0.000    20.566
ATOM     26  H   UNL     1      16.074 -12.788   0.154 -0.02 +0.00    +0.000    20.566
TER
ENDMDL
MODEL       51
USER    Run = 51
USER    Cluster Rank = 15
USER    Number of conformations in this cluster = 1
USER  
USER    RMSD from reference structure       = 18.087 A
USER  
USER    Estimated Free Energy of Binding    =   -8.60 kcal/mol  [=(1)+(2)+(3)-(4)]
USER    Estimated Inhibition Constant, Ki   =  493.92 nM (nanomolar)  [Temperature = 298.15 K]
USER    
USER    (1) Final Intermolecular Energy     =  -10.69 kcal/mol
USER        vdW + Hbond + desolv Energy     =  -10.69 kcal/mol
USER        Electrostatic Energy            =   +0.00 kcal/mol
USER    (2) Final Total Internal Energy     =   -2.71 kcal/mol
USER    (3) Torsional Free Energy           =   +2.09 kcal/mol
USER    (4) Unbound System's Energy  [=(2)] =   -2.71 kcal/mol
USER    
USER    
USER  
USER    DPF = ligand_dock.biased.dpf
USER    NEWDPF move	ligand.pdbqt
USER    NEWDPF about	0.154000 0.111000 -0.146000
USER    NEWDPF tran0	16.979285 -10.340072 -0.376287
USER    NEWDPF axisangle0	0.157164 0.932861 -0.324146 -56.815221
USER    NEWDPF quaternion0	0.074770 0.443800 -0.154209 -0.879585
USER    NEWDPF dihe0	-3.73 42.10 116.10 -161.43 -103.93 45.07 -25.99 
USER  
USER                              x       y       z    vdW   Elec        q     RMS 
ATOM      1  N   UNL     1      15.513 -10.581  -0.567 -0.27 +0.00    +0.000    18.087
ATOM      2  C   UNL     1      14.975  -9.256  -0.396 -0.26 -0.00    +0.000    18.087
ATOM      3  C   UNL     1      14.733  -8.723   0.965 -0.24 +0.00    +0.000    18.087
ATOM      4  C   UNL     1      14.232  -7.422   1.143 -0.22 +0.00    +0.000    18.087
ATOM      5  C   UNL     1      14.005  -6.918   2.425 -0.20 +0.00    +0.000    18.087
ATOM      6  C   UNL     1      14.274  -7.703   3.547 -0.26 +0.00    +0.000    18.087
ATOM      7  C   UNL     1      14.773  -9.004   3.395 -0.32 +0.00    +0.000    18.087
ATOM      8  C   UNL     1      15.041  -9.792   4.522 -0.34 +0.00    +0.000    18.087
ATOM      9  C   UNL     1      15.536 -11.087   4.371 -0.40 +0.00    +0.000    18.087
ATOM     10  C   UNL     1      15.768 -11.609   3.098 -0.38 +0.00    +0.000    18.087
ATOM     11  C   UNL     1      15.507 -10.838   1.951 -0.36 +0.00    +0.000    18.087
ATOM     12  C   UNL     1      15.006  -9.525   2.096 -0.28 +0.00    +0.000    18.087
ATOM     13  O   UNL     1      14.708  -8.546  -1.405 -0.24 -0.00    +0.000    18.087
ATOM     14  C   UNL     1      15.756 -11.391   0.600 -0.41 +0.00    +0.000    18.087
ATOM     15  O   UNL     1      16.179 -12.573   0.476 -0.96 +0.00    +0.000    18.087
ATOM     16  C   UNL     1      15.839 -11.078  -1.915 -0.18 -0.00    +0.000    18.087
ATOM     17  C   UNL     1      16.700 -10.070  -2.695 -0.24 -0.00    +0.000    18.087
ATOM     18  C   UNL     1      18.163 -10.510  -2.894 -0.29 -0.00    +0.000    18.087
ATOM     19  C   UNL     1      18.764 -11.306  -1.718 -0.37 -0.00    +0.000    18.087
ATOM     20  C   UNL     1      19.560 -10.459  -0.713 -0.49 -0.00    +0.000    18.087
ATOM     21  O   UNL     1      21.320 -11.347   0.638 -0.79 -0.00    +0.000    18.087
ATOM     22  C   UNL     1      20.079 -11.281   0.431 -0.66 -0.00    +0.000    18.087
ATOM     23  N   UNL     1      19.177 -12.015   1.264 -0.60 -0.00    +0.000    18.087
ATOM     24  H   UNL     1      18.209 -11.969   1.095 -0.01 -0.00    +0.000    18.087
ATOM     25  O   UNL     1      19.645 -12.776   2.282 -1.35 -0.00    +0.000    18.087
ATOM     26  H   UNL     1      20.616 -12.762   2.277 -0.57 -0.00    +0.000    18.087
TER
ENDMDL
MODEL       32
USER    Run = 32
USER    Cluster Rank = 16
USER    Number of conformations in this cluster = 1
USER  
USER    RMSD from reference structure       = 20.309 A
USER  
USER    Estimated Free Energy of Binding    =   -8.50 kcal/mol  [=(1)+(2)+(3)-(4)]
USER    Estimated Inhibition Constant, Ki   =  588.59 nM (nanomolar)  [Temperature = 298.15 K]
USER    
USER    (1) Final Intermolecular Energy     =  -10.59 kcal/mol
USER        vdW + Hbond + desolv Energy     =  -10.59 kcal/mol
USER        Electrostatic Energy            =   +0.00 kcal/mol
USER    (2) Final Total Internal Energy     =   -2.64 kcal/mol
USER    (3) Torsional Free Energy           =   +2.09 kcal/mol
USER    (4) Unbound System's Energy  [=(2)] =   -2.64 kcal/mol
USER    
USER    
USER  
USER    DPF = ligand_dock.biased.dpf
USER    NEWDPF move	ligand.pdbqt
USER    NEWDPF about	0.154000 0.111000 -0.146000
USER    NEWDPF tran0	19.038143 -9.260153 -1.629791
USER    NEWDPF axisangle0	-0.148895 0.775062 0.614092 -80.967492
USER    NEWDPF quaternion0	-0.096668 0.503195 0.398688 -0.760590
USER    NEWDPF dihe0	1.64 92.63 58.14 -172.94 -14.53 161.47 164.38 
USER  
USER                              x       y       z    vdW   Elec        q     RMS 
ATOM      1  N   UNL     1      18.639 -10.688  -1.845 -0.36 -0.00    +0.000    20.309
ATOM      2  C   UNL     1      17.310 -10.706  -1.290 -0.30 -0.00    +0.000    20.309
ATOM      3  C   UNL     1      17.117 -10.849   0.171 -0.33 -0.00    +0.000    20.309
ATOM      4  C   UNL     1      15.824 -10.842   0.725 -0.31 +0.00    +0.000    20.309
ATOM      5  C   UNL     1      15.642 -10.974   2.103 -0.38 +0.00    +0.000    20.309
ATOM      6  C   UNL     1      16.742 -11.116   2.948 -0.36 +0.00    +0.000    20.309
ATOM      7  C   UNL     1      18.041 -11.127   2.419 -0.45 -0.00    +0.000    20.309
ATOM      8  C   UNL     1      19.147 -11.271   3.269 -0.57 -0.00    +0.000    20.309
ATOM      9  C   UNL     1      20.438 -11.284   2.743 -0.64 -0.00    +0.000    20.309
ATOM     10  C   UNL     1      20.642 -11.153   1.369 -0.65 -0.00    +0.000    20.309
ATOM     11  C   UNL     1      19.549 -11.007   0.496 -0.54 -0.00    +0.000    20.309
ATOM     12  C   UNL     1      18.237 -10.993   1.020 -0.44 -0.00    +0.000    20.309
ATOM     13  O   UNL     1      16.307 -10.600  -2.049 -0.30 -0.00    +0.000    20.309
ATOM     14  C   UNL     1      19.765 -10.867  -0.962 -0.52 -0.00    +0.000    20.309
ATOM     15  O   UNL     1      20.937 -10.907  -1.428 -0.60 -0.00    +0.000    20.309
ATOM     16  C   UNL     1      18.835 -10.455  -3.286 -0.37 -0.00    +0.000    20.309
ATOM     17  C   UNL     1      19.542 -11.644  -3.959 -0.38 -0.00    +0.000    20.309
ATOM     18  C   UNL     1      20.681 -11.242  -4.916 -0.53 -0.00    +0.000    20.309
ATOM     19  C   UNL     1      21.761 -10.337  -4.290 -0.46 -0.00    +0.000    20.309
ATOM     20  C   UNL     1      21.714  -8.872  -4.752 -0.32 -0.00    +0.000    20.309
ATOM     21  O   UNL     1      21.612  -6.685  -3.793 -0.32 -0.00    +0.000    20.309
ATOM     22  C   UNL     1      21.498  -7.926  -3.606 -0.35 -0.00    +0.000    20.309
ATOM     23  N   UNL     1      21.197  -8.426  -2.300 -0.47 -0.00    +0.000    20.309
ATOM     24  H   UNL     1      21.116  -9.396  -2.156 -0.02 -0.00    +0.000    20.309
ATOM     25  O   UNL     1      21.024  -7.575  -1.261 -0.56 -0.00    +0.000    20.309
ATOM     26  H   UNL     1      21.111  -6.660  -1.573 -0.05 +0.00    +0.000    20.309
TER
ENDMDL
MODEL       25
USER    Run = 25
USER    Cluster Rank = 17
USER    Number of conformations in this cluster = 2
USER  
USER    RMSD from reference structure       = 18.222 A
USER  
USER    Estimated Free Energy of Binding    =   -8.20 kcal/mol  [=(1)+(2)+(3)-(4)]
USER    Estimated Inhibition Constant, Ki   =  970.31 nM (nanomolar)  [Temperature = 298.15 K]
USER    
USER    (1) Final Intermolecular Energy     =  -10.29 kcal/mol
USER        vdW + Hbond + desolv Energy     =  -10.29 kcal/mol
USER        Electrostatic Energy            =   +0.00 kcal/mol
USER    (2) Final Total Internal Energy     =   -2.62 kcal/mol
USER    (3) Torsional Free Energy           =   +2.09 kcal/mol
USER    (4) Unbound System's Energy  [=(2)] =   -2.62 kcal/mol
USER    
USER    
USER  
USER    DPF = ligand_dock.biased.dpf
USER    NEWDPF move	ligand.pdbqt
USER    NEWDPF about	0.154000 0.111000 -0.146000
USER    NEWDPF tran0	17.019819 -12.339480 -2.323516
USER    NEWDPF axisangle0	-0.947602 0.228684 0.223055 169.881456
USER    NEWDPF quaternion0	-0.943910 0.227793 0.222186 0.088186
USER    NEWDPF dihe0	-7.72 154.96 160.92 40.50 -170.89 69.08 179.69 
USER  
USER                              x       y       z    vdW   Elec        q     RMS 
ATOM      1  N   UNL     1      17.344 -11.340  -1.255 -0.29 -0.00    +0.000    18.222
ATOM      2  C   UNL     1      16.665 -11.901  -0.116 -0.47 +0.00    +0.000    18.222
ATOM      3  C   UNL     1      15.215 -11.668   0.074 -0.37 +0.00    +0.000    18.222
ATOM      4  C   UNL     1      14.539 -12.233   1.170 -0.40 +0.00    +0.000    18.222
ATOM      5  C   UNL     1      13.171 -12.016   1.349 -0.32 +0.00    +0.000    18.222
ATOM      6  C   UNL     1      12.459 -11.233   0.441 -0.34 +0.00    +0.000    18.222
ATOM      7  C   UNL     1      13.111 -10.659  -0.659 -0.26 +0.00    +0.000    18.222
ATOM      8  C   UNL     1      12.395  -9.871  -1.572 -0.20 -0.00    +0.000    18.222
ATOM      9  C   UNL     1      13.044  -9.298  -2.664 -0.17 -0.00    +0.000    18.222
ATOM     10  C   UNL     1      14.410  -9.503  -2.860 -0.20 -0.00    +0.000    18.222
ATOM     11  C   UNL     1      15.151 -10.289  -1.960 -0.25 -0.00    +0.000    18.222
ATOM     12  C   UNL     1      14.500 -10.873  -0.850 -0.29 +0.00    +0.000    18.222
ATOM     13  O   UNL     1      17.306 -12.593   0.724 -0.88 +0.00    +0.000    18.222
ATOM     14  C   UNL     1      16.600 -10.507  -2.169 -0.26 -0.00    +0.000    18.222
ATOM     15  O   UNL     1      17.181  -9.962  -3.147 -0.28 -0.00    +0.000    18.222
ATOM     16  C   UNL     1      18.764 -11.646  -1.495 -0.28 -0.00    +0.000    18.222
ATOM     17  C   UNL     1      19.668 -10.459  -1.119 -0.50 -0.00    +0.000    18.222
ATOM     18  C   UNL     1      20.892 -10.844  -0.265 -0.65 -0.00    +0.000    18.222
ATOM     19  C   UNL     1      20.754 -10.530   1.239 -0.59 -0.00    +0.000    18.222
ATOM     20  C   UNL     1      20.539 -11.763   2.131 -0.78 -0.00    +0.000    18.222
ATOM     21  O   UNL     1      19.752 -11.749   4.388 -0.74 -0.00    +0.000    18.222
ATOM     22  C   UNL     1      19.487 -11.525   3.176 -0.70 -0.00    +0.000    18.222
ATOM     23  N   UNL     1      18.181 -11.079   2.802 -0.50 -0.00    +0.000    18.222
ATOM     24  H   UNL     1      17.975 -10.913   1.854 -0.00 -0.00    +0.000    18.222
ATOM     25  O   UNL     1      17.224 -10.886   3.741 -0.53 +0.00    +0.000    18.222
ATOM     26  H   UNL     1      17.543 -11.207   4.599 -0.04 +0.00    +0.000    18.222
TER
ENDMDL
MODEL       11
USER    Run = 11
USER    Cluster Rank = 18
USER    Number of conformations in this cluster = 1
USER  
USER    RMSD from reference structure       = 22.345 A
USER  
USER    Estimated Free Energy of Binding    =   -7.65 kcal/mol  [=(1)+(2)+(3)-(4)]
USER    Estimated Inhibition Constant, Ki   =    2.46 uM (micromolar)  [Temperature = 298.15 K]
USER    
USER    (1) Final Intermolecular Energy     =   -9.74 kcal/mol
USER        vdW + Hbond + desolv Energy     =   -9.74 kcal/mol
USER        Electrostatic Energy            =   +0.00 kcal/mol
USER    (2) Final Total Internal Energy     =   -3.08 kcal/mol
USER    (3) Torsional Free Energy           =   +2.09 kcal/mol
USER    (4) Unbound System's Energy  [=(2)] =   -3.08 kcal/mol
USER    
USER    
USER  
USER    DPF = ligand_dock.biased.dpf
USER    NEWDPF move	ligand.pdbqt
USER    NEWDPF about	0.154000 0.111000 -0.146000
USER    NEWDPF tran0	20.709867 -10.081816 -6.362923
USER    NEWDPF axisangle0	-0.125226 -0.866134 0.483871 88.755100
USER    NEWDPF quaternion0	-0.087581 -0.605760 0.338411 0.714747
USER    NEWDPF dihe0	-144.70 83.40 -125.62 102.59 -155.97 10.03 -20.50 
USER  
USER                              x       y       z    vdW   Elec        q     RMS 
ATOM      1  N   UNL     1      19.326  -9.773  -5.879 -0.19 -0.00    +0.000    22.345
ATOM      2  C   UNL     1      19.395  -8.347  -5.691 -0.15 -0.00    +0.000    22.345
ATOM      3  C   UNL     1      19.978  -7.788  -4.449 -0.20 -0.00    +0.000    22.345
ATOM      4  C   UNL     1      20.072  -6.397  -4.267 -0.18 -0.00    +0.000    22.345
ATOM      5  C   UNL     1      20.624  -5.870  -3.099 -0.28 -0.00    +0.000    22.345
ATOM      6  C   UNL     1      21.088  -6.720  -2.094 -0.41 -0.00    +0.000    22.345
ATOM      7  C   UNL     1      21.004  -8.110  -2.252 -0.41 -0.00    +0.000    22.345
ATOM      8  C   UNL     1      21.470  -8.964  -1.242 -0.42 -0.00    +0.000    22.345
ATOM      9  C   UNL     1      21.385 -10.346  -1.398 -0.57 -0.00    +0.000    22.345
ATOM     10  C   UNL     1      20.836 -10.893  -2.558 -0.34 -0.00    +0.000    22.345
ATOM     11  C   UNL     1      20.362 -10.058  -3.586 -0.40 -0.00    +0.000    22.345
ATOM     12  C   UNL     1      20.445  -8.656  -3.436 -0.33 -0.00    +0.000    22.345
ATOM     13  O   UNL     1      18.957  -7.570  -6.584 -0.08 -0.00    +0.000    22.345
ATOM     14  C   UNL     1      19.781 -10.638  -4.819 -0.41 -0.00    +0.000    22.345
ATOM     15  O   UNL     1      19.686 -11.891  -4.936 -0.60 -0.00    +0.000    22.345
ATOM     16  C   UNL     1      18.831 -10.329  -7.149 -0.28 -0.00    +0.000    22.345
ATOM     17  C   UNL     1      19.623  -9.786  -8.351 -0.20 -0.00    +0.000    22.345
ATOM     18  C   UNL     1      21.040 -10.377  -8.491 -0.23 -0.00    +0.000    22.345
ATOM     19  C   UNL     1      22.130  -9.637  -7.689 -0.22 -0.00    +0.000    22.345
ATOM     20  C   UNL     1      23.476 -10.375  -7.610 -0.34 -0.00    +0.000    22.345
ATOM     21  O   UNL     1      24.252 -12.558  -7.024 -1.06 +0.00    +0.000    22.345
ATOM     22  C   UNL     1      23.359 -11.682  -6.878 -0.47 -0.00    +0.000    22.345
ATOM     23  N   UNL     1      22.227 -11.948  -6.047 -0.51 -0.00    +0.000    22.345
ATOM     24  H   UNL     1      21.527 -11.264  -5.942 -0.07 -0.00    +0.000    22.345
ATOM     25  O   UNL     1      22.109 -13.134  -5.404 -0.74 -0.00    +0.000    22.345
ATOM     26  H   UNL     1      21.174 -13.394  -5.372 -0.65 -0.00    +0.000    22.345
TER
ENDMDL


AVSFLD: # AVS field file
AVSFLD: #
AVSFLD: # Created by AutoDock
AVSFLD: #
AVSFLD: ndim=2           # number of dimensions in the field
AVSFLD: nspace=1         # number of physical coordinates
AVSFLD: veclen=7         # vector size
AVSFLD: dim1=26          # atoms
AVSFLD: dim2=18          # conformations
AVSFLD: data=Real       # data type (byte,integer,Real,double)
AVSFLD: field=uniform    # field coordinate layout
AVSFLD: label= x y z vdW Elec q RMS
AVSFLD: variable 1 file = ligand_dock.biased.dlg.pdb filetype = ascii offset = 5 stride = 12
AVSFLD: variable 2 file = ligand_dock.biased.dlg.pdb filetype = ascii offset = 6 stride = 12
AVSFLD: variable 3 file = ligand_dock.biased.dlg.pdb filetype = ascii offset = 7 stride = 12
AVSFLD: variable 4 file = ligand_dock.biased.dlg.pdb filetype = ascii offset = 8 stride = 12
AVSFLD: variable 5 file = ligand_dock.biased.dlg.pdb filetype = ascii offset = 9 stride = 12
AVSFLD: variable 6 file = ligand_dock.biased.dlg.pdb filetype = ascii offset = 10 stride = 12
AVSFLD: variable 7 file = ligand_dock.biased.dlg.pdb filetype = ascii offset = 11 stride = 12
AVSFLD: # end of file

>>> Closing the docking parameter file (DPF)...
This docking finished at:			5:42 46" p.m., 11/03/2024


________________________________________________________________________________

autodock4: Successful Completion on "ThinkStation-P620"

Real= 11m 31.29s,  CPU= 11m 31.02s,  System= 0.19s
________________________________________________________________________________

