REMARK  Name = 
REMARK  9 active torsions:
REMARK  status: ('A' for Active; 'I' for Inactive)
REMARK    1  A    between atoms: O_1  and  N_2
REMARK    2  A    between atoms: C_3  and  C_4
REMARK    3  A    between atoms: C_4  and  C_5
REMARK    4  A    between atoms: C_5  and  C_6
REMARK    5  A    between atoms: C_6  and  C_7
REMARK    6  A    between atoms: C_7  and  C_8
REMARK    7  A    between atoms: C_8  and  C_9
REMARK    8  A    between atoms: C_9  and  C_10
REMARK    9  A    between atoms: N_11  and  O_12
REMARK                            x       y       z     vdW  Elec       q    Type
REMARK                         _______ _______ _______ _____ _____    ______ ____
ROOT
ATOM      1  C   UNL     1       0.104  -0.325  -1.032  0.00  0.00    +0.000 C 
ENDROOT
BRANCH   1   2
ATOM      2  C   UNL     1       1.216  -0.814  -0.097  0.00  0.00    +0.000 C 
BRANCH   2   3
ATOM      3  C   UNL     1       2.417   0.135  -0.128  0.00  0.00    +0.000 C 
BRANCH   3   5
ATOM      4  N   UNL     1       3.438  -0.036   2.192  0.00  0.00    +0.000 N 
ATOM      5  C   UNL     1       3.493  -0.348   0.797  0.00  0.00    +0.000 C 
ATOM      6  O   UNL     1       4.427  -1.065   0.349  0.00  0.00    +0.000 OA
ATOM      7  H   UNL     1       2.701   0.517   2.539  0.00  0.00    +0.000 HD
BRANCH   4   8
ATOM      8  O   UNL     1       4.391  -0.493   3.038  0.00  0.00    +0.000 OA
ATOM      9  H   UNL     1       4.197  -0.188   3.938  0.00  0.00    +0.000 HD
ENDBRANCH   4   8
ENDBRANCH   3   5
ENDBRANCH   2   3
ENDBRANCH   1   2
BRANCH   1  10
ATOM     10  C   UNL     1      -1.102  -1.276  -0.999  0.00  0.00    +0.000 C 
BRANCH  10  11
ATOM     11  C   UNL     1      -2.263  -0.786  -1.889  0.00  0.00    +0.000 C 
BRANCH  11  12
ATOM     12  C   UNL     1      -3.331   0.008  -1.120  0.00  0.00    +0.000 C 
BRANCH  12  13
ATOM     13  C   UNL     1      -2.818   1.332  -0.636  0.00  0.00    +0.000 C 
ATOM     14  N   UNL     1      -2.415   1.498   0.726  0.00  0.00    +0.000 N 
ATOM     15  O   UNL     1      -2.715   2.294  -1.444  0.00  0.00    +0.000 OA
ATOM     16  H   UNL     1      -2.493   0.744   1.354  0.00  0.00    +0.000 HD
BRANCH  14  17
ATOM     17  O   UNL     1      -1.925   2.684   1.160  0.00  0.00    +0.000 OA
ATOM     18  H   UNL     1      -1.913   3.317   0.425  0.00  0.00    +0.000 HD
ENDBRANCH  14  17
ENDBRANCH  12  13
ENDBRANCH  11  12
ENDBRANCH  10  11
ENDBRANCH   1  10
TORSDOF 9
