          AutoDock 4.2 Release 4.2.6   
         (C) 1989-2012 The Scripps Research Institute
        AutoDock comes with ABSOLUTELY NO WARRANTY.
        AutoDock is free software, and you are welcome
        to redistribute it under certain conditions;
        for details type 'autodock4 -C'

                     main.cc  $Revision: 1.213 $

                   Compiled on Feb 20 2022 at 09:48:33


This file was created at:			6:39 07" p.m., 11/08/2024
                   on host:		"ThinkStation-P620"
Current Working Directory = "/home/antonio/Documenti/buccheri/IDROSSAMICO HDAC/HDAC 8/P (copia)/Ligand_8"

      ________________________________________________________________

                   SETTING UP DEFAULT PARAMETER LIBRARY
      ________________________________________________________________


Random number generator was seeded with values 358161, 1731087547.
Docking parameter file (DPF) used for this docking:		ligand_dock.biased.dpf
DPF> autodock_parameter_version 4.2       # used by autodock to validate parameter set

	Autodock parameter version 4.2.
DPF> outlev 1                             # diagnostic output level

Output Level = 1  ADT-COMPATIBLE OUTPUT DURING DOCKING.
DPF> intelec                              # calculate internal electrostatics

Electrostatic energies will be calculated for all non-bonds between moving atoms.
DPF> seed pid time                        # seeds for random generator

Random number generator was seeded with values 358161, 1731087547.
DPF> ligand_types C HD OA N               # atoms types in ligand

DPF> fld receptor.maps.fld                # grid_data_file

Opening Grid Map Dimensions file:		receptor.maps.fld
Grid Point Spacing =				0.375 Angstroms

Even Number of User-specified Grid Points =	70 x-points
						70 y-points
						70 z-points

Coordinates of Central Grid Point of Maps =	(36.691, 12.592, 124.207)
Macromolecule file used to create Grid Maps =	receptor.pdbqt
Grid Parameter file used to create Grid Maps =	receptor.gpf
Minimum coordinates in grid = (23.566, -0.533, 111.082)
Maximum coordinates in grid = (49.816, 25.717, 137.332)

DPF> map receptor.C.map                   # atom-specific affinity map

DPF> map receptor.HD.map                  # atom-specific affinity map

DPF> map receptor.OA.biased.map

DPF> map receptor.N.map                   # atom-specific affinity map

DPF> elecmap receptor.e.map               # electrostatics map

DPF> desolvmap receptor.d.map             # desolvation map

DPF> move ligand.pdbqt                    # small molecule

1,4-interactions will be _ignored_ in the non-bonded internal energy calculation.

Ligand PDBQT file = "ligand.pdbqt"

INPUT LIGAND PDBQT FILE:
________________________

INPUT-LIGAND-PDBQT: REMARK  Name = 
INPUT-LIGAND-PDBQT: REMARK  9 active torsions:
INPUT-LIGAND-PDBQT: REMARK  status: ('A' for Active; 'I' for Inactive)
INPUT-LIGAND-PDBQT: REMARK    1  A    between atoms: O_1  and  N_2
INPUT-LIGAND-PDBQT: REMARK    2  A    between atoms: C_3  and  C_4
INPUT-LIGAND-PDBQT: REMARK    3  A    between atoms: C_4  and  C_5
INPUT-LIGAND-PDBQT: REMARK    4  A    between atoms: C_5  and  C_6
INPUT-LIGAND-PDBQT: REMARK    5  A    between atoms: C_6  and  C_7
INPUT-LIGAND-PDBQT: REMARK    6  A    between atoms: C_7  and  C_8
INPUT-LIGAND-PDBQT: REMARK    7  A    between atoms: C_8  and  C_9
INPUT-LIGAND-PDBQT: REMARK    8  A    between atoms: C_9  and  C_10
INPUT-LIGAND-PDBQT: REMARK    9  A    between atoms: N_11  and  O_12
INPUT-LIGAND-PDBQT: REMARK                            x       y       z     vdW  Elec       q    Type
INPUT-LIGAND-PDBQT: REMARK                         _______ _______ _______ _____ _____    ______ ____
INPUT-LIGAND-PDBQT: ROOT
INPUT-LIGAND-PDBQT: ATOM      1  C   UNL     1       0.104  -0.325  -1.032  0.00  0.00    +0.000 C 
INPUT-LIGAND-PDBQT: ENDROOT
INPUT-LIGAND-PDBQT: BRANCH   1   2
INPUT-LIGAND-PDBQT: ATOM      2  C   UNL     1       1.216  -0.814  -0.097  0.00  0.00    +0.000 C 
INPUT-LIGAND-PDBQT: BRANCH   2   3
INPUT-LIGAND-PDBQT: ATOM      3  C   UNL     1       2.417   0.135  -0.128  0.00  0.00    +0.000 C 
INPUT-LIGAND-PDBQT: BRANCH   3   5
INPUT-LIGAND-PDBQT: ATOM      4  N   UNL     1       3.438  -0.036   2.192  0.00  0.00    +0.000 N 
INPUT-LIGAND-PDBQT: ATOM      5  C   UNL     1       3.493  -0.348   0.797  0.00  0.00    +0.000 C 
INPUT-LIGAND-PDBQT: ATOM      6  O   UNL     1       4.427  -1.065   0.349  0.00  0.00    +0.000 OA
INPUT-LIGAND-PDBQT: ATOM      7  H   UNL     1       2.701   0.517   2.539  0.00  0.00    +0.000 HD
INPUT-LIGAND-PDBQT: BRANCH   4   8
INPUT-LIGAND-PDBQT: ATOM      8  O   UNL     1       4.391  -0.493   3.038  0.00  0.00    +0.000 OA
INPUT-LIGAND-PDBQT: ATOM      9  H   UNL     1       4.197  -0.188   3.938  0.00  0.00    +0.000 HD
INPUT-LIGAND-PDBQT: ENDBRANCH   4   8
INPUT-LIGAND-PDBQT: ENDBRANCH   3   5
INPUT-LIGAND-PDBQT: ENDBRANCH   2   3
INPUT-LIGAND-PDBQT: ENDBRANCH   1   2
INPUT-LIGAND-PDBQT: BRANCH   1  10
INPUT-LIGAND-PDBQT: ATOM     10  C   UNL     1      -1.102  -1.276  -0.999  0.00  0.00    +0.000 C 
INPUT-LIGAND-PDBQT: BRANCH  10  11
INPUT-LIGAND-PDBQT: ATOM     11  C   UNL     1      -2.263  -0.786  -1.889  0.00  0.00    +0.000 C 
INPUT-LIGAND-PDBQT: BRANCH  11  12
INPUT-LIGAND-PDBQT: ATOM     12  C   UNL     1      -3.331   0.008  -1.120  0.00  0.00    +0.000 C 
INPUT-LIGAND-PDBQT: BRANCH  12  13
INPUT-LIGAND-PDBQT: ATOM     13  C   UNL     1      -2.818   1.332  -0.636  0.00  0.00    +0.000 C 
INPUT-LIGAND-PDBQT: ATOM     14  N   UNL     1      -2.415   1.498   0.726  0.00  0.00    +0.000 N 
INPUT-LIGAND-PDBQT: ATOM     15  O   UNL     1      -2.715   2.294  -1.444  0.00  0.00    +0.000 OA
INPUT-LIGAND-PDBQT: ATOM     16  H   UNL     1      -2.493   0.744   1.354  0.00  0.00    +0.000 HD
INPUT-LIGAND-PDBQT: BRANCH  14  17
INPUT-LIGAND-PDBQT: ATOM     17  O   UNL     1      -1.925   2.684   1.160  0.00  0.00    +0.000 OA
INPUT-LIGAND-PDBQT: ATOM     18  H   UNL     1      -1.913   3.317   0.425  0.00  0.00    +0.000 HD
INPUT-LIGAND-PDBQT: ENDBRANCH  14  17
INPUT-LIGAND-PDBQT: ENDBRANCH  12  13
INPUT-LIGAND-PDBQT: ENDBRANCH  11  12
INPUT-LIGAND-PDBQT: ENDBRANCH  10  11
INPUT-LIGAND-PDBQT: ENDBRANCH   1  10
INPUT-LIGAND-PDBQT: TORSDOF 9
________________________________________________________________________________

Total charge on ligand                               =	+0.000 e
REMARK  Name = 
REMARK  9 active torsions:
REMARK  status: ('A' for Active; 'I' for Inactive)
REMARK    1  A    between atoms: O_1  and  N_2
REMARK    2  A    between atoms: C_3  and  C_4
REMARK    3  A    between atoms: C_4  and  C_5
REMARK    4  A    between atoms: C_5  and  C_6
REMARK    5  A    between atoms: C_6  and  C_7
REMARK    6  A    between atoms: C_7  and  C_8
REMARK    7  A    between atoms: C_8  and  C_9
REMARK    8  A    between atoms: C_9  and  C_10
REMARK    9  A    between atoms: N_11  and  O_12
REMARK                            x       y       z     vdW  Elec       q    Type
REMARK                         _______ _______ _______ _____ _____    ______ ____


Number of Rotatable Bonds in Small Molecule =	9 torsions
Number of atoms in ligand:  18

Number of non-hydrogen atoms in ligand:  14

Number of vibrational degrees of freedom of ligand:  48


Number of torsional degrees of freedom = 9
Estimated loss of torsional free energy upon binding = +2.6847 kcal/mol


DPF> about 0.300 0.400 0.510            # small molecule center

Small molecule center of rotation =	(+0.300, +0.400, +0.510)

DPF> tran0 random                         # initial coordinates/A or random

Initial translation =			(45.355, 4.119, 137.163) Angstroms
DPF> quaternion0 random                   # initial orientation

Each run will begin with a new, random initial orientation.
Initial quaternion,  (x,y,z,w) =	( 0.858, -0.026, 0.173, 0.484 ),
DPF> dihe0 random                         # initial dihedrals (relative) or random

DPF> torsdof 9                            # torsional degrees of freedom

Number of torsional degrees of freedom = 9
Free energy coefficient for torsional degrees of freedom = 0.2983, the factory default value.

Estimated loss of torsional free energy upon binding = +2.6847 kcal/mol

DPF> rmstol 2.0                           # cluster_tolerance/A

Maximum RMS tolerance for conformational cluster analysis = 2.00 Angstroms
DPF> extnrg 1000.0                        # external grid energy

External grid energy (beyond grid map walls) = 1000.00

DPF> e0max 0.0 10000                      # max initial energy; max number of retries

Using user-specified maximum number of retries for simanneal initialization, 10000 retries.
If the simanneal initial energy is greater than e0max, 0.000,
then a new, random initial state will be created.

DPF> ga_pop_size 150                      # number of individuals in population

A population of 150 individuals will be used
DPF> ga_num_evals 2500000                 # maximum number of energy evaluations

There will be at most 2500000 function evaluations used.
DPF> ga_num_generations 27000             # maximum number of generations

The GA will run for at most 27000 generations.
DPF> ga_elitism 1                         # number of top individuals to survive to next generation

The 1 best will be preserved each GA generation.
DPF> ga_mutation_rate 0.02                # rate of gene mutation

The mutation rate is 0.020000.
DPF> ga_crossover_rate 0.8                # rate of crossover

The crossover rate is 0.800000.
DPF> ga_window_size 10                    # 

The GA's selection window is 10 generations.
DPF> ga_cauchy_alpha 0.0                  # Alpha parameter of Cauchy distribution

The alpha parameter (for the Cauchy distribution) is being set to 0.000000.
DPF> ga_cauchy_beta 1.0                   # Beta parameter Cauchy distribution

The beta parameter (for the Cauchy distribution) is being set to 1.000000.
DPF> set_ga                               # set the above parameters for GA or LGA

DPF> sw_max_its 300                       # iterations of Solis & Wets local search

Solis & Wets algorithms will perform at most 300 iterations.
DPF> sw_max_succ 4                        # consecutive successes before changing rho

Solis & Wets algorithms expand rho every 4 in a row successes.
DPF> sw_max_fail 4                        # consecutive failures before changing rho

Solis & Wets algorithms contract rho every 4 in a row failures.
DPF> sw_rho 1.0                           # size of local search space to sample

rho is set to 1.000000.
DPF> sw_lb_rho 0.01                       # lower bound on rho

rho will never get smaller than 0.010000.
DPF> ls_search_freq 0.06                  # probability of performing local search on individual

Local search will be performed with frequency 0.060000.
DPF> set_psw1                             # set the above pseudo-Solis & Wets parameters

Creating a new Local Search object using the pseudo-Solis-Wets algorithm (pSW1) with the current settings.

DPF> unbound_model bound                  # state of unbound ligand

DPF> ga_run 100                           # do this many hybrid GA-LS runs

centering ligand on specified point: 0.300 0.400 0.510
Furthest true ligand atom from "about" center is 5.223 Angstroms (maxrad).
Number of requested GA dockings = 100 runs
Unbound model to be used is 'same as bound' [AutoDock 4.2 default].

	BEGINNING GENETIC ALGORITHM DOCKING 1 of 100
Run: 1 Seed: 203758305 727234352 [ Run 1 of 100 GA/GALS ]
Beginning LAMARCKIAN GENETIC ALGORITHM (LGA), with a maximum of 2500000 energy evaluations.

Final-Value: -13.145


	FINAL GENETIC ALGORITHM DOCKED STATE
	_______________________________________________


Detailed state:  trans 37.942 11.443 122.484 quatxyzw -0.124998 -0.127381 -0.937046 -0.300158 center 0.300 0.400 0.510 ntor 9 180.0000 -2.5506 -169.1324 32.6928 -127.6257 158.8276 -24.2856 170.1000 -179.9210
State:	 37.942  11.443 122.484  -0.131 -0.134 -0.982 -145.066    180.00   -2.55 -169.13   32.69 -127.63  158.83  -24.29  170.10 -179.92

DOCKED: MODEL        1
DOCKED: USER    Run = 1
DOCKED: USER    DPF = ligand_dock.biased.dpf
DOCKED: USER  
DOCKED: USER    Estimated Free Energy of Binding    =   -8.95 kcal/mol  [=(1)+(2)+(3)-(4)]
DOCKED: USER    Estimated Inhibition Constant, Ki   =  275.81 nM (nanomolar)  [Temperature = 298.15 K]
DOCKED: USER    
DOCKED: USER    (1) Final Intermolecular Energy     =  -11.63 kcal/mol
DOCKED: USER        vdW + Hbond + desolv Energy     =  -11.63 kcal/mol
DOCKED: USER        Electrostatic Energy            =   +0.00 kcal/mol
DOCKED: USER    (2) Final Total Internal Energy     =   -1.51 kcal/mol
DOCKED: USER    (3) Torsional Free Energy           =   +2.68 kcal/mol
DOCKED: USER    (4) Unbound System's Energy  [=(2)] =   -1.51 kcal/mol
DOCKED: USER    
DOCKED: USER    
DOCKED: USER    NEWDPF move ligand.pdbqt
DOCKED: USER    NEWDPF about 0.300000 0.400000 0.510000
DOCKED: USER    NEWDPF tran0 37.942137 11.442911 122.484258
DOCKED: USER    NEWDPF quaternion0 -0.124998 -0.127381 -0.937046 -0.300158
DOCKED: USER    NEWDPF axisangle0 -0.131041 -0.133539 -0.982342 -145.065869
DOCKED: USER    NEWDPF quat0 -0.131041 -0.133539 -0.982342 -145.065869
DOCKED: USER    NEWDPF dihe0 180.00 -2.55 -169.13 32.69 -127.63 158.83 -24.29 170.10 -179.92 
DOCKED: USER  keepresnum = 1 
DOCKED: USER  
DOCKED: REMARK  Name = 
DOCKED: REMARK  9 active torsions:
DOCKED: REMARK  status: ('A' for Active; 'I' for Inactive)
DOCKED: REMARK    1  A    between atoms: O_1  and  N_2
DOCKED: REMARK    2  A    between atoms: C_3  and  C_4
DOCKED: REMARK    3  A    between atoms: C_4  and  C_5
DOCKED: REMARK    4  A    between atoms: C_5  and  C_6
DOCKED: REMARK    5  A    between atoms: C_6  and  C_7
DOCKED: REMARK    6  A    between atoms: C_7  and  C_8
DOCKED: REMARK    7  A    between atoms: C_8  and  C_9
DOCKED: REMARK    8  A    between atoms: C_9  and  C_10
DOCKED: REMARK    9  A    between atoms: N_11  and  O_12
DOCKED: REMARK                            x       y       z     vdW  Elec       q    Type
DOCKED: REMARK                         _______ _______ _______ _____ _____    ______ ____
DOCKED: USER                              x       y       z     vdW  Elec       q    Type
DOCKED: USER                           _______ _______ _______ _____ _____    ______ ____
DOCKED: ROOT
DOCKED: ATOM      1  C   UNL     1      37.422  11.634 120.861 -0.49 -0.00    +0.000 C 
DOCKED: ENDROOT
DOCKED: BRANCH   1   2
DOCKED: ATOM      2  C   UNL     1      36.402  11.722 122.002 -0.59 -0.00    +0.000 C 
DOCKED: BRANCH   2   3
DOCKED: ATOM      3  C   UNL     1      35.578  10.436 122.103 -0.50 -0.00    +0.000 C 
DOCKED: BRANCH   3   5
DOCKED: ATOM      4  N   UNL     1      36.634   8.522 123.396 -0.65 -0.00    +0.000 N 
DOCKED: ATOM      5  C   UNL     1      36.477   9.239 122.168 -0.71 -0.00    +0.000 C 
DOCKED: ATOM      6  O   UNL     1      37.064   8.840 121.127 -2.69 -0.00    +0.000 OA
DOCKED: ATOM      7  H   UNL     1      36.166   8.832 124.205 -0.27 -0.00    +0.000 HD
DOCKED: BRANCH   4   8
DOCKED: ATOM      8  O   UNL     1      37.422   7.423 123.456 -2.03 -0.00    +0.000 OA
DOCKED: ATOM      9  H   UNL     1      37.808   7.254 122.582 -0.33 -0.00    +0.000 HD
DOCKED: ENDBRANCH   4   8
DOCKED: ENDBRANCH   3   5
DOCKED: ENDBRANCH   2   3
DOCKED: ENDBRANCH   1   2
DOCKED: BRANCH   1  10
DOCKED: ATOM     10  C   UNL     1      37.813  13.033 120.361 -0.48 -0.00    +0.000 C 
DOCKED: BRANCH  10  11
DOCKED: ATOM     11  C   UNL     1      37.048  14.155 121.094 -0.30 -0.00    +0.000 C 
DOCKED: BRANCH  11  12
DOCKED: ATOM     12  C   UNL     1      37.545  14.400 122.527 -0.45 -0.00    +0.000 C 
DOCKED: BRANCH  12  13
DOCKED: ATOM     13  C   UNL     1      36.417  14.492 123.513 -0.50 -0.00    +0.000 C 
DOCKED: ATOM     14  N   UNL     1      35.512  15.598 123.475 -0.44 -0.00    +0.000 N 
DOCKED: ATOM     15  O   UNL     1      36.252  13.573 124.359 -0.51 -0.00    +0.000 OA
DOCKED: ATOM     16  H   UNL     1      35.641  16.312 122.810 -0.01 -0.00    +0.000 HD
DOCKED: BRANCH  14  17
DOCKED: ATOM     17  O   UNL     1      34.476  15.670 124.345 -0.62 -0.00    +0.000 OA
DOCKED: ATOM     18  H   UNL     1      34.465  14.876 124.902 -0.06 -0.00    +0.000 HD
DOCKED: ENDBRANCH  14  17
DOCKED: ENDBRANCH  12  13
DOCKED: ENDBRANCH  11  12
DOCKED: ENDBRANCH  10  11
DOCKED: ENDBRANCH   1  10
DOCKED: TORSDOF 9
DOCKED: TER
DOCKED: ENDMDL
________________________________________________________________________________


	BEGINNING GENETIC ALGORITHM DOCKING 2 of 100
Run: 2 Seed: 1782544513 380565300 [ Run 2 of 100 GA/GALS ]
Beginning LAMARCKIAN GENETIC ALGORITHM (LGA), with a maximum of 2500000 energy evaluations.

Final-Value: -14.185


	FINAL GENETIC ALGORITHM DOCKED STATE
	_______________________________________________


Detailed state:  trans 37.636 15.239 121.286 quatxyzw 0.714560 0.287547 -0.111408 0.627940 center 0.300 0.400 0.510 ntor 9 39.8171 -0.1790 -45.4609 169.5722 91.2327 86.3055 6.2872 -15.3168 40.7938
State:	 37.636  15.239 121.286   0.918  0.369 -0.143 102.203     39.82   -0.18  -45.46  169.57   91.23   86.31    6.29  -15.32   40.79

DOCKED: MODEL        2
DOCKED: USER    Run = 2
DOCKED: USER    DPF = ligand_dock.biased.dpf
DOCKED: USER  
DOCKED: USER    Estimated Free Energy of Binding    =  -10.53 kcal/mol  [=(1)+(2)+(3)-(4)]
DOCKED: USER    Estimated Inhibition Constant, Ki   =   19.13 nM (nanomolar)  [Temperature = 298.15 K]
DOCKED: USER    
DOCKED: USER    (1) Final Intermolecular Energy     =  -13.21 kcal/mol
DOCKED: USER        vdW + Hbond + desolv Energy     =  -13.21 kcal/mol
DOCKED: USER        Electrostatic Energy            =   +0.00 kcal/mol
DOCKED: USER    (2) Final Total Internal Energy     =   -0.97 kcal/mol
DOCKED: USER    (3) Torsional Free Energy           =   +2.68 kcal/mol
DOCKED: USER    (4) Unbound System's Energy  [=(2)] =   -0.97 kcal/mol
DOCKED: USER    
DOCKED: USER    
DOCKED: USER    NEWDPF move ligand.pdbqt
DOCKED: USER    NEWDPF about 0.300000 0.400000 0.510000
DOCKED: USER    NEWDPF tran0 37.636286 15.238612 121.286312
DOCKED: USER    NEWDPF quaternion0 0.714560 0.287547 -0.111408 0.627940
DOCKED: USER    NEWDPF axisangle0 0.918149 0.369474 -0.143150 102.203334
DOCKED: USER    NEWDPF quat0 0.918149 0.369474 -0.143150 102.203334
DOCKED: USER    NEWDPF dihe0 39.82 -0.18 -45.46 169.57 91.23 86.31 6.29 -15.32 40.79 
DOCKED: USER  keepresnum = 1 
DOCKED: USER  
DOCKED: REMARK  Name = 
DOCKED: REMARK  9 active torsions:
DOCKED: REMARK  status: ('A' for Active; 'I' for Inactive)
DOCKED: REMARK    1  A    between atoms: O_1  and  N_2
DOCKED: REMARK    2  A    between atoms: C_3  and  C_4
DOCKED: REMARK    3  A    between atoms: C_4  and  C_5
DOCKED: REMARK    4  A    between atoms: C_5  and  C_6
DOCKED: REMARK    5  A    between atoms: C_6  and  C_7
DOCKED: REMARK    6  A    between atoms: C_7  and  C_8
DOCKED: REMARK    7  A    between atoms: C_8  and  C_9
DOCKED: REMARK    8  A    between atoms: C_9  and  C_10
DOCKED: REMARK    9  A    between atoms: N_11  and  O_12
DOCKED: REMARK                            x       y       z     vdW  Elec       q    Type
DOCKED: REMARK                         _______ _______ _______ _____ _____    ______ ____
DOCKED: USER                              x       y       z     vdW  Elec       q    Type
DOCKED: USER                           _______ _______ _______ _____ _____    ______ ____
DOCKED: ROOT
DOCKED: ATOM      1  C   UNL     1      38.083  13.879 122.231 -0.47 -0.00    +0.000 C 
DOCKED: ENDROOT
DOCKED: BRANCH   1   2
DOCKED: ATOM      2  C   UNL     1      38.365  15.293 122.752 -0.37 -0.00    +0.000 C 
DOCKED: BRANCH   2   3
DOCKED: ATOM      3  C   UNL     1      39.515  15.944 121.979 -0.28 -0.00    +0.000 C 
DOCKED: BRANCH   3   5
DOCKED: ATOM      4  N   UNL     1      41.750  16.679 122.938 -0.36 -0.00    +0.000 N 
DOCKED: ATOM      5  C   UNL     1      40.829  15.629 122.626 -0.44 -0.00    +0.000 C 
DOCKED: ATOM      6  O   UNL     1      41.105  14.438 122.933 -1.05 -0.00    +0.000 OA
DOCKED: ATOM      7  H   UNL     1      41.526  17.608 122.705 -0.00 -0.00    +0.000 HD
DOCKED: BRANCH   4   8
DOCKED: ATOM      8  O   UNL     1      42.926  16.404 123.549 -0.99 +0.00    +0.000 OA
DOCKED: ATOM      9  H   UNL     1      43.116  17.090 124.208 -0.64 -0.00    +0.000 HD
DOCKED: ENDBRANCH   4   8
DOCKED: ENDBRANCH   3   5
DOCKED: ENDBRANCH   2   3
DOCKED: ENDBRANCH   1   2
DOCKED: BRANCH   1  10
DOCKED: ATOM     10  C   UNL     1      36.832  13.286 122.896 -0.57 -0.00    +0.000 C 
DOCKED: BRANCH  10  11
DOCKED: ATOM     11  C   UNL     1      36.988  11.783 123.210 -0.67 -0.00    +0.000 C 
DOCKED: BRANCH  11  12
DOCKED: ATOM     12  C   UNL     1      36.094  10.881 122.344 -0.66 -0.00    +0.000 C 
DOCKED: BRANCH  12  13
DOCKED: ATOM     13  C   UNL     1      36.652   9.496 122.201 -0.71 -0.00    +0.000 C 
DOCKED: ATOM     14  N   UNL     1      36.691   8.612 123.324 -0.65 -0.00    +0.000 N 
DOCKED: ATOM     15  O   UNL     1      37.061   9.101 121.076 -2.73 -0.00    +0.000 OA
DOCKED: ATOM     16  H   UNL     1      36.367   8.922 124.201 -0.35 -0.00    +0.000 HD
DOCKED: BRANCH  14  17
DOCKED: ATOM     17  O   UNL     1      37.167   7.351 123.193 -2.10 -0.00    +0.000 OA
DOCKED: ATOM     18  H   UNL     1      37.441   7.203 122.274 -0.18 -0.00    +0.000 HD
DOCKED: ENDBRANCH  14  17
DOCKED: ENDBRANCH  12  13
DOCKED: ENDBRANCH  11  12
DOCKED: ENDBRANCH  10  11
DOCKED: ENDBRANCH   1  10
DOCKED: TORSDOF 9
DOCKED: TER
DOCKED: ENDMDL
________________________________________________________________________________


	BEGINNING GENETIC ALGORITHM DOCKING 3 of 100
Run: 3 Seed: 2133617723 547265368 [ Run 3 of 100 GA/GALS ]
Beginning LAMARCKIAN GENETIC ALGORITHM (LGA), with a maximum of 2500000 energy evaluations.

Final-Value: -13.141


	FINAL GENETIC ALGORITHM DOCKED STATE
	_______________________________________________


Detailed state:  trans 36.164 11.401 120.757 quatxyzw -0.525637 0.479567 -0.488969 0.504609 center 0.300 0.400 0.510 ntor 9 -170.7504 7.2338 -149.6728 110.3414 -54.2997 -146.9884 47.4556 -1.8192 25.4762
State:	 36.164  11.401 120.757  -0.609  0.555 -0.566 119.389   -170.75    7.23 -149.67  110.34  -54.30 -146.99   47.46   -1.82   25.48

DOCKED: MODEL        3
DOCKED: USER    Run = 3
DOCKED: USER    DPF = ligand_dock.biased.dpf
DOCKED: USER  
DOCKED: USER    Estimated Free Energy of Binding    =   -8.95 kcal/mol  [=(1)+(2)+(3)-(4)]
DOCKED: USER    Estimated Inhibition Constant, Ki   =  277.14 nM (nanomolar)  [Temperature = 298.15 K]
DOCKED: USER    
DOCKED: USER    (1) Final Intermolecular Energy     =  -11.63 kcal/mol
DOCKED: USER        vdW + Hbond + desolv Energy     =  -11.63 kcal/mol
DOCKED: USER        Electrostatic Energy            =   +0.00 kcal/mol
DOCKED: USER    (2) Final Total Internal Energy     =   -1.51 kcal/mol
DOCKED: USER    (3) Torsional Free Energy           =   +2.68 kcal/mol
DOCKED: USER    (4) Unbound System's Energy  [=(2)] =   -1.51 kcal/mol
DOCKED: USER    
DOCKED: USER    
DOCKED: USER    NEWDPF move ligand.pdbqt
DOCKED: USER    NEWDPF about 0.300000 0.400000 0.510000
DOCKED: USER    NEWDPF tran0 36.163867 11.400933 120.757355
DOCKED: USER    NEWDPF quaternion0 -0.525637 0.479567 -0.488969 0.504609
DOCKED: USER    NEWDPF axisangle0 -0.608836 0.555474 -0.566363 119.389187
DOCKED: USER    NEWDPF quat0 -0.608836 0.555474 -0.566363 119.389187
DOCKED: USER    NEWDPF dihe0 -170.75 7.23 -149.67 110.34 -54.30 -146.99 47.46 -1.82 25.48 
DOCKED: USER  keepresnum = 1 
DOCKED: USER  
DOCKED: REMARK  Name = 
DOCKED: REMARK  9 active torsions:
DOCKED: REMARK  status: ('A' for Active; 'I' for Inactive)
DOCKED: REMARK    1  A    between atoms: O_1  and  N_2
DOCKED: REMARK    2  A    between atoms: C_3  and  C_4
DOCKED: REMARK    3  A    between atoms: C_4  and  C_5
DOCKED: REMARK    4  A    between atoms: C_5  and  C_6
DOCKED: REMARK    5  A    between atoms: C_6  and  C_7
DOCKED: REMARK    6  A    between atoms: C_7  and  C_8
DOCKED: REMARK    7  A    between atoms: C_8  and  C_9
DOCKED: REMARK    8  A    between atoms: C_9  and  C_10
DOCKED: REMARK    9  A    between atoms: N_11  and  O_12
DOCKED: REMARK                            x       y       z     vdW  Elec       q    Type
DOCKED: REMARK                         _______ _______ _______ _____ _____    ______ ____
DOCKED: USER                              x       y       z     vdW  Elec       q    Type
DOCKED: USER                           _______ _______ _______ _____ _____    ______ ____
DOCKED: ROOT
DOCKED: ATOM      1  C   UNL     1      36.829  12.967 120.537 -0.40 -0.00    +0.000 C 
DOCKED: ENDROOT
DOCKED: BRANCH   1   2
DOCKED: ATOM      2  C   UNL     1      37.413  12.035 121.605 -0.48 -0.00    +0.000 C 
DOCKED: BRANCH   2   3
DOCKED: ATOM      3  C   UNL     1      36.334  11.118 122.185 -0.65 -0.00    +0.000 C 
DOCKED: BRANCH   3   5
DOCKED: ATOM      4  N   UNL     1      36.742   8.832 123.216 -0.65 -0.00    +0.000 N 
DOCKED: ATOM      5  C   UNL     1      36.744   9.681 122.065 -0.67 -0.00    +0.000 C 
DOCKED: ATOM      6  O   UNL     1      37.053   9.212 120.937 -2.73 -0.00    +0.000 OA
DOCKED: ATOM      7  H   UNL     1      36.490   9.202 124.093 -0.40 -0.00    +0.000 HD
DOCKED: BRANCH   4   8
DOCKED: ATOM      8  O   UNL     1      37.083   7.527 123.110 -2.24 -0.00    +0.000 OA
DOCKED: ATOM      9  H   UNL     1      37.442   7.358 122.224 -0.14 -0.00    +0.000 HD
DOCKED: ENDBRANCH   4   8
DOCKED: ENDBRANCH   3   5
DOCKED: ENDBRANCH   2   3
DOCKED: ENDBRANCH   1   2
DOCKED: BRANCH   1  10
DOCKED: ATOM     10  C   UNL     1      37.704  12.976 119.274 -0.38 -0.00    +0.000 C 
DOCKED: BRANCH  10  11
DOCKED: ATOM     11  C   UNL     1      37.517  14.258 118.437 -0.33 -0.00    +0.000 C 
DOCKED: BRANCH  11  12
DOCKED: ATOM     12  C   UNL     1      36.538  14.087 117.265 -0.37 -0.00    +0.000 C 
DOCKED: BRANCH  12  13
DOCKED: ATOM     13  C   UNL     1      37.166  13.389 116.095 -0.39 -0.00    +0.000 C 
DOCKED: ATOM     14  N   UNL     1      38.456  12.785 116.220 -0.48 -0.00    +0.000 N 
DOCKED: ATOM     15  O   UNL     1      36.538  13.311 115.005 -0.39 -0.00    +0.000 OA
DOCKED: ATOM     16  H   UNL     1      38.942  12.844 117.074 -0.11 -0.00    +0.000 HD
DOCKED: BRANCH  14  17
DOCKED: ATOM     17  O   UNL     1      39.014  12.129 115.174 -0.76 -0.00    +0.000 OA
DOCKED: ATOM     18  H   UNL     1      38.468  12.258 114.383 -0.06 -0.00    +0.000 HD
DOCKED: ENDBRANCH  14  17
DOCKED: ENDBRANCH  12  13
DOCKED: ENDBRANCH  11  12
DOCKED: ENDBRANCH  10  11
DOCKED: ENDBRANCH   1  10
DOCKED: TORSDOF 9
DOCKED: TER
DOCKED: ENDMDL
________________________________________________________________________________


	BEGINNING GENETIC ALGORITHM DOCKING 4 of 100
Run: 4 Seed: 566660617 117101816 [ Run 4 of 100 GA/GALS ]
Beginning LAMARCKIAN GENETIC ALGORITHM (LGA), with a maximum of 2500000 energy evaluations.

Final-Value: -13.800


	FINAL GENETIC ALGORITHM DOCKED STATE
	_______________________________________________


Detailed state:  trans 38.280 14.746 122.819 quatxyzw 0.368135 0.845463 0.120088 -0.367761 center 0.300 0.400 0.510 ntor 9 178.8257 31.3013 -41.6504 162.6630 -120.9517 -179.3242 55.2863 -20.7450 -155.9041
State:	 38.280  14.746 122.819   0.396  0.909  0.129 -136.845    178.83   31.30  -41.65  162.66 -120.95 -179.32   55.29  -20.74 -155.90

DOCKED: MODEL        4
DOCKED: USER    Run = 4
DOCKED: USER    DPF = ligand_dock.biased.dpf
DOCKED: USER  
DOCKED: USER    Estimated Free Energy of Binding    =   -9.50 kcal/mol  [=(1)+(2)+(3)-(4)]
DOCKED: USER    Estimated Inhibition Constant, Ki   =  109.31 nM (nanomolar)  [Temperature = 298.15 K]
DOCKED: USER    
DOCKED: USER    (1) Final Intermolecular Energy     =  -12.18 kcal/mol
DOCKED: USER        vdW + Hbond + desolv Energy     =  -12.18 kcal/mol
DOCKED: USER        Electrostatic Energy            =   +0.00 kcal/mol
DOCKED: USER    (2) Final Total Internal Energy     =   -1.62 kcal/mol
DOCKED: USER    (3) Torsional Free Energy           =   +2.68 kcal/mol
DOCKED: USER    (4) Unbound System's Energy  [=(2)] =   -1.62 kcal/mol
DOCKED: USER    
DOCKED: USER    
DOCKED: USER    NEWDPF move ligand.pdbqt
DOCKED: USER    NEWDPF about 0.300000 0.400000 0.510000
DOCKED: USER    NEWDPF tran0 38.280351 14.746032 122.819439
DOCKED: USER    NEWDPF quaternion0 0.368135 0.845463 0.120088 -0.367761
DOCKED: USER    NEWDPF axisangle0 0.395878 0.909178 0.129138 -136.844779
DOCKED: USER    NEWDPF quat0 0.395878 0.909178 0.129138 -136.844779
DOCKED: USER    NEWDPF dihe0 178.83 31.30 -41.65 162.66 -120.95 -179.32 55.29 -20.74 -155.90 
DOCKED: USER  keepresnum = 1 
DOCKED: USER  
DOCKED: REMARK  Name = 
DOCKED: REMARK  9 active torsions:
DOCKED: REMARK  status: ('A' for Active; 'I' for Inactive)
DOCKED: REMARK    1  A    between atoms: O_1  and  N_2
DOCKED: REMARK    2  A    between atoms: C_3  and  C_4
DOCKED: REMARK    3  A    between atoms: C_4  and  C_5
DOCKED: REMARK    4  A    between atoms: C_5  and  C_6
DOCKED: REMARK    5  A    between atoms: C_6  and  C_7
DOCKED: REMARK    6  A    between atoms: C_7  and  C_8
DOCKED: REMARK    7  A    between atoms: C_8  and  C_9
DOCKED: REMARK    8  A    between atoms: C_9  and  C_10
DOCKED: REMARK    9  A    between atoms: N_11  and  O_12
DOCKED: REMARK                            x       y       z     vdW  Elec       q    Type
DOCKED: REMARK                         _______ _______ _______ _____ _____    ______ ____
DOCKED: USER                              x       y       z     vdW  Elec       q    Type
DOCKED: USER                           _______ _______ _______ _____ _____    ______ ____
DOCKED: ROOT
DOCKED: ATOM      1  C   UNL     1      36.888  14.204 123.661 -0.43 -0.00    +0.000 C 
DOCKED: ENDROOT
DOCKED: BRANCH   1   2
DOCKED: ATOM      2  C   UNL     1      36.781  14.588 122.181 -0.35 -0.00    +0.000 C 
DOCKED: BRANCH   2   3
DOCKED: ATOM      3  C   UNL     1      37.898  15.556 121.782 -0.28 -0.00    +0.000 C 
DOCKED: BRANCH   3   5
DOCKED: ATOM      4  N   UNL     1      40.203  15.620 122.849 -0.34 -0.00    +0.000 N 
DOCKED: ATOM      5  C   UNL     1      39.242  14.941 122.036 -0.40 -0.00    +0.000 C 
DOCKED: ATOM      6  O   UNL     1      39.508  13.804 121.564 -0.77 -0.00    +0.000 OA
DOCKED: ATOM      7  H   UNL     1      39.987  16.504 123.224 -0.01 -0.00    +0.000 HD
DOCKED: BRANCH   4   8
DOCKED: ATOM      8  O   UNL     1      41.407  15.057 123.106 -0.94 -0.00    +0.000 OA
DOCKED: ATOM      9  H   UNL     1      41.454  14.187 122.682 -0.06 +0.00    +0.000 HD
DOCKED: ENDBRANCH   4   8
DOCKED: ENDBRANCH   3   5
DOCKED: ENDBRANCH   2   3
DOCKED: ENDBRANCH   1   2
DOCKED: BRANCH   1  10
DOCKED: ATOM     10  C   UNL     1      36.956  12.678 123.830 -0.54 -0.00    +0.000 C 
DOCKED: BRANCH  10  11
DOCKED: ATOM     11  C   UNL     1      37.437  11.964 122.550 -0.46 -0.00    +0.000 C 
DOCKED: BRANCH  11  12
DOCKED: ATOM     12  C   UNL     1      36.383  11.029 121.938 -0.60 -0.00    +0.000 C 
DOCKED: BRANCH  12  13
DOCKED: ATOM     13  C   UNL     1      36.763   9.583 122.062 -0.68 -0.00    +0.000 C 
DOCKED: ATOM     14  N   UNL     1      36.926   8.986 123.351 -0.60 -0.00    +0.000 N 
DOCKED: ATOM     15  O   UNL     1      36.910   8.885 121.022 -2.67 -0.00    +0.000 OA
DOCKED: ATOM     16  H   UNL     1      36.806   9.532 124.161 -0.50 -0.00    +0.000 HD
DOCKED: BRANCH  14  17
DOCKED: ATOM     17  O   UNL     1      37.242   7.673 123.468 -2.21 -0.00    +0.000 OA
DOCKED: ATOM     18  H   UNL     1      37.784   7.403 122.710 -0.36 -0.00    +0.000 HD
DOCKED: ENDBRANCH  14  17
DOCKED: ENDBRANCH  12  13
DOCKED: ENDBRANCH  11  12
DOCKED: ENDBRANCH  10  11
DOCKED: ENDBRANCH   1  10
DOCKED: TORSDOF 9
DOCKED: TER
DOCKED: ENDMDL
________________________________________________________________________________


	BEGINNING GENETIC ALGORITHM DOCKING 5 of 100
Run: 5 Seed: 1560383429 302266342 [ Run 5 of 100 GA/GALS ]
Beginning LAMARCKIAN GENETIC ALGORITHM (LGA), with a maximum of 2500000 energy evaluations.

Final-Value: -13.195


	FINAL GENETIC ALGORITHM DOCKED STATE
	_______________________________________________


Detailed state:  trans 34.791 11.749 123.034 quatxyzw -0.829261 0.416012 0.357414 0.107316 center 0.300 0.400 0.510 ntor 9 -158.7676 0.8025 180.0000 -120.6358 82.4343 -179.8053 33.4219 180.0000 137.3028
State:	 34.791  11.749 123.034  -0.834  0.418  0.359 167.679   -158.77    0.80  180.00 -120.64   82.43 -179.81   33.42  180.00  137.30

DOCKED: MODEL        5
DOCKED: USER    Run = 5
DOCKED: USER    DPF = ligand_dock.biased.dpf
DOCKED: USER  
DOCKED: USER    Estimated Free Energy of Binding    =   -9.02 kcal/mol  [=(1)+(2)+(3)-(4)]
DOCKED: USER    Estimated Inhibition Constant, Ki   =  243.38 nM (nanomolar)  [Temperature = 298.15 K]
DOCKED: USER    
DOCKED: USER    (1) Final Intermolecular Energy     =  -11.71 kcal/mol
DOCKED: USER        vdW + Hbond + desolv Energy     =  -11.71 kcal/mol
DOCKED: USER        Electrostatic Energy            =   +0.00 kcal/mol
DOCKED: USER    (2) Final Total Internal Energy     =   -1.49 kcal/mol
DOCKED: USER    (3) Torsional Free Energy           =   +2.68 kcal/mol
DOCKED: USER    (4) Unbound System's Energy  [=(2)] =   -1.49 kcal/mol
DOCKED: USER    
DOCKED: USER    
DOCKED: USER    NEWDPF move ligand.pdbqt
DOCKED: USER    NEWDPF about 0.300000 0.400000 0.510000
DOCKED: USER    NEWDPF tran0 34.790853 11.749428 123.034080
DOCKED: USER    NEWDPF quaternion0 -0.829261 0.416012 0.357414 0.107316
DOCKED: USER    NEWDPF axisangle0 -0.834077 0.418428 0.359490 167.678747
DOCKED: USER    NEWDPF quat0 -0.834077 0.418428 0.359490 167.678747
DOCKED: USER    NEWDPF dihe0 -158.77 0.80 180.00 -120.64 82.43 -179.81 33.42 180.00 137.30 
DOCKED: USER  keepresnum = 1 
DOCKED: USER  
DOCKED: REMARK  Name = 
DOCKED: REMARK  9 active torsions:
DOCKED: REMARK  status: ('A' for Active; 'I' for Inactive)
DOCKED: REMARK    1  A    between atoms: O_1  and  N_2
DOCKED: REMARK    2  A    between atoms: C_3  and  C_4
DOCKED: REMARK    3  A    between atoms: C_4  and  C_5
DOCKED: REMARK    4  A    between atoms: C_5  and  C_6
DOCKED: REMARK    5  A    between atoms: C_6  and  C_7
DOCKED: REMARK    6  A    between atoms: C_7  and  C_8
DOCKED: REMARK    7  A    between atoms: C_8  and  C_9
DOCKED: REMARK    8  A    between atoms: C_9  and  C_10
DOCKED: REMARK    9  A    between atoms: N_11  and  O_12
DOCKED: REMARK                            x       y       z     vdW  Elec       q    Type
DOCKED: REMARK                         _______ _______ _______ _____ _____    ______ ____
DOCKED: USER                              x       y       z     vdW  Elec       q    Type
DOCKED: USER                           _______ _______ _______ _____ _____    ______ ____
DOCKED: ROOT
DOCKED: ATOM      1  C   UNL     1      36.209  12.173 123.901 -0.65 -0.00    +0.000 C 
DOCKED: ENDROOT
DOCKED: BRANCH   1   2
DOCKED: ATOM      2  C   UNL     1      36.314  11.741 122.434 -0.64 -0.00    +0.000 C 
DOCKED: BRANCH   2   3
DOCKED: ATOM      3  C   UNL     1      35.469  10.492 122.167 -0.52 -0.00    +0.000 C 
DOCKED: BRANCH   3   5
DOCKED: ATOM      4  N   UNL     1      36.408   8.478 123.398 -0.63 -0.00    +0.000 N 
DOCKED: ATOM      5  C   UNL     1      36.324   9.261 122.204 -0.70 -0.00    +0.000 C 
DOCKED: ATOM      6  O   UNL     1      36.937   8.894 121.166 -2.67 -0.00    +0.000 OA
DOCKED: ATOM      7  H   UNL     1      35.920   8.763 124.204 -0.19 -0.00    +0.000 HD
DOCKED: BRANCH   4   8
DOCKED: ATOM      8  O   UNL     1      37.155   7.349 123.430 -2.08 -0.00    +0.000 OA
DOCKED: ATOM      9  H   UNL     1      37.816   7.379 122.720 -0.38 -0.00    +0.000 HD
DOCKED: ENDBRANCH   4   8
DOCKED: ENDBRANCH   3   5
DOCKED: ENDBRANCH   2   3
DOCKED: ENDBRANCH   1   2
DOCKED: BRANCH   1  10
DOCKED: ATOM     10  C   UNL     1      36.289  13.701 124.032 -0.43 -0.00    +0.000 C 
DOCKED: BRANCH  10  11
DOCKED: ATOM     11  C   UNL     1      37.415  14.308 123.169 -0.48 -0.00    +0.000 C 
DOCKED: BRANCH  11  12
DOCKED: ATOM     12  C   UNL     1      36.999  14.560 121.710 -0.31 -0.00    +0.000 C 
DOCKED: BRANCH  12  13
DOCKED: ATOM     13  C   UNL     1      37.707  13.649 120.751 -0.43 -0.00    +0.000 C 
DOCKED: ATOM     14  N   UNL     1      36.999  13.058 119.658 -0.43 -0.00    +0.000 N 
DOCKED: ATOM     15  O   UNL     1      38.940  13.429 120.895 -0.54 -0.00    +0.000 OA
DOCKED: ATOM     16  H   UNL     1      36.038  13.235 119.546 -0.08 -0.00    +0.000 HD
DOCKED: BRANCH  14  17
DOCKED: ATOM     17  O   UNL     1      37.641  12.257 118.774 -0.39 -0.00    +0.000 OA
DOCKED: ATOM     18  H   UNL     1      38.573  12.175 119.030 -0.14 -0.00    +0.000 HD
DOCKED: ENDBRANCH  14  17
DOCKED: ENDBRANCH  12  13
DOCKED: ENDBRANCH  11  12
DOCKED: ENDBRANCH  10  11
DOCKED: ENDBRANCH   1  10
DOCKED: TORSDOF 9
DOCKED: TER
DOCKED: ENDMDL
________________________________________________________________________________


	BEGINNING GENETIC ALGORITHM DOCKING 6 of 100
Run: 6 Seed: 529425555 258234257 [ Run 6 of 100 GA/GALS ]
Beginning LAMARCKIAN GENETIC ALGORITHM (LGA), with a maximum of 2500000 energy evaluations.

Final-Value: -13.124


	FINAL GENETIC ALGORITHM DOCKED STATE
	_______________________________________________


Detailed state:  trans 37.850 14.198 123.586 quatxyzw -0.431969 -0.731508 -0.174296 0.497916 center 0.300 0.400 0.510 ntor 9 180.0000 8.8578 23.9800 123.7355 151.3409 168.1635 1.3506 -13.9090 -130.3225
State:	 37.850  14.198 123.586  -0.498 -0.844 -0.201 120.276    180.00    8.86   23.98  123.74  151.34  168.16    1.35  -13.91 -130.32

DOCKED: MODEL        6
DOCKED: USER    Run = 6
DOCKED: USER    DPF = ligand_dock.biased.dpf
DOCKED: USER  
DOCKED: USER    Estimated Free Energy of Binding    =   -8.84 kcal/mol  [=(1)+(2)+(3)-(4)]
DOCKED: USER    Estimated Inhibition Constant, Ki   =  329.26 nM (nanomolar)  [Temperature = 298.15 K]
DOCKED: USER    
DOCKED: USER    (1) Final Intermolecular Energy     =  -11.53 kcal/mol
DOCKED: USER        vdW + Hbond + desolv Energy     =  -11.53 kcal/mol
DOCKED: USER        Electrostatic Energy            =   +0.00 kcal/mol
DOCKED: USER    (2) Final Total Internal Energy     =   -1.60 kcal/mol
DOCKED: USER    (3) Torsional Free Energy           =   +2.68 kcal/mol
DOCKED: USER    (4) Unbound System's Energy  [=(2)] =   -1.60 kcal/mol
DOCKED: USER    
DOCKED: USER    
DOCKED: USER    NEWDPF move ligand.pdbqt
DOCKED: USER    NEWDPF about 0.300000 0.400000 0.510000
DOCKED: USER    NEWDPF tran0 37.849614 14.197760 123.586212
DOCKED: USER    NEWDPF quaternion0 -0.431969 -0.731508 -0.174296 0.497916
DOCKED: USER    NEWDPF axisangle0 -0.498104 -0.843504 -0.200981 120.275624
DOCKED: USER    NEWDPF quat0 -0.498104 -0.843504 -0.200981 120.275624
DOCKED: USER    NEWDPF dihe0 180.00 8.86 23.98 123.74 151.34 168.16 1.35 -13.91 -130.32 
DOCKED: USER  keepresnum = 1 
DOCKED: USER  
DOCKED: REMARK  Name = 
DOCKED: REMARK  9 active torsions:
DOCKED: REMARK  status: ('A' for Active; 'I' for Inactive)
DOCKED: REMARK    1  A    between atoms: O_1  and  N_2
DOCKED: REMARK    2  A    between atoms: C_3  and  C_4
DOCKED: REMARK    3  A    between atoms: C_4  and  C_5
DOCKED: REMARK    4  A    between atoms: C_5  and  C_6
DOCKED: REMARK    5  A    between atoms: C_6  and  C_7
DOCKED: REMARK    6  A    between atoms: C_7  and  C_8
DOCKED: REMARK    7  A    between atoms: C_8  and  C_9
DOCKED: REMARK    8  A    between atoms: C_9  and  C_10
DOCKED: REMARK    9  A    between atoms: N_11  and  O_12
DOCKED: REMARK                            x       y       z     vdW  Elec       q    Type
DOCKED: REMARK                         _______ _______ _______ _____ _____    ______ ____
DOCKED: USER                              x       y       z     vdW  Elec       q    Type
DOCKED: USER                           _______ _______ _______ _____ _____    ______ ____
DOCKED: ROOT
DOCKED: ATOM      1  C   UNL     1      36.187  13.900 123.886 -0.52 -0.00    +0.000 C 
DOCKED: ENDROOT
DOCKED: BRANCH   1   2
DOCKED: ATOM      2  C   UNL     1      36.640  14.355 122.494 -0.40 -0.00    +0.000 C 
DOCKED: BRANCH   2   3
DOCKED: ATOM      3  C   UNL     1      36.922  15.859 122.473 -0.31 -0.00    +0.000 C 
DOCKED: BRANCH   3   5
DOCKED: ATOM      4  N   UNL     1      34.643  16.496 123.398 -0.43 -0.00    +0.000 N 
DOCKED: ATOM      5  C   UNL     1      36.070  16.569 123.481 -0.36 -0.00    +0.000 C 
DOCKED: ATOM      6  O   UNL     1      36.613  17.198 124.427 -0.29 -0.00    +0.000 OA
DOCKED: ATOM      7  H   UNL     1      34.223  15.995 122.662 -0.03 -0.00    +0.000 HD
DOCKED: BRANCH   4   8
DOCKED: ATOM      8  O   UNL     1      33.867  17.111 124.321 -0.47 -0.00    +0.000 OA
DOCKED: ATOM      9  H   UNL     1      34.432  17.557 124.972 -0.01 -0.00    +0.000 HD
DOCKED: ENDBRANCH   4   8
DOCKED: ENDBRANCH   3   5
DOCKED: ENDBRANCH   2   3
DOCKED: ENDBRANCH   1   2
DOCKED: BRANCH   1  10
DOCKED: ATOM     10  C   UNL     1      35.938  12.384 123.917 -0.58 -0.00    +0.000 C 
DOCKED: BRANCH  10  11
DOCKED: ATOM     11  C   UNL     1      37.090  11.585 123.273 -0.65 -0.00    +0.000 C 
DOCKED: BRANCH  11  12
DOCKED: ATOM     12  C   UNL     1      36.711  10.939 121.930 -0.61 -0.00    +0.000 C 
DOCKED: BRANCH  12  13
DOCKED: ATOM     13  C   UNL     1      36.929   9.455 121.930 -0.65 -0.00    +0.000 C 
DOCKED: ATOM     14  N   UNL     1      36.953   8.727 123.161 -0.68 -0.00    +0.000 N 
DOCKED: ATOM     15  O   UNL     1      37.061   8.844 120.836 -2.72 -0.00    +0.000 OA
DOCKED: ATOM     16  H   UNL     1      36.845   9.206 124.014 -0.49 -0.00    +0.000 HD
DOCKED: BRANCH  14  17
DOCKED: ATOM     17  O   UNL     1      37.121   7.383 123.164 -2.14 -0.00    +0.000 OA
DOCKED: ATOM     18  H   UNL     1      37.350   7.084 122.269 -0.18 -0.00    +0.000 HD
DOCKED: ENDBRANCH  14  17
DOCKED: ENDBRANCH  12  13
DOCKED: ENDBRANCH  11  12
DOCKED: ENDBRANCH  10  11
DOCKED: ENDBRANCH   1  10
DOCKED: TORSDOF 9
DOCKED: TER
DOCKED: ENDMDL
________________________________________________________________________________


	BEGINNING GENETIC ALGORITHM DOCKING 7 of 100
Run: 7 Seed: 725842002 1257490237 [ Run 7 of 100 GA/GALS ]
Beginning LAMARCKIAN GENETIC ALGORITHM (LGA), with a maximum of 2500000 energy evaluations.

Final-Value: -14.452


	FINAL GENETIC ALGORITHM DOCKED STATE
	_______________________________________________


Detailed state:  trans 38.139 15.061 124.252 quatxyzw -0.215543 -0.433359 -0.545260 0.684422 center 0.300 0.400 0.510 ntor 9 -177.8255 18.3768 37.4450 140.5954 54.6898 43.5738 -164.4966 -146.9074 -7.9606
State:	 38.139  15.061 124.252  -0.296 -0.594 -0.748 93.620   -177.83   18.38   37.44  140.60   54.69   43.57 -164.50 -146.91   -7.96

DOCKED: MODEL        7
DOCKED: USER    Run = 7
DOCKED: USER    DPF = ligand_dock.biased.dpf
DOCKED: USER  
DOCKED: USER    Estimated Free Energy of Binding    =  -10.24 kcal/mol  [=(1)+(2)+(3)-(4)]
DOCKED: USER    Estimated Inhibition Constant, Ki   =   31.06 nM (nanomolar)  [Temperature = 298.15 K]
DOCKED: USER    
DOCKED: USER    (1) Final Intermolecular Energy     =  -12.93 kcal/mol
DOCKED: USER        vdW + Hbond + desolv Energy     =  -12.93 kcal/mol
DOCKED: USER        Electrostatic Energy            =   +0.00 kcal/mol
DOCKED: USER    (2) Final Total Internal Energy     =   -1.52 kcal/mol
DOCKED: USER    (3) Torsional Free Energy           =   +2.68 kcal/mol
DOCKED: USER    (4) Unbound System's Energy  [=(2)] =   -1.52 kcal/mol
DOCKED: USER    
DOCKED: USER    
DOCKED: USER    NEWDPF move ligand.pdbqt
DOCKED: USER    NEWDPF about 0.300000 0.400000 0.510000
DOCKED: USER    NEWDPF tran0 38.138534 15.060693 124.251768
DOCKED: USER    NEWDPF quaternion0 -0.215543 -0.433359 -0.545260 0.684422
DOCKED: USER    NEWDPF axisangle0 -0.295635 -0.594386 -0.747867 93.619738
DOCKED: USER    NEWDPF quat0 -0.295635 -0.594386 -0.747867 93.619738
DOCKED: USER    NEWDPF dihe0 -177.83 18.38 37.44 140.60 54.69 43.57 -164.50 -146.91 -7.96 
DOCKED: USER  keepresnum = 1 
DOCKED: USER  
DOCKED: REMARK  Name = 
DOCKED: REMARK  9 active torsions:
DOCKED: REMARK  status: ('A' for Active; 'I' for Inactive)
DOCKED: REMARK    1  A    between atoms: O_1  and  N_2
DOCKED: REMARK    2  A    between atoms: C_3  and  C_4
DOCKED: REMARK    3  A    between atoms: C_4  and  C_5
DOCKED: REMARK    4  A    between atoms: C_5  and  C_6
DOCKED: REMARK    5  A    between atoms: C_6  and  C_7
DOCKED: REMARK    6  A    between atoms: C_7  and  C_8
DOCKED: REMARK    7  A    between atoms: C_8  and  C_9
DOCKED: REMARK    8  A    between atoms: C_9  and  C_10
DOCKED: REMARK    9  A    between atoms: N_11  and  O_12
DOCKED: REMARK                            x       y       z     vdW  Elec       q    Type
DOCKED: REMARK                         _______ _______ _______ _____ _____    ______ ____
DOCKED: USER                              x       y       z     vdW  Elec       q    Type
DOCKED: USER                           _______ _______ _______ _____ _____    ______ ____
DOCKED: ROOT
DOCKED: ATOM      1  C   UNL     1      37.261  14.377 122.946 -0.48 -0.00    +0.000 C 
DOCKED: ENDROOT
DOCKED: BRANCH   1   2
DOCKED: ATOM      2  C   UNL     1      38.342  15.428 122.669 -0.36 -0.00    +0.000 C 
DOCKED: BRANCH   2   3
DOCKED: ATOM      3  C   UNL     1      39.486  14.836 121.841 -0.39 -0.00    +0.000 C 
DOCKED: BRANCH   3   5
DOCKED: ATOM      4  N   UNL     1      41.124  16.337 123.073 -0.36 -0.00    +0.000 N 
DOCKED: ATOM      5  C   UNL     1      40.800  15.055 122.527 -0.49 -0.00    +0.000 C 
DOCKED: ATOM      6  O   UNL     1      41.605  14.094 122.658 -1.04 +0.00    +0.000 OA
DOCKED: ATOM      7  H   UNL     1      40.487  17.082 122.977 -0.00 -0.00    +0.000 HD
DOCKED: BRANCH   4   8
DOCKED: ATOM      8  O   UNL     1      42.297  16.535 123.719 -1.04 +0.00    +0.000 OA
DOCKED: ATOM      9  H   UNL     1      42.820  15.718 123.695 -0.07 +0.00    +0.000 HD
DOCKED: ENDBRANCH   4   8
DOCKED: ENDBRANCH   3   5
DOCKED: ENDBRANCH   2   3
DOCKED: ENDBRANCH   1   2
DOCKED: BRANCH   1  10
DOCKED: ATOM     10  C   UNL     1      37.785  12.961 122.665 -0.47 -0.00    +0.000 C 
DOCKED: BRANCH  10  11
DOCKED: ATOM     11  C   UNL     1      36.819  11.866 123.165 -0.68 -0.00    +0.000 C 
DOCKED: BRANCH  11  12
DOCKED: ATOM     12  C   UNL     1      36.262  10.980 122.039 -0.61 -0.00    +0.000 C 
DOCKED: BRANCH  12  13
DOCKED: ATOM     13  C   UNL     1      36.777   9.573 122.114 -0.68 -0.00    +0.000 C 
DOCKED: ATOM     14  N   UNL     1      36.918   8.920 123.379 -0.61 -0.00    +0.000 N 
DOCKED: ATOM     15  O   UNL     1      37.059   8.955 121.053 -2.71 -0.00    +0.000 OA
DOCKED: ATOM     16  H   UNL     1      36.694   9.404 124.206 -0.48 -0.00    +0.000 HD
DOCKED: BRANCH  14  17
DOCKED: ATOM     17  O   UNL     1      37.356   7.641 123.449 -2.17 -0.00    +0.000 OA
DOCKED: ATOM     18  H   UNL     1      37.800   7.405 122.619 -0.29 -0.00    +0.000 HD
DOCKED: ENDBRANCH  14  17
DOCKED: ENDBRANCH  12  13
DOCKED: ENDBRANCH  11  12
DOCKED: ENDBRANCH  10  11
DOCKED: ENDBRANCH   1  10
DOCKED: TORSDOF 9
DOCKED: TER
DOCKED: ENDMDL
________________________________________________________________________________


	BEGINNING GENETIC ALGORITHM DOCKING 8 of 100
Run: 8 Seed: 370011352 402871143 [ Run 8 of 100 GA/GALS ]
Beginning LAMARCKIAN GENETIC ALGORITHM (LGA), with a maximum of 2500000 energy evaluations.

Final-Value: -13.226


	FINAL GENETIC ALGORITHM DOCKED STATE
	_______________________________________________


Detailed state:  trans 36.010 14.538 121.274 quatxyzw 0.521298 0.626830 -0.400122 0.418610 center 0.300 0.400 0.510 ntor 9 180.0000 6.9741 -73.3836 -115.7303 -24.2265 151.5781 -169.8104 -64.9773 -69.9136
State:	 36.010  14.538 121.274   0.574  0.690 -0.441 130.506    180.00    6.97  -73.38 -115.73  -24.23  151.58 -169.81  -64.98  -69.91

DOCKED: MODEL        8
DOCKED: USER    Run = 8
DOCKED: USER    DPF = ligand_dock.biased.dpf
DOCKED: USER  
DOCKED: USER    Estimated Free Energy of Binding    =   -9.05 kcal/mol  [=(1)+(2)+(3)-(4)]
DOCKED: USER    Estimated Inhibition Constant, Ki   =  232.94 nM (nanomolar)  [Temperature = 298.15 K]
DOCKED: USER    
DOCKED: USER    (1) Final Intermolecular Energy     =  -11.73 kcal/mol
DOCKED: USER        vdW + Hbond + desolv Energy     =  -11.73 kcal/mol
DOCKED: USER        Electrostatic Energy            =   +0.00 kcal/mol
DOCKED: USER    (2) Final Total Internal Energy     =   -1.49 kcal/mol
DOCKED: USER    (3) Torsional Free Energy           =   +2.68 kcal/mol
DOCKED: USER    (4) Unbound System's Energy  [=(2)] =   -1.49 kcal/mol
DOCKED: USER    
DOCKED: USER    
DOCKED: USER    NEWDPF move ligand.pdbqt
DOCKED: USER    NEWDPF about 0.300000 0.400000 0.510000
DOCKED: USER    NEWDPF tran0 36.009681 14.537714 121.273550
DOCKED: USER    NEWDPF quaternion0 0.521298 0.626830 -0.400122 0.418610
DOCKED: USER    NEWDPF axisangle0 0.574012 0.690215 -0.440583 130.506264
DOCKED: USER    NEWDPF quat0 0.574012 0.690215 -0.440583 130.506264
DOCKED: USER    NEWDPF dihe0 180.00 6.97 -73.38 -115.73 -24.23 151.58 -169.81 -64.98 -69.91 
DOCKED: USER  keepresnum = 1 
DOCKED: USER  
DOCKED: REMARK  Name = 
DOCKED: REMARK  9 active torsions:
DOCKED: REMARK  status: ('A' for Active; 'I' for Inactive)
DOCKED: REMARK    1  A    between atoms: O_1  and  N_2
DOCKED: REMARK    2  A    between atoms: C_3  and  C_4
DOCKED: REMARK    3  A    between atoms: C_4  and  C_5
DOCKED: REMARK    4  A    between atoms: C_5  and  C_6
DOCKED: REMARK    5  A    between atoms: C_6  and  C_7
DOCKED: REMARK    6  A    between atoms: C_7  and  C_8
DOCKED: REMARK    7  A    between atoms: C_8  and  C_9
DOCKED: REMARK    8  A    between atoms: C_9  and  C_10
DOCKED: REMARK    9  A    between atoms: N_11  and  O_12
DOCKED: REMARK                            x       y       z     vdW  Elec       q    Type
DOCKED: REMARK                         _______ _______ _______ _____ _____    ______ ____
DOCKED: USER                              x       y       z     vdW  Elec       q    Type
DOCKED: USER                           _______ _______ _______ _____ _____    ______ ____
DOCKED: ROOT
DOCKED: ATOM      1  C   UNL     1      37.252  14.346 122.440 -0.45 -0.00    +0.000 C 
DOCKED: ENDROOT
DOCKED: BRANCH   1   2
DOCKED: ATOM      2  C   UNL     1      36.098  15.317 122.711 -0.33 -0.00    +0.000 C 
DOCKED: BRANCH   2   3
DOCKED: ATOM      3  C   UNL     1      35.201  14.804 123.841 -0.57 -0.00    +0.000 C 
DOCKED: BRANCH   3   5
DOCKED: ATOM      4  N   UNL     1      33.995  15.810 125.838 -0.46 -0.00    +0.000 N 
DOCKED: ATOM      5  C   UNL     1      34.481  15.943 124.499 -0.58 -0.00    +0.000 C 
DOCKED: ATOM      6  O   UNL     1      34.340  17.033 123.883 -0.46 -0.00    +0.000 OA
DOCKED: ATOM      7  H   UNL     1      34.116  14.960 126.318 -0.04 -0.00    +0.000 HD
DOCKED: BRANCH   4   8
DOCKED: ATOM      8  O   UNL     1      33.369  16.844 126.448 -0.63 -0.00    +0.000 OA
DOCKED: ATOM      9  H   UNL     1      33.331  17.601 125.844 -0.02 -0.00    +0.000 HD
DOCKED: ENDBRANCH   4   8
DOCKED: ENDBRANCH   3   5
DOCKED: ENDBRANCH   2   3
DOCKED: ENDBRANCH   1   2
DOCKED: BRANCH   1  10
DOCKED: ATOM     10  C   UNL     1      37.046  13.022 123.192 -0.61 -0.00    +0.000 C 
DOCKED: BRANCH  10  11
DOCKED: ATOM     11  C   UNL     1      36.672  11.861 122.247 -0.62 -0.00    +0.000 C 
DOCKED: BRANCH  11  12
DOCKED: ATOM     12  C   UNL     1      36.012  10.674 122.968 -0.69 -0.00    +0.000 C 
DOCKED: BRANCH  12  13
DOCKED: ATOM     13  C   UNL     1      36.484   9.352 122.438 -0.72 -0.00    +0.000 C 
DOCKED: ATOM     14  N   UNL     1      36.666   8.242 123.321 -0.70 -0.00    +0.000 N 
DOCKED: ATOM     15  O   UNL     1      36.693   9.214 121.203 -2.63 -0.00    +0.000 OA
DOCKED: ATOM     16  H   UNL     1      36.498   8.352 124.285 -0.30 -0.00    +0.000 HD
DOCKED: BRANCH  14  17
DOCKED: ATOM     17  O   UNL     1      37.065   7.039 122.843 -1.76 -0.00    +0.000 OA
DOCKED: ATOM     18  H   UNL     1      37.291   7.124 121.904 -0.16 -0.00    +0.000 HD
DOCKED: ENDBRANCH  14  17
DOCKED: ENDBRANCH  12  13
DOCKED: ENDBRANCH  11  12
DOCKED: ENDBRANCH  10  11
DOCKED: ENDBRANCH   1  10
DOCKED: TORSDOF 9
DOCKED: TER
DOCKED: ENDMDL
________________________________________________________________________________


	BEGINNING GENETIC ALGORITHM DOCKING 9 of 100
Run: 9 Seed: 1624007515 1038197758 [ Run 9 of 100 GA/GALS ]
Beginning LAMARCKIAN GENETIC ALGORITHM (LGA), with a maximum of 2500000 energy evaluations.

Final-Value: -12.607


	FINAL GENETIC ALGORITHM DOCKED STATE
	_______________________________________________


Detailed state:  trans 27.874 9.909 116.557 quatxyzw 0.393140 0.690466 0.366592 0.484053 center 0.300 0.400 0.510 ntor 9 179.6452 4.7215 99.3433 125.2786 -108.6095 111.0956 -30.0507 114.2542 47.3098
State:	 27.874   9.909 116.557   0.449  0.789  0.419 122.099    179.65    4.72   99.34  125.28 -108.61  111.10  -30.05  114.25   47.31

DOCKED: MODEL        9
DOCKED: USER    Run = 9
DOCKED: USER    DPF = ligand_dock.biased.dpf
DOCKED: USER  
DOCKED: USER    Estimated Free Energy of Binding    =   -8.32 kcal/mol  [=(1)+(2)+(3)-(4)]
DOCKED: USER    Estimated Inhibition Constant, Ki   =  800.98 nM (nanomolar)  [Temperature = 298.15 K]
DOCKED: USER    
DOCKED: USER    (1) Final Intermolecular Energy     =  -11.00 kcal/mol
DOCKED: USER        vdW + Hbond + desolv Energy     =  -11.00 kcal/mol
DOCKED: USER        Electrostatic Energy            =   +0.00 kcal/mol
DOCKED: USER    (2) Final Total Internal Energy     =   -1.61 kcal/mol
DOCKED: USER    (3) Torsional Free Energy           =   +2.68 kcal/mol
DOCKED: USER    (4) Unbound System's Energy  [=(2)] =   -1.61 kcal/mol
DOCKED: USER    
DOCKED: USER    
DOCKED: USER    NEWDPF move ligand.pdbqt
DOCKED: USER    NEWDPF about 0.300000 0.400000 0.510000
DOCKED: USER    NEWDPF tran0 27.874274 9.909204 116.557388
DOCKED: USER    NEWDPF quaternion0 0.393140 0.690466 0.366592 0.484053
DOCKED: USER    NEWDPF axisangle0 0.449283 0.789070 0.418944 122.099048
DOCKED: USER    NEWDPF quat0 0.449283 0.789070 0.418944 122.099048
DOCKED: USER    NEWDPF dihe0 179.65 4.72 99.34 125.28 -108.61 111.10 -30.05 114.25 47.31 
DOCKED: USER  keepresnum = 1 
DOCKED: USER  
DOCKED: REMARK  Name = 
DOCKED: REMARK  9 active torsions:
DOCKED: REMARK  status: ('A' for Active; 'I' for Inactive)
DOCKED: REMARK    1  A    between atoms: O_1  and  N_2
DOCKED: REMARK    2  A    between atoms: C_3  and  C_4
DOCKED: REMARK    3  A    between atoms: C_4  and  C_5
DOCKED: REMARK    4  A    between atoms: C_5  and  C_6
DOCKED: REMARK    5  A    between atoms: C_6  and  C_7
DOCKED: REMARK    6  A    between atoms: C_7  and  C_8
DOCKED: REMARK    7  A    between atoms: C_8  and  C_9
DOCKED: REMARK    8  A    between atoms: C_9  and  C_10
DOCKED: REMARK    9  A    between atoms: N_11  and  O_12
DOCKED: REMARK                            x       y       z     vdW  Elec       q    Type
DOCKED: REMARK                         _______ _______ _______ _____ _____    ______ ____
DOCKED: USER                              x       y       z     vdW  Elec       q    Type
DOCKED: USER                           _______ _______ _______ _____ _____    ______ ____
DOCKED: ROOT
DOCKED: ATOM      1  C   UNL     1      27.853   8.199 116.684 -0.67 -0.00    +0.000 C 
DOCKED: ENDROOT
DOCKED: BRANCH   1   2
DOCKED: ATOM      2  C   UNL     1      26.812   9.031 117.441 -0.75 +0.00    +0.000 C 
DOCKED: BRANCH   2   3
DOCKED: ATOM      3  C   UNL     1      27.079   9.007 118.948 -0.60 +0.00    +0.000 C 
DOCKED: BRANCH   3   5
DOCKED: ATOM      4  N   UNL     1      28.847  10.720 118.321 -0.56 +0.00    +0.000 N 
DOCKED: ATOM      5  C   UNL     1      28.305   9.804 119.277 -0.63 +0.00    +0.000 C 
DOCKED: ATOM      6  O   UNL     1      28.835   9.695 120.415 -0.69 +0.00    +0.000 OA
DOCKED: ATOM      7  H   UNL     1      28.424  10.809 117.436 -0.01 +0.00    +0.000 HD
DOCKED: BRANCH   4   8
DOCKED: ATOM      8  O   UNL     1      29.937  11.465 118.622 -1.24 +0.00    +0.000 OA
DOCKED: ATOM      9  H   UNL     1      30.227  11.263 119.525 -0.05 +0.00    +0.000 HD
DOCKED: ENDBRANCH   4   8
DOCKED: ENDBRANCH   3   5
DOCKED: ENDBRANCH   2   3
DOCKED: ENDBRANCH   1   2
DOCKED: BRANCH   1  10
DOCKED: ATOM     10  C   UNL     1      27.255   7.600 115.402 -0.72 -0.00    +0.000 C 
DOCKED: BRANCH  10  11
DOCKED: ATOM     11  C   UNL     1      27.626   6.114 115.217 -0.68 -0.00    +0.000 C 
DOCKED: BRANCH  11  12
DOCKED: ATOM     12  C   UNL     1      28.103   5.436 116.512 -0.66 -0.00    +0.000 C 
DOCKED: BRANCH  12  13
DOCKED: ATOM     13  C   UNL     1      28.442   3.989 116.306 -0.59 +0.00    +0.000 C 
DOCKED: ATOM     14  N   UNL     1      28.817   3.511 115.011 -0.61 +0.00    +0.000 N 
DOCKED: ATOM     15  O   UNL     1      28.423   3.199 117.287 -1.14 +0.00    +0.000 OA
DOCKED: ATOM     16  H   UNL     1      28.834   4.131 114.247 -0.08 +0.00    +0.000 HD
DOCKED: BRANCH  14  17
DOCKED: ATOM     17  O   UNL     1      29.151   2.211 114.827 -1.28 +0.00    +0.000 OA
DOCKED: ATOM     18  H   UNL     1      29.012   1.722 115.653 -0.05 +0.00    +0.000 HD
DOCKED: ENDBRANCH  14  17
DOCKED: ENDBRANCH  12  13
DOCKED: ENDBRANCH  11  12
DOCKED: ENDBRANCH  10  11
DOCKED: ENDBRANCH   1  10
DOCKED: TORSDOF 9
DOCKED: TER
DOCKED: ENDMDL
________________________________________________________________________________


	BEGINNING GENETIC ALGORITHM DOCKING 10 of 100
Run: 10 Seed: 654511009 417228643 [ Run 10 of 100 GA/GALS ]
Beginning LAMARCKIAN GENETIC ALGORITHM (LGA), with a maximum of 2500000 energy evaluations.

Final-Value: -12.989


	FINAL GENETIC ALGORITHM DOCKED STATE
	_______________________________________________


Detailed state:  trans 36.541 11.736 120.697 quatxyzw 0.609521 -0.634773 0.449538 -0.153177 center 0.300 0.400 0.510 ntor 9 -174.1981 0.1453 179.8991 -129.8223 -20.7885 -148.6238 23.1938 97.7294 80.0915
State:	 36.541  11.736 120.697   0.617 -0.642  0.455 -162.378   -174.20    0.15  179.90 -129.82  -20.79 -148.62   23.19   97.73   80.09

DOCKED: MODEL       10
DOCKED: USER    Run = 10
DOCKED: USER    DPF = ligand_dock.biased.dpf
DOCKED: USER  
DOCKED: USER    Estimated Free Energy of Binding    =   -8.69 kcal/mol  [=(1)+(2)+(3)-(4)]
DOCKED: USER    Estimated Inhibition Constant, Ki   =  423.74 nM (nanomolar)  [Temperature = 298.15 K]
DOCKED: USER    
DOCKED: USER    (1) Final Intermolecular Energy     =  -11.38 kcal/mol
DOCKED: USER        vdW + Hbond + desolv Energy     =  -11.38 kcal/mol
DOCKED: USER        Electrostatic Energy            =   +0.00 kcal/mol
DOCKED: USER    (2) Final Total Internal Energy     =   -1.61 kcal/mol
DOCKED: USER    (3) Torsional Free Energy           =   +2.68 kcal/mol
DOCKED: USER    (4) Unbound System's Energy  [=(2)] =   -1.61 kcal/mol
DOCKED: USER    
DOCKED: USER    
DOCKED: USER    NEWDPF move ligand.pdbqt
DOCKED: USER    NEWDPF about 0.300000 0.400000 0.510000
DOCKED: USER    NEWDPF tran0 36.540991 11.735869 120.697178
DOCKED: USER    NEWDPF quaternion0 0.609521 -0.634773 0.449538 -0.153177
DOCKED: USER    NEWDPF axisangle0 0.616800 -0.642354 0.454906 -162.377876
DOCKED: USER    NEWDPF quat0 0.616800 -0.642354 0.454906 -162.377876
DOCKED: USER    NEWDPF dihe0 -174.20 0.15 179.90 -129.82 -20.79 -148.62 23.19 97.73 80.09 
DOCKED: USER  keepresnum = 1 
DOCKED: USER  
DOCKED: REMARK  Name = 
DOCKED: REMARK  9 active torsions:
DOCKED: REMARK  status: ('A' for Active; 'I' for Inactive)
DOCKED: REMARK    1  A    between atoms: O_1  and  N_2
DOCKED: REMARK    2  A    between atoms: C_3  and  C_4
DOCKED: REMARK    3  A    between atoms: C_4  and  C_5
DOCKED: REMARK    4  A    between atoms: C_5  and  C_6
DOCKED: REMARK    5  A    between atoms: C_6  and  C_7
DOCKED: REMARK    6  A    between atoms: C_7  and  C_8
DOCKED: REMARK    7  A    between atoms: C_8  and  C_9
DOCKED: REMARK    8  A    between atoms: C_9  and  C_10
DOCKED: REMARK    9  A    between atoms: N_11  and  O_12
DOCKED: REMARK                            x       y       z     vdW  Elec       q    Type
DOCKED: REMARK                         _______ _______ _______ _____ _____    ______ ____
DOCKED: USER                              x       y       z     vdW  Elec       q    Type
DOCKED: USER                           _______ _______ _______ _____ _____    ______ ____
DOCKED: ROOT
DOCKED: ATOM      1  C   UNL     1      36.698  13.135 121.676 -0.40 -0.00    +0.000 C 
DOCKED: ENDROOT
DOCKED: BRANCH   1   2
DOCKED: ATOM      2  C   UNL     1      37.241  11.792 122.177 -0.50 -0.00    +0.000 C 
DOCKED: BRANCH   2   3
DOCKED: ATOM      3  C   UNL     1      36.144  10.723 122.179 -0.63 -0.00    +0.000 C 
DOCKED: BRANCH   3   5
DOCKED: ATOM      4  N   UNL     1      36.925   8.625 123.381 -0.65 -0.00    +0.000 N 
DOCKED: ATOM      5  C   UNL     1      36.748   9.351 122.161 -0.70 -0.00    +0.000 C 
DOCKED: ATOM      6  O   UNL     1      37.062   8.821 121.062 -2.67 -0.00    +0.000 OA
DOCKED: ATOM      7  H   UNL     1      36.669   9.040 124.237 -0.43 -0.00    +0.000 HD
DOCKED: BRANCH   4   8
DOCKED: ATOM      8  O   UNL     1      37.443   7.374 123.369 -1.98 -0.00    +0.000 OA
DOCKED: ATOM      9  H   UNL     1      37.726   7.150 122.469 -0.30 -0.00    +0.000 HD
DOCKED: ENDBRANCH   4   8
DOCKED: ENDBRANCH   3   5
DOCKED: ENDBRANCH   2   3
DOCKED: ENDBRANCH   1   2
DOCKED: BRANCH   1  10
DOCKED: ATOM     10  C   UNL     1      37.830  14.017 121.128 -0.40 -0.00    +0.000 C 
DOCKED: BRANCH  10  11
DOCKED: ATOM     11  C   UNL     1      38.254  15.118 122.123 -0.36 -0.00    +0.000 C 
DOCKED: BRANCH  11  12
DOCKED: ATOM     12  C   UNL     1      37.492  15.063 123.457 -0.37 -0.00    +0.000 C 
DOCKED: BRANCH  12  13
DOCKED: ATOM     13  C   UNL     1      36.133  15.691 123.363 -0.42 -0.00    +0.000 C 
DOCKED: ATOM     14  N   UNL     1      34.977  14.988 123.827 -0.56 -0.00    +0.000 N 
DOCKED: ATOM     15  O   UNL     1      36.016  16.858 122.900 -0.29 -0.00    +0.000 OA
DOCKED: ATOM     16  H   UNL     1      35.072  14.079 124.192 -0.05 -0.00    +0.000 HD
DOCKED: BRANCH  14  17
DOCKED: ATOM     17  O   UNL     1      33.752  15.563 123.770 -0.63 -0.00    +0.000 OA
DOCKED: ATOM     18  H   UNL     1      33.829  16.451 123.386 -0.03 -0.00    +0.000 HD
DOCKED: ENDBRANCH  14  17
DOCKED: ENDBRANCH  12  13
DOCKED: ENDBRANCH  11  12
DOCKED: ENDBRANCH  10  11
DOCKED: ENDBRANCH   1  10
DOCKED: TORSDOF 9
DOCKED: TER
DOCKED: ENDMDL
________________________________________________________________________________


	BEGINNING GENETIC ALGORITHM DOCKING 11 of 100
Run: 11 Seed: 892770932 1397903176 [ Run 11 of 100 GA/GALS ]
Beginning LAMARCKIAN GENETIC ALGORITHM (LGA), with a maximum of 2500000 energy evaluations.

Final-Value: -13.945


	FINAL GENETIC ALGORITHM DOCKED STATE
	_______________________________________________


Detailed state:  trans 37.666 14.639 123.278 quatxyzw 0.616280 0.730998 0.256779 -0.141089 center 0.300 0.400 0.510 ntor 9 179.0551 35.3151 141.1468 96.8077 -122.6760 155.6296 74.9111 -35.9718 -53.3334
State:	 37.666  14.639 123.278   0.623  0.738  0.259 -163.778    179.06   35.32  141.15   96.81 -122.68  155.63   74.91  -35.97  -53.33

DOCKED: MODEL       11
DOCKED: USER    Run = 11
DOCKED: USER    DPF = ligand_dock.biased.dpf
DOCKED: USER  
DOCKED: USER    Estimated Free Energy of Binding    =   -9.49 kcal/mol  [=(1)+(2)+(3)-(4)]
DOCKED: USER    Estimated Inhibition Constant, Ki   =  110.99 nM (nanomolar)  [Temperature = 298.15 K]
DOCKED: USER    
DOCKED: USER    (1) Final Intermolecular Energy     =  -12.17 kcal/mol
DOCKED: USER        vdW + Hbond + desolv Energy     =  -12.17 kcal/mol
DOCKED: USER        Electrostatic Energy            =   +0.00 kcal/mol
DOCKED: USER    (2) Final Total Internal Energy     =   -1.77 kcal/mol
DOCKED: USER    (3) Torsional Free Energy           =   +2.68 kcal/mol
DOCKED: USER    (4) Unbound System's Energy  [=(2)] =   -1.77 kcal/mol
DOCKED: USER    
DOCKED: USER    
DOCKED: USER    NEWDPF move ligand.pdbqt
DOCKED: USER    NEWDPF about 0.300000 0.400000 0.510000
DOCKED: USER    NEWDPF tran0 37.665883 14.638504 123.277775
DOCKED: USER    NEWDPF quaternion0 0.616280 0.730998 0.256779 -0.141089
DOCKED: USER    NEWDPF axisangle0 0.622507 0.738384 0.259373 -163.778252
DOCKED: USER    NEWDPF quat0 0.622507 0.738384 0.259373 -163.778252
DOCKED: USER    NEWDPF dihe0 179.06 35.32 141.15 96.81 -122.68 155.63 74.91 -35.97 -53.33 
DOCKED: USER  keepresnum = 1 
DOCKED: USER  
DOCKED: REMARK  Name = 
DOCKED: REMARK  9 active torsions:
DOCKED: REMARK  status: ('A' for Active; 'I' for Inactive)
DOCKED: REMARK    1  A    between atoms: O_1  and  N_2
DOCKED: REMARK    2  A    between atoms: C_3  and  C_4
DOCKED: REMARK    3  A    between atoms: C_4  and  C_5
DOCKED: REMARK    4  A    between atoms: C_5  and  C_6
DOCKED: REMARK    5  A    between atoms: C_6  and  C_7
DOCKED: REMARK    6  A    between atoms: C_7  and  C_8
DOCKED: REMARK    7  A    between atoms: C_8  and  C_9
DOCKED: REMARK    8  A    between atoms: C_9  and  C_10
DOCKED: REMARK    9  A    between atoms: N_11  and  O_12
DOCKED: REMARK                            x       y       z     vdW  Elec       q    Type
DOCKED: REMARK                         _______ _______ _______ _____ _____    ______ ____
DOCKED: USER                              x       y       z     vdW  Elec       q    Type
DOCKED: USER                           _______ _______ _______ _____ _____    ______ ____
DOCKED: ROOT
DOCKED: ATOM      1  C   UNL     1      36.298  14.058 124.135 -0.38 -0.00    +0.000 C 
DOCKED: ENDROOT
DOCKED: BRANCH   1   2
DOCKED: ATOM      2  C   UNL     1      36.159  15.276 123.215 -0.44 -0.00    +0.000 C 
DOCKED: BRANCH   2   3
DOCKED: ATOM      3  C   UNL     1      37.515  15.681 122.630 -0.33 -0.00    +0.000 C 
DOCKED: BRANCH   3   5
DOCKED: ATOM      4  N   UNL     1      37.438  13.913 120.808 -0.35 -0.00    +0.000 N 
DOCKED: ATOM      5  C   UNL     1      38.134  14.533 121.893 -0.40 -0.00    +0.000 C 
DOCKED: ATOM      6  O   UNL     1      39.290  14.139 122.206 -0.80 -0.00    +0.000 OA
DOCKED: ATOM      7  H   UNL     1      36.540  14.230 120.561 -0.01 -0.00    +0.000 HD
DOCKED: BRANCH   4   8
DOCKED: ATOM      8  O   UNL     1      38.004  12.894 120.119 -0.48 -0.00    +0.000 OA
DOCKED: ATOM      9  H   UNL     1      38.888  12.714 120.477 -0.12 -0.00    +0.000 HD
DOCKED: ENDBRANCH   4   8
DOCKED: ENDBRANCH   3   5
DOCKED: ENDBRANCH   2   3
DOCKED: ENDBRANCH   1   2
DOCKED: BRANCH   1  10
DOCKED: ATOM     10  C   UNL     1      35.770  12.788 123.453 -0.56 -0.00    +0.000 C 
DOCKED: BRANCH  10  11
DOCKED: ATOM     11  C   UNL     1      36.822  11.661 123.410 -0.69 -0.00    +0.000 C 
DOCKED: BRANCH  11  12
DOCKED: ATOM     12  C   UNL     1      36.970  11.014 122.023 -0.57 -0.00    +0.000 C 
DOCKED: BRANCH  12  13
DOCKED: ATOM     13  C   UNL     1      37.048   9.517 122.098 -0.62 -0.00    +0.000 C 
DOCKED: ATOM     14  N   UNL     1      37.068   8.856 123.366 -0.63 -0.00    +0.000 N 
DOCKED: ATOM     15  O   UNL     1      37.067   8.840 121.036 -2.70 -0.00    +0.000 OA
DOCKED: ATOM     16  H   UNL     1      37.050   9.388 124.195 -0.57 -0.00    +0.000 HD
DOCKED: BRANCH  14  17
DOCKED: ATOM     17  O   UNL     1      37.111   7.504 123.438 -2.17 -0.00    +0.000 OA
DOCKED: ATOM     18  H   UNL     1      37.652   7.159 122.711 -0.36 -0.00    +0.000 HD
DOCKED: ENDBRANCH  14  17
DOCKED: ENDBRANCH  12  13
DOCKED: ENDBRANCH  11  12
DOCKED: ENDBRANCH  10  11
DOCKED: ENDBRANCH   1  10
DOCKED: TORSDOF 9
DOCKED: TER
DOCKED: ENDMDL
________________________________________________________________________________


	BEGINNING GENETIC ALGORITHM DOCKING 12 of 100
Run: 12 Seed: 436439922 2075735542 [ Run 12 of 100 GA/GALS ]
Beginning LAMARCKIAN GENETIC ALGORITHM (LGA), with a maximum of 2500000 energy evaluations.

Final-Value: -12.781


	FINAL GENETIC ALGORITHM DOCKED STATE
	_______________________________________________


Detailed state:  trans 35.645 12.666 122.109 quatxyzw 0.645486 -0.624264 -0.146783 -0.414847 center 0.300 0.400 0.510 ntor 9 -174.2906 -0.5787 -116.2060 -174.5894 10.6779 -179.7788 -2.7313 158.4333 -47.9735
State:	 35.645  12.666 122.109   0.709 -0.686 -0.161 -130.981   -174.29   -0.58 -116.21 -174.59   10.68 -179.78   -2.73  158.43  -47.97

DOCKED: MODEL       12
DOCKED: USER    Run = 12
DOCKED: USER    DPF = ligand_dock.biased.dpf
DOCKED: USER  
DOCKED: USER    Estimated Free Energy of Binding    =   -8.51 kcal/mol  [=(1)+(2)+(3)-(4)]
DOCKED: USER    Estimated Inhibition Constant, Ki   =  581.87 nM (nanomolar)  [Temperature = 298.15 K]
DOCKED: USER    
DOCKED: USER    (1) Final Intermolecular Energy     =  -11.19 kcal/mol
DOCKED: USER        vdW + Hbond + desolv Energy     =  -11.19 kcal/mol
DOCKED: USER        Electrostatic Energy            =   +0.00 kcal/mol
DOCKED: USER    (2) Final Total Internal Energy     =   -1.59 kcal/mol
DOCKED: USER    (3) Torsional Free Energy           =   +2.68 kcal/mol
DOCKED: USER    (4) Unbound System's Energy  [=(2)] =   -1.59 kcal/mol
DOCKED: USER    
DOCKED: USER    
DOCKED: USER    NEWDPF move ligand.pdbqt
DOCKED: USER    NEWDPF about 0.300000 0.400000 0.510000
DOCKED: USER    NEWDPF tran0 35.645019 12.666455 122.109446
DOCKED: USER    NEWDPF quaternion0 0.645486 -0.624264 -0.146783 -0.414847
DOCKED: USER    NEWDPF axisangle0 0.709410 -0.686086 -0.161319 -130.980667
DOCKED: USER    NEWDPF quat0 0.709410 -0.686086 -0.161319 -130.980667
DOCKED: USER    NEWDPF dihe0 -174.29 -0.58 -116.21 -174.59 10.68 -179.78 -2.73 158.43 -47.97 
DOCKED: USER  keepresnum = 1 
DOCKED: USER  
DOCKED: REMARK  Name = 
DOCKED: REMARK  9 active torsions:
DOCKED: REMARK  status: ('A' for Active; 'I' for Inactive)
DOCKED: REMARK    1  A    between atoms: O_1  and  N_2
DOCKED: REMARK    2  A    between atoms: C_3  and  C_4
DOCKED: REMARK    3  A    between atoms: C_4  and  C_5
DOCKED: REMARK    4  A    between atoms: C_5  and  C_6
DOCKED: REMARK    5  A    between atoms: C_6  and  C_7
DOCKED: REMARK    6  A    between atoms: C_7  and  C_8
DOCKED: REMARK    7  A    between atoms: C_8  and  C_9
DOCKED: REMARK    8  A    between atoms: C_9  and  C_10
DOCKED: REMARK    9  A    between atoms: N_11  and  O_12
DOCKED: REMARK                            x       y       z     vdW  Elec       q    Type
DOCKED: REMARK                         _______ _______ _______ _____ _____    ______ ____
DOCKED: USER                              x       y       z     vdW  Elec       q    Type
DOCKED: USER                           _______ _______ _______ _____ _____    ______ ____
DOCKED: ROOT
DOCKED: ATOM      1  C   UNL     1      37.197  13.302 122.469 -0.53 -0.00    +0.000 C 
DOCKED: ENDROOT
DOCKED: BRANCH   1   2
DOCKED: ATOM      2  C   UNL     1      37.068  11.880 121.910 -0.57 -0.00    +0.000 C 
DOCKED: BRANCH   2   3
DOCKED: ATOM      3  C   UNL     1      36.719  10.883 123.018 -0.69 -0.00    +0.000 C 
DOCKED: BRANCH   3   5
DOCKED: ATOM      4  N   UNL     1      36.979   8.391 123.439 -0.69 -0.00    +0.000 N 
DOCKED: ATOM      5  C   UNL     1      36.839   9.476 122.516 -0.68 -0.00    +0.000 C 
DOCKED: ATOM      6  O   UNL     1      36.776   9.246 121.279 -2.57 -0.00    +0.000 OA
DOCKED: ATOM      7  H   UNL     1      37.019   8.576 124.405 -0.46 -0.00    +0.000 HD
DOCKED: BRANCH   4   8
DOCKED: ATOM      8  O   UNL     1      37.059   7.115 122.994 -1.90 -0.00    +0.000 OA
DOCKED: ATOM      9  H   UNL     1      37.097   7.113 122.025 -0.12 -0.00    +0.000 HD
DOCKED: ENDBRANCH   4   8
DOCKED: ENDBRANCH   3   5
DOCKED: ENDBRANCH   2   3
DOCKED: ENDBRANCH   1   2
DOCKED: BRANCH   1  10
DOCKED: ATOM     10  C   UNL     1      37.610  14.292 121.369 -0.38 -0.00    +0.000 C 
DOCKED: BRANCH  10  11
DOCKED: ATOM     11  C   UNL     1      36.703  15.539 121.327 -0.21 -0.00    +0.000 C 
DOCKED: BRANCH  11  12
DOCKED: ATOM     12  C   UNL     1      36.759  16.380 122.613 -0.29 -0.00    +0.000 C 
DOCKED: BRANCH  12  13
DOCKED: ATOM     13  C   UNL     1      35.473  16.328 123.384 -0.42 -0.00    +0.000 C 
DOCKED: ATOM     14  N   UNL     1      35.219  15.258 124.297 -0.53 -0.00    +0.000 N 
DOCKED: ATOM     15  O   UNL     1      34.626  17.251 123.245 -0.42 -0.00    +0.000 OA
DOCKED: ATOM     16  H   UNL     1      35.884  14.540 124.406 -0.05 -0.00    +0.000 HD
DOCKED: BRANCH  14  17
DOCKED: ATOM     17  O   UNL     1      34.072  15.223 125.016 -0.66 -0.00    +0.000 OA
DOCKED: ATOM     18  H   UNL     1      33.532  16.000 124.801 -0.04 -0.00    +0.000 HD
DOCKED: ENDBRANCH  14  17
DOCKED: ENDBRANCH  12  13
DOCKED: ENDBRANCH  11  12
DOCKED: ENDBRANCH  10  11
DOCKED: ENDBRANCH   1  10
DOCKED: TORSDOF 9
DOCKED: TER
DOCKED: ENDMDL
________________________________________________________________________________


	BEGINNING GENETIC ALGORITHM DOCKING 13 of 100
Run: 13 Seed: 1896788859 1290473052 [ Run 13 of 100 GA/GALS ]
Beginning LAMARCKIAN GENETIC ALGORITHM (LGA), with a maximum of 2500000 energy evaluations.

Final-Value: -13.999


	FINAL GENETIC ALGORITHM DOCKED STATE
	_______________________________________________


Detailed state:  trans 37.785 14.979 122.145 quatxyzw 0.083592 -0.359771 -0.391181 0.842944 center 0.300 0.400 0.510 ntor 9 -179.9270 -4.3307 -127.9281 179.5584 -38.4235 -4.5925 94.6056 -148.7162 -29.3533
State:	 37.785  14.979 122.145   0.155 -0.669 -0.727 65.095   -179.93   -4.33 -127.93  179.56  -38.42   -4.59   94.61 -148.72  -29.35

DOCKED: MODEL       13
DOCKED: USER    Run = 13
DOCKED: USER    DPF = ligand_dock.biased.dpf
DOCKED: USER  
DOCKED: USER    Estimated Free Energy of Binding    =   -9.76 kcal/mol  [=(1)+(2)+(3)-(4)]
DOCKED: USER    Estimated Inhibition Constant, Ki   =   70.59 nM (nanomolar)  [Temperature = 298.15 K]
DOCKED: USER    
DOCKED: USER    (1) Final Intermolecular Energy     =  -12.44 kcal/mol
DOCKED: USER        vdW + Hbond + desolv Energy     =  -12.44 kcal/mol
DOCKED: USER        Electrostatic Energy            =   +0.00 kcal/mol
DOCKED: USER    (2) Final Total Internal Energy     =   -1.56 kcal/mol
DOCKED: USER    (3) Torsional Free Energy           =   +2.68 kcal/mol
DOCKED: USER    (4) Unbound System's Energy  [=(2)] =   -1.56 kcal/mol
DOCKED: USER    
DOCKED: USER    
DOCKED: USER    NEWDPF move ligand.pdbqt
DOCKED: USER    NEWDPF about 0.300000 0.400000 0.510000
DOCKED: USER    NEWDPF tran0 37.784945 14.979225 122.145004
DOCKED: USER    NEWDPF quaternion0 0.083592 -0.359771 -0.391181 0.842944
DOCKED: USER    NEWDPF axisangle0 0.155375 -0.668718 -0.727100 65.095362
DOCKED: USER    NEWDPF quat0 0.155375 -0.668718 -0.727100 65.095362
DOCKED: USER    NEWDPF dihe0 -179.93 -4.33 -127.93 179.56 -38.42 -4.59 94.61 -148.72 -29.35 
DOCKED: USER  keepresnum = 1 
DOCKED: USER  
DOCKED: REMARK  Name = 
DOCKED: REMARK  9 active torsions:
DOCKED: REMARK  status: ('A' for Active; 'I' for Inactive)
DOCKED: REMARK    1  A    between atoms: O_1  and  N_2
DOCKED: REMARK    2  A    between atoms: C_3  and  C_4
DOCKED: REMARK    3  A    between atoms: C_4  and  C_5
DOCKED: REMARK    4  A    between atoms: C_5  and  C_6
DOCKED: REMARK    5  A    between atoms: C_6  and  C_7
DOCKED: REMARK    6  A    between atoms: C_7  and  C_8
DOCKED: REMARK    7  A    between atoms: C_8  and  C_9
DOCKED: REMARK    8  A    between atoms: C_9  and  C_10
DOCKED: REMARK    9  A    between atoms: N_11  and  O_12
DOCKED: REMARK                            x       y       z     vdW  Elec       q    Type
DOCKED: REMARK                         _______ _______ _______ _____ _____    ______ ____
DOCKED: USER                              x       y       z     vdW  Elec       q    Type
DOCKED: USER                           _______ _______ _______ _____ _____    ______ ____
DOCKED: ROOT
DOCKED: ATOM      1  C   UNL     1      37.387  13.717 121.054 -0.42 -0.00    +0.000 C 
DOCKED: ENDROOT
DOCKED: BRANCH   1   2
DOCKED: ATOM      2  C   UNL     1      38.729  14.446 120.918 -0.34 -0.00    +0.000 C 
DOCKED: BRANCH   2   3
DOCKED: ATOM      3  C   UNL     1      39.052  15.243 122.184 -0.37 -0.00    +0.000 C 
DOCKED: BRANCH   3   5
DOCKED: ATOM      4  N   UNL     1      41.180  16.246 123.145 -0.37 -0.00    +0.000 N 
DOCKED: ATOM      5  C   UNL     1      40.514  15.154 122.502 -0.45 -0.00    +0.000 C 
DOCKED: ATOM      6  O   UNL     1      41.149  14.099 122.238 -1.04 +0.00    +0.000 OA
DOCKED: ATOM      7  H   UNL     1      40.677  17.065 123.358 -0.01 -0.00    +0.000 HD
DOCKED: BRANCH   4   8
DOCKED: ATOM      8  O   UNL     1      42.493  16.161 123.461 -1.11 +0.00    +0.000 OA
DOCKED: ATOM      9  H   UNL     1      42.837  15.298 123.184 -0.06 +0.00    +0.000 HD
DOCKED: ENDBRANCH   4   8
DOCKED: ENDBRANCH   3   5
DOCKED: ENDBRANCH   2   3
DOCKED: ENDBRANCH   1   2
DOCKED: BRANCH   1  10
DOCKED: ATOM     10  C   UNL     1      37.564  12.362 121.754 -0.42 -0.00    +0.000 C 
DOCKED: BRANCH  10  11
DOCKED: ATOM     11  C   UNL     1      36.328  11.962 122.586 -0.64 -0.00    +0.000 C 
DOCKED: BRANCH  11  12
DOCKED: ATOM     12  C   UNL     1      35.623  10.699 122.066 -0.50 -0.00    +0.000 C 
DOCKED: BRANCH  12  13
DOCKED: ATOM     13  C   UNL     1      36.496   9.483 122.154 -0.69 -0.00    +0.000 C 
DOCKED: ATOM     14  N   UNL     1      36.672   8.806 123.401 -0.60 -0.00    +0.000 N 
DOCKED: ATOM     15  O   UNL     1      37.054   9.039 121.114 -2.72 -0.00    +0.000 OA
DOCKED: ATOM     16  H   UNL     1      36.233   9.152 124.211 -0.31 -0.00    +0.000 HD
DOCKED: BRANCH  14  17
DOCKED: ATOM     17  O   UNL     1      37.438   7.691 123.478 -2.15 -0.00    +0.000 OA
DOCKED: ATOM     18  H   UNL     1      37.740   7.444 122.590 -0.23 -0.00    +0.000 HD
DOCKED: ENDBRANCH  14  17
DOCKED: ENDBRANCH  12  13
DOCKED: ENDBRANCH  11  12
DOCKED: ENDBRANCH  10  11
DOCKED: ENDBRANCH   1  10
DOCKED: TORSDOF 9
DOCKED: TER
DOCKED: ENDMDL
________________________________________________________________________________


	BEGINNING GENETIC ALGORITHM DOCKING 14 of 100
Run: 14 Seed: 10975889 1685235368 [ Run 14 of 100 GA/GALS ]
Beginning LAMARCKIAN GENETIC ALGORITHM (LGA), with a maximum of 2500000 energy evaluations.

Final-Value: -13.370


	FINAL GENETIC ALGORITHM DOCKED STATE
	_______________________________________________


Detailed state:  trans 35.444 14.416 123.137 quatxyzw 0.287445 0.034471 -0.660000 0.693243 center 0.300 0.400 0.510 ntor 9 177.7867 1.9367 70.3610 148.9768 79.1248 32.6365 101.9832 163.4471 -54.8538
State:	 35.444  14.416 123.137   0.399  0.048 -0.916 92.225    177.79    1.94   70.36  148.98   79.12   32.64  101.98  163.45  -54.85

DOCKED: MODEL       14
DOCKED: USER    Run = 14
DOCKED: USER    DPF = ligand_dock.biased.dpf
DOCKED: USER  
DOCKED: USER    Estimated Free Energy of Binding    =   -9.09 kcal/mol  [=(1)+(2)+(3)-(4)]
DOCKED: USER    Estimated Inhibition Constant, Ki   =  217.83 nM (nanomolar)  [Temperature = 298.15 K]
DOCKED: USER    
DOCKED: USER    (1) Final Intermolecular Energy     =  -11.77 kcal/mol
DOCKED: USER        vdW + Hbond + desolv Energy     =  -11.77 kcal/mol
DOCKED: USER        Electrostatic Energy            =   +0.00 kcal/mol
DOCKED: USER    (2) Final Total Internal Energy     =   -1.60 kcal/mol
DOCKED: USER    (3) Torsional Free Energy           =   +2.68 kcal/mol
DOCKED: USER    (4) Unbound System's Energy  [=(2)] =   -1.60 kcal/mol
DOCKED: USER    
DOCKED: USER    
DOCKED: USER    NEWDPF move ligand.pdbqt
DOCKED: USER    NEWDPF about 0.300000 0.400000 0.510000
DOCKED: USER    NEWDPF tran0 35.444131 14.416208 123.137123
DOCKED: USER    NEWDPF quaternion0 0.287445 0.034471 -0.660000 0.693243
DOCKED: USER    NEWDPF axisangle0 0.398840 0.047830 -0.915772 92.225188
DOCKED: USER    NEWDPF quat0 0.398840 0.047830 -0.915772 92.225188
DOCKED: USER    NEWDPF dihe0 177.79 1.94 70.36 148.98 79.12 32.64 101.98 163.45 -54.85 
DOCKED: USER  keepresnum = 1 
DOCKED: USER  
DOCKED: REMARK  Name = 
DOCKED: REMARK  9 active torsions:
DOCKED: REMARK  status: ('A' for Active; 'I' for Inactive)
DOCKED: REMARK    1  A    between atoms: O_1  and  N_2
DOCKED: REMARK    2  A    between atoms: C_3  and  C_4
DOCKED: REMARK    3  A    between atoms: C_4  and  C_5
DOCKED: REMARK    4  A    between atoms: C_5  and  C_6
DOCKED: REMARK    5  A    between atoms: C_6  and  C_7
DOCKED: REMARK    6  A    between atoms: C_7  and  C_8
DOCKED: REMARK    7  A    between atoms: C_8  and  C_9
DOCKED: REMARK    8  A    between atoms: C_9  and  C_10
DOCKED: REMARK    9  A    between atoms: N_11  and  O_12
DOCKED: REMARK                            x       y       z     vdW  Elec       q    Type
DOCKED: REMARK                         _______ _______ _______ _____ _____    ______ ____
DOCKED: USER                              x       y       z     vdW  Elec       q    Type
DOCKED: USER                           _______ _______ _______ _____ _____    ______ ____
DOCKED: ROOT
DOCKED: ATOM      1  C   UNL     1      36.727  13.715 122.241 -0.43 -0.00    +0.000 C 
DOCKED: ENDROOT
DOCKED: BRANCH   1   2
DOCKED: ATOM      2  C   UNL     1      36.906  15.103 122.867 -0.41 -0.00    +0.000 C 
DOCKED: BRANCH   2   3
DOCKED: ATOM      3  C   UNL     1      35.946  15.302 124.043 -0.46 -0.00    +0.000 C 
DOCKED: BRANCH   3   5
DOCKED: ATOM      4  N   UNL     1      34.796  16.849 122.388 -0.34 -0.00    +0.000 N 
DOCKED: ATOM      5  C   UNL     1      34.771  16.134 123.627 -0.51 -0.00    +0.000 C 
DOCKED: ATOM      6  O   UNL     1      33.742  16.169 124.353 -0.54 -0.00    +0.000 OA
DOCKED: ATOM      7  H   UNL     1      35.599  16.811 121.820 -0.01 -0.00    +0.000 HD
DOCKED: BRANCH   4   8
DOCKED: ATOM      8  O   UNL     1      33.726  17.579 121.992 -0.49 -0.00    +0.000 OA
DOCKED: ATOM      9  H   UNL     1      33.013  17.485 122.643 +0.00 -0.00    +0.000 HD
DOCKED: ENDBRANCH   4   8
DOCKED: ENDBRANCH   3   5
DOCKED: ENDBRANCH   2   3
DOCKED: ENDBRANCH   1   2
DOCKED: BRANCH   1  10
DOCKED: ATOM     10  C   UNL     1      37.412  12.634 123.090 -0.59 -0.00    +0.000 C 
DOCKED: BRANCH  10  11
DOCKED: ATOM     11  C   UNL     1      36.434  11.526 123.533 -0.70 -0.00    +0.000 C 
DOCKED: BRANCH  11  12
DOCKED: ATOM     12  C   UNL     1      35.924  10.659 122.371 -0.66 -0.00    +0.000 C 
DOCKED: BRANCH  12  13
DOCKED: ATOM     13  C   UNL     1      36.639   9.343 122.286 -0.72 -0.00    +0.000 C 
DOCKED: ATOM     14  N   UNL     1      36.812   8.536 123.453 -0.65 -0.00    +0.000 N 
DOCKED: ATOM     15  O   UNL     1      37.064   8.935 121.171 -2.70 -0.00    +0.000 OA
DOCKED: ATOM     16  H   UNL     1      36.476   8.855 124.322 -0.33 -0.00    +0.000 HD
DOCKED: BRANCH  14  17
DOCKED: ATOM     17  O   UNL     1      37.433   7.334 123.375 -1.96 -0.00    +0.000 OA
DOCKED: ATOM     18  H   UNL     1      37.728   7.182 122.464 -0.28 -0.00    +0.000 HD
DOCKED: ENDBRANCH  14  17
DOCKED: ENDBRANCH  12  13
DOCKED: ENDBRANCH  11  12
DOCKED: ENDBRANCH  10  11
DOCKED: ENDBRANCH   1  10
DOCKED: TORSDOF 9
DOCKED: TER
DOCKED: ENDMDL
________________________________________________________________________________


	BEGINNING GENETIC ALGORITHM DOCKING 15 of 100
Run: 15 Seed: 1220373055 1586637159 [ Run 15 of 100 GA/GALS ]
Beginning LAMARCKIAN GENETIC ALGORITHM (LGA), with a maximum of 2500000 energy evaluations.

Final-Value: -13.626


	FINAL GENETIC ALGORITHM DOCKED STATE
	_______________________________________________


Detailed state:  trans 37.992 12.733 121.436 quatxyzw 0.885031 0.417805 -0.198633 0.051998 center 0.300 0.400 0.510 ntor 9 179.9090 14.3193 -113.4281 59.4680 104.6310 59.8381 -6.8556 98.1490 -85.0146
State:	 37.992  12.733 121.436   0.886  0.418 -0.199 174.039    179.91   14.32 -113.43   59.47  104.63   59.84   -6.86   98.15  -85.01

DOCKED: MODEL       15
DOCKED: USER    Run = 15
DOCKED: USER    DPF = ligand_dock.biased.dpf
DOCKED: USER  
DOCKED: USER    Estimated Free Energy of Binding    =   -9.36 kcal/mol  [=(1)+(2)+(3)-(4)]
DOCKED: USER    Estimated Inhibition Constant, Ki   =  138.46 nM (nanomolar)  [Temperature = 298.15 K]
DOCKED: USER    
DOCKED: USER    (1) Final Intermolecular Energy     =  -12.04 kcal/mol
DOCKED: USER        vdW + Hbond + desolv Energy     =  -12.04 kcal/mol
DOCKED: USER        Electrostatic Energy            =   +0.00 kcal/mol
DOCKED: USER    (2) Final Total Internal Energy     =   -1.58 kcal/mol
DOCKED: USER    (3) Torsional Free Energy           =   +2.68 kcal/mol
DOCKED: USER    (4) Unbound System's Energy  [=(2)] =   -1.58 kcal/mol
DOCKED: USER    
DOCKED: USER    
DOCKED: USER    NEWDPF move ligand.pdbqt
DOCKED: USER    NEWDPF about 0.300000 0.400000 0.510000
DOCKED: USER    NEWDPF tran0 37.992206 12.733395 121.436182
DOCKED: USER    NEWDPF quaternion0 0.885031 0.417805 -0.198633 0.051998
DOCKED: USER    NEWDPF axisangle0 0.886230 0.418371 -0.198902 174.038752
DOCKED: USER    NEWDPF quat0 0.886230 0.418371 -0.198902 174.038752
DOCKED: USER    NEWDPF dihe0 179.91 14.32 -113.43 59.47 104.63 59.84 -6.86 98.15 -85.01 
DOCKED: USER  keepresnum = 1 
DOCKED: USER  
DOCKED: REMARK  Name = 
DOCKED: REMARK  9 active torsions:
DOCKED: REMARK  status: ('A' for Active; 'I' for Inactive)
DOCKED: REMARK    1  A    between atoms: O_1  and  N_2
DOCKED: REMARK    2  A    between atoms: C_3  and  C_4
DOCKED: REMARK    3  A    between atoms: C_4  and  C_5
DOCKED: REMARK    4  A    between atoms: C_5  and  C_6
DOCKED: REMARK    5  A    between atoms: C_6  and  C_7
DOCKED: REMARK    6  A    between atoms: C_7  and  C_8
DOCKED: REMARK    7  A    between atoms: C_8  and  C_9
DOCKED: REMARK    8  A    between atoms: C_9  and  C_10
DOCKED: REMARK    9  A    between atoms: N_11  and  O_12
DOCKED: REMARK                            x       y       z     vdW  Elec       q    Type
DOCKED: REMARK                         _______ _______ _______ _____ _____    ______ ____
DOCKED: USER                              x       y       z     vdW  Elec       q    Type
DOCKED: USER                           _______ _______ _______ _____ _____    ______ ____
DOCKED: ROOT
DOCKED: ATOM      1  C   UNL     1      37.968  13.166 123.096 -0.39 -0.00    +0.000 C 
DOCKED: ENDROOT
DOCKED: BRANCH   1   2
DOCKED: ATOM      2  C   UNL     1      37.883  14.258 122.023 -0.43 -0.00    +0.000 C 
DOCKED: BRANCH   2   3
DOCKED: ATOM      3  C   UNL     1      39.279  14.681 121.557 -0.37 -0.00    +0.000 C 
DOCKED: BRANCH   3   5
DOCKED: ATOM      4  N   UNL     1      41.347  15.773 122.549 -0.41 -0.00    +0.000 N 
DOCKED: ATOM      5  C   UNL     1      39.934  15.554 122.584 -0.37 -0.00    +0.000 C 
DOCKED: ATOM      6  O   UNL     1      39.230  16.128 123.457 -0.28 -0.00    +0.000 OA
DOCKED: ATOM      7  H   UNL     1      41.892  15.330 121.859 -0.02 -0.00    +0.000 HD
DOCKED: BRANCH   4   8
DOCKED: ATOM      8  O   UNL     1      41.942  16.584 123.456 -1.05 -0.00    +0.000 OA
DOCKED: ATOM      9  H   UNL     1      41.271  16.938 124.060 -0.04 -0.00    +0.000 HD
DOCKED: ENDBRANCH   4   8
DOCKED: ENDBRANCH   3   5
DOCKED: ENDBRANCH   2   3
DOCKED: ENDBRANCH   1   2
DOCKED: BRANCH   1  10
DOCKED: ATOM     10  C   UNL     1      36.582  12.861 123.682 -0.62 -0.00    +0.000 C 
DOCKED: BRANCH  10  11
DOCKED: ATOM     11  C   UNL     1      35.876  11.700 122.952 -0.64 -0.00    +0.000 C 
DOCKED: BRANCH  11  12
DOCKED: ATOM     12  C   UNL     1      36.730  11.065 121.843 -0.59 -0.00    +0.000 C 
DOCKED: BRANCH  12  13
DOCKED: ATOM     13  C   UNL     1      36.826   9.574 121.981 -0.66 -0.00    +0.000 C 
DOCKED: ATOM     14  N   UNL     1      37.005   8.977 123.268 -0.63 -0.00    +0.000 N 
DOCKED: ATOM     15  O   UNL     1      36.720   8.845 120.959 -2.62 -0.00    +0.000 OA
DOCKED: ATOM     16  H   UNL     1      37.084   9.549 124.066 -0.54 -0.00    +0.000 HD
DOCKED: BRANCH  14  17
DOCKED: ATOM     17  O   UNL     1      37.065   7.630 123.401 -2.26 -0.00    +0.000 OA
DOCKED: ATOM     18  H   UNL     1      37.199   7.226 122.529 -0.13 -0.00    +0.000 HD
DOCKED: ENDBRANCH  14  17
DOCKED: ENDBRANCH  12  13
DOCKED: ENDBRANCH  11  12
DOCKED: ENDBRANCH  10  11
DOCKED: ENDBRANCH   1  10
DOCKED: TORSDOF 9
DOCKED: TER
DOCKED: ENDMDL
________________________________________________________________________________


	BEGINNING GENETIC ALGORITHM DOCKING 16 of 100
Run: 16 Seed: 1710016574 1593666327 [ Run 16 of 100 GA/GALS ]
Beginning LAMARCKIAN GENETIC ALGORITHM (LGA), with a maximum of 2500000 energy evaluations.

Final-Value: -13.082


	FINAL GENETIC ALGORITHM DOCKED STATE
	_______________________________________________


Detailed state:  trans 38.424 14.376 119.916 quatxyzw 0.785733 0.429480 0.068987 0.439785 center 0.300 0.400 0.510 ntor 9 -178.7696 -2.3463 179.3886 -179.0795 79.6743 42.4454 -93.6143 -36.7212 70.1731
State:	 38.424  14.376 119.916   0.875  0.478  0.077 127.820   -178.77   -2.35  179.39 -179.08   79.67   42.45  -93.61  -36.72   70.17

DOCKED: MODEL       16
DOCKED: USER    Run = 16
DOCKED: USER    DPF = ligand_dock.biased.dpf
DOCKED: USER  
DOCKED: USER    Estimated Free Energy of Binding    =   -8.62 kcal/mol  [=(1)+(2)+(3)-(4)]
DOCKED: USER    Estimated Inhibition Constant, Ki   =  479.14 nM (nanomolar)  [Temperature = 298.15 K]
DOCKED: USER    
DOCKED: USER    (1) Final Intermolecular Energy     =  -11.31 kcal/mol
DOCKED: USER        vdW + Hbond + desolv Energy     =  -11.31 kcal/mol
DOCKED: USER        Electrostatic Energy            =   +0.00 kcal/mol
DOCKED: USER    (2) Final Total Internal Energy     =   -1.78 kcal/mol
DOCKED: USER    (3) Torsional Free Energy           =   +2.68 kcal/mol
DOCKED: USER    (4) Unbound System's Energy  [=(2)] =   -1.78 kcal/mol
DOCKED: USER    
DOCKED: USER    
DOCKED: USER    NEWDPF move ligand.pdbqt
DOCKED: USER    NEWDPF about 0.300000 0.400000 0.510000
DOCKED: USER    NEWDPF tran0 38.424446 14.376214 119.915612
DOCKED: USER    NEWDPF quaternion0 0.785733 0.429480 0.068987 0.439785
DOCKED: USER    NEWDPF axisangle0 0.874881 0.478208 0.076815 127.819711
DOCKED: USER    NEWDPF quat0 0.874881 0.478208 0.076815 127.819711
DOCKED: USER    NEWDPF dihe0 -178.77 -2.35 179.39 -179.08 79.67 42.45 -93.61 -36.72 70.17 
DOCKED: USER  keepresnum = 1 
DOCKED: USER  
DOCKED: REMARK  Name = 
DOCKED: REMARK  9 active torsions:
DOCKED: REMARK  status: ('A' for Active; 'I' for Inactive)
DOCKED: REMARK    1  A    between atoms: O_1  and  N_2
DOCKED: REMARK    2  A    between atoms: C_3  and  C_4
DOCKED: REMARK    3  A    between atoms: C_4  and  C_5
DOCKED: REMARK    4  A    between atoms: C_5  and  C_6
DOCKED: REMARK    5  A    between atoms: C_6  and  C_7
DOCKED: REMARK    6  A    between atoms: C_7  and  C_8
DOCKED: REMARK    7  A    between atoms: C_8  and  C_9
DOCKED: REMARK    8  A    between atoms: C_9  and  C_10
DOCKED: REMARK    9  A    between atoms: N_11  and  O_12
DOCKED: REMARK                            x       y       z     vdW  Elec       q    Type
DOCKED: REMARK                         _______ _______ _______ _____ _____    ______ ____
DOCKED: USER                              x       y       z     vdW  Elec       q    Type
DOCKED: USER                           _______ _______ _______ _____ _____    ______ ____
DOCKED: ROOT
DOCKED: ATOM      1  C   UNL     1      38.185  13.276 121.209 -0.43 -0.00    +0.000 C 
DOCKED: ENDROOT
DOCKED: BRANCH   1   2
DOCKED: ATOM      2  C   UNL     1      38.264  14.780 121.494 -0.35 -0.00    +0.000 C 
DOCKED: BRANCH   2   3
DOCKED: ATOM      3  C   UNL     1      38.290  15.053 123.001 -0.37 -0.00    +0.000 C 
DOCKED: BRANCH   3   5
DOCKED: ATOM      4  N   UNL     1      36.039  14.514 124.049 -0.50 -0.00    +0.000 N 
DOCKED: ATOM      5  C   UNL     1      36.934  15.475 123.482 -0.39 -0.00    +0.000 C 
DOCKED: ATOM      6  O   UNL     1      36.599  16.688 123.422 -0.31 -0.00    +0.000 OA
DOCKED: ATOM      7  H   UNL     1      36.309  13.568 124.102 -0.04 -0.00    +0.000 HD
DOCKED: BRANCH   4   8
DOCKED: ATOM      8  O   UNL     1      34.825  14.892 124.512 -0.64 -0.00    +0.000 OA
DOCKED: ATOM      9  H   UNL     1      34.707  15.844 124.368 -0.03 -0.00    +0.000 HD
DOCKED: ENDBRANCH   4   8
DOCKED: ENDBRANCH   3   5
DOCKED: ENDBRANCH   2   3
DOCKED: ENDBRANCH   1   2
DOCKED: BRANCH   1  10
DOCKED: ATOM     10  C   UNL     1      36.727  12.792 121.204 -0.42 -0.00    +0.000 C 
DOCKED: BRANCH  10  11
DOCKED: ATOM     11  C   UNL     1      36.411  11.860 122.392 -0.63 -0.00    +0.000 C 
DOCKED: BRANCH  11  12
DOCKED: ATOM     12  C   UNL     1      35.664  10.580 121.985 -0.45 -0.00    +0.000 C 
DOCKED: BRANCH  12  13
DOCKED: ATOM     13  C   UNL     1      36.517   9.354 122.128 -0.70 -0.00    +0.000 C 
DOCKED: ATOM     14  N   UNL     1      36.698   8.744 123.409 -0.61 -0.00    +0.000 N 
DOCKED: ATOM     15  O   UNL     1      37.051   8.843 121.107 -2.69 -0.00    +0.000 OA
DOCKED: ATOM     16  H   UNL     1      36.276   9.143 124.204 -0.33 -0.00    +0.000 HD
DOCKED: BRANCH  14  17
DOCKED: ATOM     17  O   UNL     1      37.443   7.621 123.538 -2.06 -0.00    +0.000 OA
DOCKED: ATOM     18  H   UNL     1      37.755   7.337 122.664 -0.34 -0.00    +0.000 HD
DOCKED: ENDBRANCH  14  17
DOCKED: ENDBRANCH  12  13
DOCKED: ENDBRANCH  11  12
DOCKED: ENDBRANCH  10  11
DOCKED: ENDBRANCH   1  10
DOCKED: TORSDOF 9
DOCKED: TER
DOCKED: ENDMDL
________________________________________________________________________________


	BEGINNING GENETIC ALGORITHM DOCKING 17 of 100
Run: 17 Seed: 1509331193 1012853201 [ Run 17 of 100 GA/GALS ]
Beginning LAMARCKIAN GENETIC ALGORITHM (LGA), with a maximum of 2500000 energy evaluations.

Final-Value: -14.171


	FINAL GENETIC ALGORITHM DOCKED STATE
	_______________________________________________


Detailed state:  trans 37.201 13.976 122.320 quatxyzw -0.294290 -0.059599 -0.499980 0.812319 center 0.300 0.400 0.510 ntor 9 -180.0000 27.7367 169.8946 -135.7591 -143.9674 77.8385 55.6010 -178.3460 -123.9029
State:	 37.201  13.976 122.320  -0.505 -0.102 -0.857 71.354   -180.00   27.74  169.89 -135.76 -143.97   77.84   55.60 -178.35 -123.90

DOCKED: MODEL       17
DOCKED: USER    Run = 17
DOCKED: USER    DPF = ligand_dock.biased.dpf
DOCKED: USER  
DOCKED: USER    Estimated Free Energy of Binding    =   -9.07 kcal/mol  [=(1)+(2)+(3)-(4)]
DOCKED: USER    Estimated Inhibition Constant, Ki   =  226.54 nM (nanomolar)  [Temperature = 298.15 K]
DOCKED: USER    
DOCKED: USER    (1) Final Intermolecular Energy     =  -11.75 kcal/mol
DOCKED: USER        vdW + Hbond + desolv Energy     =  -11.75 kcal/mol
DOCKED: USER        Electrostatic Energy            =   +0.00 kcal/mol
DOCKED: USER    (2) Final Total Internal Energy     =   -2.42 kcal/mol
DOCKED: USER    (3) Torsional Free Energy           =   +2.68 kcal/mol
DOCKED: USER    (4) Unbound System's Energy  [=(2)] =   -2.42 kcal/mol
DOCKED: USER    
DOCKED: USER    
DOCKED: USER    NEWDPF move ligand.pdbqt
DOCKED: USER    NEWDPF about 0.300000 0.400000 0.510000
DOCKED: USER    NEWDPF tran0 37.201148 13.975593 122.320181
DOCKED: USER    NEWDPF quaternion0 -0.294290 -0.059599 -0.499980 0.812319
DOCKED: USER    NEWDPF axisangle0 -0.504601 -0.102191 -0.857284 71.353808
DOCKED: USER    NEWDPF quat0 -0.504601 -0.102191 -0.857284 71.353808
DOCKED: USER    NEWDPF dihe0 -180.00 27.74 169.89 -135.76 -143.97 77.84 55.60 -178.35 -123.90 
DOCKED: USER  keepresnum = 1 
DOCKED: USER  
DOCKED: REMARK  Name = 
DOCKED: REMARK  9 active torsions:
DOCKED: REMARK  status: ('A' for Active; 'I' for Inactive)
DOCKED: REMARK    1  A    between atoms: O_1  and  N_2
DOCKED: REMARK    2  A    between atoms: C_3  and  C_4
DOCKED: REMARK    3  A    between atoms: C_4  and  C_5
DOCKED: REMARK    4  A    between atoms: C_5  and  C_6
DOCKED: REMARK    5  A    between atoms: C_6  and  C_7
DOCKED: REMARK    6  A    between atoms: C_7  and  C_8
DOCKED: REMARK    7  A    between atoms: C_8  and  C_9
DOCKED: REMARK    8  A    between atoms: C_9  and  C_10
DOCKED: REMARK    9  A    between atoms: N_11  and  O_12
DOCKED: REMARK                            x       y       z     vdW  Elec       q    Type
DOCKED: REMARK                         _______ _______ _______ _____ _____    ______ ____
DOCKED: USER                              x       y       z     vdW  Elec       q    Type
DOCKED: USER                           _______ _______ _______ _____ _____    ______ ____
DOCKED: ROOT
DOCKED: ATOM      1  C   UNL     1      37.065  14.218 120.628 -0.30 -0.00    +0.000 C 
DOCKED: ENDROOT
DOCKED: BRANCH   1   2
DOCKED: ATOM      2  C   UNL     1      38.359  14.609 121.351 -0.36 -0.00    +0.000 C 
DOCKED: BRANCH   2   3
DOCKED: ATOM      3  C   UNL     1      38.102  14.863 122.838 -0.41 -0.00    +0.000 C 
DOCKED: BRANCH   3   5
DOCKED: ATOM      4  N   UNL     1      37.426  12.625 123.831 -0.54 -0.00    +0.000 N 
DOCKED: ATOM      5  C   UNL     1      37.057  13.924 123.360 -0.52 -0.00    +0.000 C 
DOCKED: ATOM      6  O   UNL     1      35.855  14.297 123.419 -0.57 -0.00    +0.000 OA
DOCKED: ATOM      7  H   UNL     1      38.368  12.341 123.791 -0.03 -0.00    +0.000 HD
DOCKED: BRANCH   4   8
DOCKED: ATOM      8  O   UNL     1      36.491  11.782 124.330 -0.74 -0.00    +0.000 OA
DOCKED: ATOM      9  H   UNL     1      35.621  12.209 124.297 -0.05 -0.00    +0.000 HD
DOCKED: ENDBRANCH   4   8
DOCKED: ENDBRANCH   3   5
DOCKED: ENDBRANCH   2   3
DOCKED: ENDBRANCH   1   2
DOCKED: BRANCH   1  10
DOCKED: ATOM     10  C   UNL     1      37.222  12.871 119.905 -0.47 -0.00    +0.000 C 
DOCKED: BRANCH  10  11
DOCKED: ATOM     11  C   UNL     1      37.713  11.752 120.847 -0.32 -0.00    +0.000 C 
DOCKED: BRANCH  11  12
DOCKED: ATOM     12  C   UNL     1      36.576  11.049 121.607 -0.48 -0.00    +0.000 C 
DOCKED: BRANCH  12  13
DOCKED: ATOM     13  C   UNL     1      36.856   9.593 121.832 -0.60 -0.00    +0.000 C 
DOCKED: ATOM     14  N   UNL     1      36.852   9.051 123.155 -0.65 -0.00    +0.000 N 
DOCKED: ATOM     15  O   UNL     1      37.067   8.839 120.844 -2.72 -0.00    +0.000 OA
DOCKED: ATOM     16  H   UNL     1      36.684   9.642 123.924 -0.44 -0.00    +0.000 HD
DOCKED: BRANCH  14  17
DOCKED: ATOM     17  O   UNL     1      37.077   7.731 123.360 -2.30 -0.00    +0.000 OA
DOCKED: ATOM     18  H   UNL     1      37.631   7.383 122.644 -0.25 -0.00    +0.000 HD
DOCKED: ENDBRANCH  14  17
DOCKED: ENDBRANCH  12  13
DOCKED: ENDBRANCH  11  12
DOCKED: ENDBRANCH  10  11
DOCKED: ENDBRANCH   1  10
DOCKED: TORSDOF 9
DOCKED: TER
DOCKED: ENDMDL
________________________________________________________________________________


	BEGINNING GENETIC ALGORITHM DOCKING 18 of 100
Run: 18 Seed: 910852891 355952401 [ Run 18 of 100 GA/GALS ]
Beginning LAMARCKIAN GENETIC ALGORITHM (LGA), with a maximum of 2500000 energy evaluations.

Final-Value: -13.458


	FINAL GENETIC ALGORITHM DOCKED STATE
	_______________________________________________


Detailed state:  trans 38.787 13.543 122.097 quatxyzw -0.694218 -0.630748 0.099473 0.332150 center 0.300 0.400 0.510 ntor 9 -180.0000 7.6153 128.8827 174.1601 -52.7767 105.5919 91.4960 -41.4246 -90.4607
State:	 38.787  13.543 122.097  -0.736 -0.669  0.105 141.201   -180.00    7.62  128.88  174.16  -52.78  105.59   91.50  -41.42  -90.46

DOCKED: MODEL       18
DOCKED: USER    Run = 18
DOCKED: USER    DPF = ligand_dock.biased.dpf
DOCKED: USER  
DOCKED: USER    Estimated Free Energy of Binding    =   -8.87 kcal/mol  [=(1)+(2)+(3)-(4)]
DOCKED: USER    Estimated Inhibition Constant, Ki   =  316.53 nM (nanomolar)  [Temperature = 298.15 K]
DOCKED: USER    
DOCKED: USER    (1) Final Intermolecular Energy     =  -11.55 kcal/mol
DOCKED: USER        vdW + Hbond + desolv Energy     =  -11.55 kcal/mol
DOCKED: USER        Electrostatic Energy            =   +0.00 kcal/mol
DOCKED: USER    (2) Final Total Internal Energy     =   -1.91 kcal/mol
DOCKED: USER    (3) Torsional Free Energy           =   +2.68 kcal/mol
DOCKED: USER    (4) Unbound System's Energy  [=(2)] =   -1.91 kcal/mol
DOCKED: USER    
DOCKED: USER    
DOCKED: USER    NEWDPF move ligand.pdbqt
DOCKED: USER    NEWDPF about 0.300000 0.400000 0.510000
DOCKED: USER    NEWDPF tran0 38.787102 13.542649 122.096684
DOCKED: USER    NEWDPF quaternion0 -0.694218 -0.630748 0.099473 0.332150
DOCKED: USER    NEWDPF axisangle0 -0.736003 -0.668713 0.105461 141.201387
DOCKED: USER    NEWDPF quat0 -0.736003 -0.668713 0.105461 141.201387
DOCKED: USER    NEWDPF dihe0 -180.00 7.62 128.88 174.16 -52.78 105.59 91.50 -41.42 -90.46 
DOCKED: USER  keepresnum = 1 
DOCKED: USER  
DOCKED: REMARK  Name = 
DOCKED: REMARK  9 active torsions:
DOCKED: REMARK  status: ('A' for Active; 'I' for Inactive)
DOCKED: REMARK    1  A    between atoms: O_1  and  N_2
DOCKED: REMARK    2  A    between atoms: C_3  and  C_4
DOCKED: REMARK    3  A    between atoms: C_4  and  C_5
DOCKED: REMARK    4  A    between atoms: C_5  and  C_6
DOCKED: REMARK    5  A    between atoms: C_6  and  C_7
DOCKED: REMARK    6  A    between atoms: C_7  and  C_8
DOCKED: REMARK    7  A    between atoms: C_8  and  C_9
DOCKED: REMARK    8  A    between atoms: C_9  and  C_10
DOCKED: REMARK    9  A    between atoms: N_11  and  O_12
DOCKED: REMARK                            x       y       z     vdW  Elec       q    Type
DOCKED: REMARK                         _______ _______ _______ _____ _____    ______ ____
DOCKED: USER                              x       y       z     vdW  Elec       q    Type
DOCKED: USER                           _______ _______ _______ _____ _____    ______ ____
DOCKED: ROOT
DOCKED: ATOM      1  C   UNL     1      37.635  14.277 123.134 -0.48 -0.00    +0.000 C 
DOCKED: ENDROOT
DOCKED: BRANCH   1   2
DOCKED: ATOM      2  C   UNL     1      37.642  14.621 121.640 -0.37 -0.00    +0.000 C 
DOCKED: BRANCH   2   3
DOCKED: ATOM      3  C   UNL     1      38.523  13.644 120.855 -0.39 -0.00    +0.000 C 
DOCKED: BRANCH   3   5
DOCKED: ATOM      4  N   UNL     1      36.953  13.875 118.871 -0.36 -0.00    +0.000 N 
DOCKED: ATOM      5  C   UNL     1      37.757  13.045 119.715 -0.43 -0.00    +0.000 C 
DOCKED: ATOM      6  O   UNL     1      37.855  11.812 119.475 -0.50 -0.00    +0.000 OA
DOCKED: ATOM      7  H   UNL     1      36.887  14.840 119.057 -0.01 -0.00    +0.000 HD
DOCKED: BRANCH   4   8
DOCKED: ATOM      8  O   UNL     1      36.282  13.346 117.822 -0.47 -0.00    +0.000 OA
DOCKED: ATOM      9  H   UNL     1      36.450  12.392 117.779 +0.01 -0.00    +0.000 HD
DOCKED: ENDBRANCH   4   8
DOCKED: ENDBRANCH   3   5
DOCKED: ENDBRANCH   2   3
DOCKED: ENDBRANCH   1   2
DOCKED: BRANCH   1  10
DOCKED: ATOM     10  C   UNL     1      36.526  13.265 123.461 -0.61 -0.00    +0.000 C 
DOCKED: BRANCH  10  11
DOCKED: ATOM     11  C   UNL     1      36.989  11.805 123.282 -0.67 -0.00    +0.000 C 
DOCKED: BRANCH  11  12
DOCKED: ATOM     12  C   UNL     1      35.949  10.914 122.584 -0.67 -0.00    +0.000 C 
DOCKED: BRANCH  12  13
DOCKED: ATOM     13  C   UNL     1      36.479   9.542 122.291 -0.70 -0.00    +0.000 C 
DOCKED: ATOM     14  N   UNL     1      36.658   8.594 123.346 -0.65 -0.00    +0.000 N 
DOCKED: ATOM     15  O   UNL     1      36.740   9.215 121.101 -2.63 -0.00    +0.000 OA
DOCKED: ATOM     16  H   UNL     1      36.450   8.850 124.274 -0.34 -0.00    +0.000 HD
DOCKED: BRANCH  14  17
DOCKED: ATOM     17  O   UNL     1      37.110   7.344 123.081 -2.14 -0.00    +0.000 OA
DOCKED: ATOM     18  H   UNL     1      37.380   7.289 122.151 -0.14 -0.00    +0.000 HD
DOCKED: ENDBRANCH  14  17
DOCKED: ENDBRANCH  12  13
DOCKED: ENDBRANCH  11  12
DOCKED: ENDBRANCH  10  11
DOCKED: ENDBRANCH   1  10
DOCKED: TORSDOF 9
DOCKED: TER
DOCKED: ENDMDL
________________________________________________________________________________


	BEGINNING GENETIC ALGORITHM DOCKING 19 of 100
Run: 19 Seed: 63909473 842125335 [ Run 19 of 100 GA/GALS ]
Beginning LAMARCKIAN GENETIC ALGORITHM (LGA), with a maximum of 2500000 energy evaluations.

Final-Value: -13.688


	FINAL GENETIC ALGORITHM DOCKED STATE
	_______________________________________________


Detailed state:  trans 35.073 14.721 124.316 quatxyzw 0.227906 -0.260554 -0.774692 0.529171 center 0.300 0.400 0.510 ntor 9 179.7558 10.6641 -17.3478 119.2556 -76.2025 116.6168 33.2020 135.5047 14.4118
State:	 35.073  14.721 124.316   0.269 -0.307 -0.913 116.101    179.76   10.66  -17.35  119.26  -76.20  116.62   33.20  135.50   14.41

DOCKED: MODEL       19
DOCKED: USER    Run = 19
DOCKED: USER    DPF = ligand_dock.biased.dpf
DOCKED: USER  
DOCKED: USER    Estimated Free Energy of Binding    =   -9.49 kcal/mol  [=(1)+(2)+(3)-(4)]
DOCKED: USER    Estimated Inhibition Constant, Ki   =  109.79 nM (nanomolar)  [Temperature = 298.15 K]
DOCKED: USER    
DOCKED: USER    (1) Final Intermolecular Energy     =  -12.18 kcal/mol
DOCKED: USER        vdW + Hbond + desolv Energy     =  -12.18 kcal/mol
DOCKED: USER        Electrostatic Energy            =   +0.00 kcal/mol
DOCKED: USER    (2) Final Total Internal Energy     =   -1.51 kcal/mol
DOCKED: USER    (3) Torsional Free Energy           =   +2.68 kcal/mol
DOCKED: USER    (4) Unbound System's Energy  [=(2)] =   -1.51 kcal/mol
DOCKED: USER    
DOCKED: USER    
DOCKED: USER    NEWDPF move ligand.pdbqt
DOCKED: USER    NEWDPF about 0.300000 0.400000 0.510000
DOCKED: USER    NEWDPF tran0 35.073381 14.720544 124.315911
DOCKED: USER    NEWDPF quaternion0 0.227906 -0.260554 -0.774692 0.529171
DOCKED: USER    NEWDPF axisangle0 0.268594 -0.307070 -0.912998 116.101054
DOCKED: USER    NEWDPF quat0 0.268594 -0.307070 -0.912998 116.101054
DOCKED: USER    NEWDPF dihe0 179.76 10.66 -17.35 119.26 -76.20 116.62 33.20 135.50 14.41 
DOCKED: USER  keepresnum = 1 
DOCKED: USER  
DOCKED: REMARK  Name = 
DOCKED: REMARK  9 active torsions:
DOCKED: REMARK  status: ('A' for Active; 'I' for Inactive)
DOCKED: REMARK    1  A    between atoms: O_1  and  N_2
DOCKED: REMARK    2  A    between atoms: C_3  and  C_4
DOCKED: REMARK    3  A    between atoms: C_4  and  C_5
DOCKED: REMARK    4  A    between atoms: C_5  and  C_6
DOCKED: REMARK    5  A    between atoms: C_6  and  C_7
DOCKED: REMARK    6  A    between atoms: C_7  and  C_8
DOCKED: REMARK    7  A    between atoms: C_8  and  C_9
DOCKED: REMARK    8  A    between atoms: C_9  and  C_10
DOCKED: REMARK    9  A    between atoms: N_11  and  O_12
DOCKED: REMARK                            x       y       z     vdW  Elec       q    Type
DOCKED: REMARK                         _______ _______ _______ _____ _____    ______ ____
DOCKED: USER                              x       y       z     vdW  Elec       q    Type
DOCKED: USER                           _______ _______ _______ _____ _____    ______ ____
DOCKED: ROOT
DOCKED: ATOM      1  C   UNL     1      35.939  13.809 123.149 -0.47 -0.00    +0.000 C 
DOCKED: ENDROOT
DOCKED: BRANCH   1   2
DOCKED: ATOM      2  C   UNL     1      35.952  15.341 123.081 -0.43 -0.00    +0.000 C 
DOCKED: BRANCH   2   3
DOCKED: ATOM      3  C   UNL     1      34.543  15.911 123.264 -0.42 -0.00    +0.000 C 
DOCKED: BRANCH   3   5
DOCKED: ATOM      4  N   UNL     1      33.688  15.711 125.648 -0.45 -0.00    +0.000 N 
DOCKED: ATOM      5  C   UNL     1      34.375  16.466 124.646 -0.52 -0.00    +0.000 C 
DOCKED: ATOM      6  O   UNL     1      34.877  17.585 124.935 -0.37 -0.00    +0.000 OA
DOCKED: ATOM      7  H   UNL     1      33.306  14.833 125.419 -0.15 -0.00    +0.000 HD
DOCKED: BRANCH   4   8
DOCKED: ATOM      8  O   UNL     1      33.558  16.194 126.906 -1.06 -0.00    +0.000 OA
DOCKED: ATOM      9  H   UNL     1      33.988  17.061 126.965 -0.02 -0.00    +0.000 HD
DOCKED: ENDBRANCH   4   8
DOCKED: ENDBRANCH   3   5
DOCKED: ENDBRANCH   2   3
DOCKED: ENDBRANCH   1   2
DOCKED: BRANCH   1  10
DOCKED: ATOM     10  C   UNL     1      37.234  13.274 123.778 -0.33 -0.00    +0.000 C 
DOCKED: BRANCH  10  11
DOCKED: ATOM     11  C   UNL     1      37.394  11.751 123.592 -0.50 -0.00    +0.000 C 
DOCKED: BRANCH  11  12
DOCKED: ATOM     12  C   UNL     1      36.951  11.254 122.206 -0.59 -0.00    +0.000 C 
DOCKED: BRANCH  12  13
DOCKED: ATOM     13  C   UNL     1      37.007   9.759 122.093 -0.60 -0.00    +0.000 C 
DOCKED: ATOM     14  N   UNL     1      37.046   8.945 123.268 -0.64 -0.00    +0.000 N 
DOCKED: ATOM     15  O   UNL     1      36.990   9.219 120.954 -2.71 -0.00    +0.000 OA
DOCKED: ATOM     16  H   UNL     1      37.056   9.369 124.156 -0.56 -0.00    +0.000 HD
DOCKED: BRANCH  14  17
DOCKED: ATOM     17  O   UNL     1      37.068   7.594 123.170 -2.28 -0.00    +0.000 OA
DOCKED: ATOM     18  H   UNL     1      37.224   7.340 122.247 -0.10 -0.00    +0.000 HD
DOCKED: ENDBRANCH  14  17
DOCKED: ENDBRANCH  12  13
DOCKED: ENDBRANCH  11  12
DOCKED: ENDBRANCH  10  11
DOCKED: ENDBRANCH   1  10
DOCKED: TORSDOF 9
DOCKED: TER
DOCKED: ENDMDL
________________________________________________________________________________


	BEGINNING GENETIC ALGORITHM DOCKING 20 of 100
Run: 20 Seed: 1179929858 1481614952 [ Run 20 of 100 GA/GALS ]
Beginning LAMARCKIAN GENETIC ALGORITHM (LGA), with a maximum of 2500000 energy evaluations.

Final-Value: -13.527


	FINAL GENETIC ALGORITHM DOCKED STATE
	_______________________________________________


Detailed state:  trans 29.019 8.203 118.551 quatxyzw -0.693572 -0.494016 0.372750 0.368733 center 0.300 0.400 0.510 ntor 9 179.4127 -21.0125 -174.8119 -77.0647 -21.6036 138.5175 176.1654 -58.3354 -46.2722
State:	 29.019   8.203 118.551  -0.746 -0.531  0.401 136.725    179.41  -21.01 -174.81  -77.06  -21.60  138.52  176.17  -58.34  -46.27

DOCKED: MODEL       20
DOCKED: USER    Run = 20
DOCKED: USER    DPF = ligand_dock.biased.dpf
DOCKED: USER  
DOCKED: USER    Estimated Free Energy of Binding    =   -9.42 kcal/mol  [=(1)+(2)+(3)-(4)]
DOCKED: USER    Estimated Inhibition Constant, Ki   =  123.80 nM (nanomolar)  [Temperature = 298.15 K]
DOCKED: USER    
DOCKED: USER    (1) Final Intermolecular Energy     =  -12.11 kcal/mol
DOCKED: USER        vdW + Hbond + desolv Energy     =  -12.11 kcal/mol
DOCKED: USER        Electrostatic Energy            =   +0.00 kcal/mol
DOCKED: USER    (2) Final Total Internal Energy     =   -1.42 kcal/mol
DOCKED: USER    (3) Torsional Free Energy           =   +2.68 kcal/mol
DOCKED: USER    (4) Unbound System's Energy  [=(2)] =   -1.42 kcal/mol
DOCKED: USER    
DOCKED: USER    
DOCKED: USER    NEWDPF move ligand.pdbqt
DOCKED: USER    NEWDPF about 0.300000 0.400000 0.510000
DOCKED: USER    NEWDPF tran0 29.018534 8.203341 118.550609
DOCKED: USER    NEWDPF quaternion0 -0.693572 -0.494016 0.372750 0.368733
DOCKED: USER    NEWDPF axisangle0 -0.746149 -0.531465 0.401007 136.725009
DOCKED: USER    NEWDPF quat0 -0.746149 -0.531465 0.401007 136.725009
DOCKED: USER    NEWDPF dihe0 179.41 -21.01 -174.81 -77.06 -21.60 138.52 176.17 -58.34 -46.27 
DOCKED: USER  keepresnum = 1 
DOCKED: USER  
DOCKED: REMARK  Name = 
DOCKED: REMARK  9 active torsions:
DOCKED: REMARK  status: ('A' for Active; 'I' for Inactive)
DOCKED: REMARK    1  A    between atoms: O_1  and  N_2
DOCKED: REMARK    2  A    between atoms: C_3  and  C_4
DOCKED: REMARK    3  A    between atoms: C_4  and  C_5
DOCKED: REMARK    4  A    between atoms: C_5  and  C_6
DOCKED: REMARK    5  A    between atoms: C_6  and  C_7
DOCKED: REMARK    6  A    between atoms: C_7  and  C_8
DOCKED: REMARK    7  A    between atoms: C_8  and  C_9
DOCKED: REMARK    8  A    between atoms: C_9  and  C_10
DOCKED: REMARK    9  A    between atoms: N_11  and  O_12
DOCKED: REMARK                            x       y       z     vdW  Elec       q    Type
DOCKED: REMARK                         _______ _______ _______ _____ _____    ______ ____
DOCKED: USER                              x       y       z     vdW  Elec       q    Type
DOCKED: USER                           _______ _______ _______ _____ _____    ______ ____
DOCKED: ROOT
DOCKED: ATOM      1  C   UNL     1      28.512   9.653 119.314 -0.67 +0.00    +0.000 C 
DOCKED: ENDROOT
DOCKED: BRANCH   1   2
DOCKED: ATOM      2  C   UNL     1      28.160   9.405 117.843 -0.68 +0.00    +0.000 C 
DOCKED: BRANCH   2   3
DOCKED: ATOM      3  C   UNL     1      26.742   8.844 117.704 -0.65 -0.00    +0.000 C 
DOCKED: BRANCH   3   5
DOCKED: ATOM      4  N   UNL     1      26.192   8.047 115.355 -0.78 -0.00    +0.000 N 
DOCKED: ATOM      5  C   UNL     1      26.208   9.097 116.327 -0.87 +0.00    +0.000 C 
DOCKED: ATOM      6  O   UNL     1      25.736  10.229 116.038 -0.85 +0.00    +0.000 OA
DOCKED: ATOM      7  H   UNL     1      26.554   7.162 115.589 -0.44 -0.00    +0.000 HD
DOCKED: BRANCH   4   8
DOCKED: ATOM      8  O   UNL     1      25.686   8.261 114.118 -1.09 -0.00    +0.000 OA
DOCKED: ATOM      9  H   UNL     1      25.366   9.174 114.054 -0.09 -0.00    +0.000 HD
DOCKED: ENDBRANCH   4   8
DOCKED: ENDBRANCH   3   5
DOCKED: ENDBRANCH   2   3
DOCKED: ENDBRANCH   1   2
DOCKED: BRANCH   1  10
DOCKED: ATOM     10  C   UNL     1      27.312   9.358 120.226 -0.73 +0.00    +0.000 C 
DOCKED: BRANCH  10  11
DOCKED: ATOM     11  C   UNL     1      27.690   8.466 121.427 -0.26 -0.00    +0.000 C 
DOCKED: BRANCH  11  12
DOCKED: ATOM     12  C   UNL     1      26.511   7.648 121.977 -0.41 -0.00    +0.000 C 
DOCKED: BRANCH  12  13
DOCKED: ATOM     13  C   UNL     1      26.676   7.317 123.430 -0.86 -0.00    +0.000 C 
DOCKED: ATOM     14  N   UNL     1      25.701   6.519 124.107 -0.87 -0.00    +0.000 N 
DOCKED: ATOM     15  O   UNL     1      27.697   7.721 124.050 -1.18 -0.00    +0.000 OA
DOCKED: ATOM     16  H   UNL     1      24.907   6.202 123.620 -0.03 -0.00    +0.000 HD
DOCKED: BRANCH  14  17
DOCKED: ATOM     17  O   UNL     1      25.861   6.195 125.412 -1.14 -0.00    +0.000 OA
DOCKED: ATOM     18  H   UNL     1      26.797   6.279 125.654 -0.50 -0.00    +0.000 HD
DOCKED: ENDBRANCH  14  17
DOCKED: ENDBRANCH  12  13
DOCKED: ENDBRANCH  11  12
DOCKED: ENDBRANCH  10  11
DOCKED: ENDBRANCH   1  10
DOCKED: TORSDOF 9
DOCKED: TER
DOCKED: ENDMDL
________________________________________________________________________________


	BEGINNING GENETIC ALGORITHM DOCKING 21 of 100
Run: 21 Seed: 256976519 991913613 [ Run 21 of 100 GA/GALS ]
Beginning LAMARCKIAN GENETIC ALGORITHM (LGA), with a maximum of 2500000 energy evaluations.

Final-Value: -13.266


	FINAL GENETIC ALGORITHM DOCKED STATE
	_______________________________________________


Detailed state:  trans 37.145 11.770 123.965 quatxyzw -0.336477 0.073191 0.716079 0.607171 center 0.300 0.400 0.510 ntor 9 -149.4142 -3.6536 -68.1076 20.6606 54.3671 171.7746 33.6044 153.9711 -7.7576
State:	 37.145  11.770 123.965  -0.423  0.092  0.901 105.230   -149.41   -3.65  -68.11   20.66   54.37  171.77   33.60  153.97   -7.76

DOCKED: MODEL       21
DOCKED: USER    Run = 21
DOCKED: USER    DPF = ligand_dock.biased.dpf
DOCKED: USER  
DOCKED: USER    Estimated Free Energy of Binding    =   -9.21 kcal/mol  [=(1)+(2)+(3)-(4)]
DOCKED: USER    Estimated Inhibition Constant, Ki   =  178.28 nM (nanomolar)  [Temperature = 298.15 K]
DOCKED: USER    
DOCKED: USER    (1) Final Intermolecular Energy     =  -11.89 kcal/mol
DOCKED: USER        vdW + Hbond + desolv Energy     =  -11.89 kcal/mol
DOCKED: USER        Electrostatic Energy            =   +0.00 kcal/mol
DOCKED: USER    (2) Final Total Internal Energy     =   -1.37 kcal/mol
DOCKED: USER    (3) Torsional Free Energy           =   +2.68 kcal/mol
DOCKED: USER    (4) Unbound System's Energy  [=(2)] =   -1.37 kcal/mol
DOCKED: USER    
DOCKED: USER    
DOCKED: USER    NEWDPF move ligand.pdbqt
DOCKED: USER    NEWDPF about 0.300000 0.400000 0.510000
DOCKED: USER    NEWDPF tran0 37.144831 11.770329 123.965155
DOCKED: USER    NEWDPF quaternion0 -0.336477 0.073191 0.716079 0.607171
DOCKED: USER    NEWDPF axisangle0 -0.423470 0.092114 0.901215 105.229565
DOCKED: USER    NEWDPF quat0 -0.423470 0.092114 0.901215 105.229565
DOCKED: USER    NEWDPF dihe0 -149.41 -3.65 -68.11 20.66 54.37 171.77 33.60 153.97 -7.76 
DOCKED: USER  keepresnum = 1 
DOCKED: USER  
DOCKED: REMARK  Name = 
DOCKED: REMARK  9 active torsions:
DOCKED: REMARK  status: ('A' for Active; 'I' for Inactive)
DOCKED: REMARK    1  A    between atoms: O_1  and  N_2
DOCKED: REMARK    2  A    between atoms: C_3  and  C_4
DOCKED: REMARK    3  A    between atoms: C_4  and  C_5
DOCKED: REMARK    4  A    between atoms: C_5  and  C_6
DOCKED: REMARK    5  A    between atoms: C_6  and  C_7
DOCKED: REMARK    6  A    between atoms: C_7  and  C_8
DOCKED: REMARK    7  A    between atoms: C_8  and  C_9
DOCKED: REMARK    8  A    between atoms: C_9  and  C_10
DOCKED: REMARK    9  A    between atoms: N_11  and  O_12
DOCKED: REMARK                            x       y       z     vdW  Elec       q    Type
DOCKED: REMARK                         _______ _______ _______ _____ _____    ______ ____
DOCKED: USER                              x       y       z     vdW  Elec       q    Type
DOCKED: USER                           _______ _______ _______ _____ _____    ______ ____
DOCKED: ROOT
DOCKED: ATOM      1  C   UNL     1      37.437  12.602 122.494 -0.55 -0.00    +0.000 C 
DOCKED: ENDROOT
DOCKED: BRANCH   1   2
DOCKED: ATOM      2  C   UNL     1      36.462  11.419 122.519 -0.66 -0.00    +0.000 C 
DOCKED: BRANCH   2   3
DOCKED: ATOM      3  C   UNL     1      37.046  10.242 123.304 -0.50 -0.00    +0.000 C 
DOCKED: BRANCH   3   5
DOCKED: ATOM      4  N   UNL     1      36.933   7.712 123.099 -0.76 -0.00    +0.000 N 
DOCKED: ATOM      5  C   UNL     1      37.029   8.995 122.473 -0.68 -0.00    +0.000 C 
DOCKED: ATOM      6  O   UNL     1      37.058   9.080 121.216 -2.71 -0.00    +0.000 OA
DOCKED: ATOM      7  H   UNL     1      36.900   7.650 124.081 -0.28 -0.00    +0.000 HD
DOCKED: BRANCH   4   8
DOCKED: ATOM      8  O   UNL     1      36.887   6.583 122.353 -1.19 -0.00    +0.000 OA
DOCKED: ATOM      9  H   UNL     1      37.387   6.718 121.533 -0.42 -0.00    +0.000 HD
DOCKED: ENDBRANCH   4   8
DOCKED: ENDBRANCH   3   5
DOCKED: ENDBRANCH   2   3
DOCKED: ENDBRANCH   1   2
DOCKED: BRANCH   1  10
DOCKED: ATOM     10  C   UNL     1      36.682  13.939 122.505 -0.45 -0.00    +0.000 C 
DOCKED: BRANCH  10  11
DOCKED: ATOM     11  C   UNL     1      37.621  15.144 122.726 -0.39 -0.00    +0.000 C 
DOCKED: BRANCH  11  12
DOCKED: ATOM     12  C   UNL     1      38.729  15.259 121.667 -0.32 -0.00    +0.000 C 
DOCKED: BRANCH  12  13
DOCKED: ATOM     13  C   UNL     1      40.101  15.185 122.268 -0.42 -0.00    +0.000 C 
DOCKED: ATOM     14  N   UNL     1      40.683  16.334 122.888 -0.32 -0.00    +0.000 N 
DOCKED: ATOM     15  O   UNL     1      40.731  14.093 122.250 -1.06 +0.00    +0.000 OA
DOCKED: ATOM     16  H   UNL     1      40.187  17.184 122.904 -0.00 -0.00    +0.000 HD
DOCKED: BRANCH  14  17
DOCKED: ATOM     17  O   UNL     1      41.910  16.263 123.457 -1.10 +0.00    +0.000 OA
DOCKED: ATOM     18  H   UNL     1      42.236  15.351 123.409 -0.06 +0.00    +0.000 HD
DOCKED: ENDBRANCH  14  17
DOCKED: ENDBRANCH  12  13
DOCKED: ENDBRANCH  11  12
DOCKED: ENDBRANCH  10  11
DOCKED: ENDBRANCH   1  10
DOCKED: TORSDOF 9
DOCKED: TER
DOCKED: ENDMDL
________________________________________________________________________________


	BEGINNING GENETIC ALGORITHM DOCKING 22 of 100
Run: 22 Seed: 926241243 296030200 [ Run 22 of 100 GA/GALS ]
Beginning LAMARCKIAN GENETIC ALGORITHM (LGA), with a maximum of 2500000 energy evaluations.

Final-Value: -13.554


	FINAL GENETIC ALGORITHM DOCKED STATE
	_______________________________________________


Detailed state:  trans 37.840 11.522 122.377 quatxyzw 0.197606 -0.527669 0.762323 0.318403 center 0.300 0.400 0.510 ntor 9 -180.0000 5.6036 147.6285 148.2608 -58.0866 -178.1878 -2.4408 48.5593 -7.4200
State:	 37.840  11.522 122.377   0.208 -0.557  0.804 142.867   -180.00    5.60  147.63  148.26  -58.09 -178.19   -2.44   48.56   -7.42

DOCKED: MODEL       22
DOCKED: USER    Run = 22
DOCKED: USER    DPF = ligand_dock.biased.dpf
DOCKED: USER  
DOCKED: USER    Estimated Free Energy of Binding    =   -9.32 kcal/mol  [=(1)+(2)+(3)-(4)]
DOCKED: USER    Estimated Inhibition Constant, Ki   =  147.82 nM (nanomolar)  [Temperature = 298.15 K]
DOCKED: USER    
DOCKED: USER    (1) Final Intermolecular Energy     =  -12.00 kcal/mol
DOCKED: USER        vdW + Hbond + desolv Energy     =  -12.00 kcal/mol
DOCKED: USER        Electrostatic Energy            =   +0.00 kcal/mol
DOCKED: USER    (2) Final Total Internal Energy     =   -1.55 kcal/mol
DOCKED: USER    (3) Torsional Free Energy           =   +2.68 kcal/mol
DOCKED: USER    (4) Unbound System's Energy  [=(2)] =   -1.55 kcal/mol
DOCKED: USER    
DOCKED: USER    
DOCKED: USER    NEWDPF move ligand.pdbqt
DOCKED: USER    NEWDPF about 0.300000 0.400000 0.510000
DOCKED: USER    NEWDPF tran0 37.840466 11.521654 122.376903
DOCKED: USER    NEWDPF quaternion0 0.197606 -0.527669 0.762323 0.318403
DOCKED: USER    NEWDPF axisangle0 0.208455 -0.556639 0.804176 142.867262
DOCKED: USER    NEWDPF quat0 0.208455 -0.556639 0.804176 142.867262
DOCKED: USER    NEWDPF dihe0 -180.00 5.60 147.63 148.26 -58.09 -178.19 -2.44 48.56 -7.42 
DOCKED: USER  keepresnum = 1 
DOCKED: USER  
DOCKED: REMARK  Name = 
DOCKED: REMARK  9 active torsions:
DOCKED: REMARK  status: ('A' for Active; 'I' for Inactive)
DOCKED: REMARK    1  A    between atoms: O_1  and  N_2
DOCKED: REMARK    2  A    between atoms: C_3  and  C_4
DOCKED: REMARK    3  A    between atoms: C_4  and  C_5
DOCKED: REMARK    4  A    between atoms: C_5  and  C_6
DOCKED: REMARK    5  A    between atoms: C_6  and  C_7
DOCKED: REMARK    6  A    between atoms: C_7  and  C_8
DOCKED: REMARK    7  A    between atoms: C_8  and  C_9
DOCKED: REMARK    8  A    between atoms: C_9  and  C_10
DOCKED: REMARK    9  A    between atoms: N_11  and  O_12
DOCKED: REMARK                            x       y       z     vdW  Elec       q    Type
DOCKED: REMARK                         _______ _______ _______ _____ _____    ______ ____
DOCKED: USER                              x       y       z     vdW  Elec       q    Type
DOCKED: USER                           _______ _______ _______ _____ _____    ______ ____
DOCKED: ROOT
DOCKED: ATOM      1  C   UNL     1      36.798  12.878 122.495 -0.57 -0.00    +0.000 C 
DOCKED: ENDROOT
DOCKED: BRANCH   1   2
DOCKED: ATOM      2  C   UNL     1      36.459  11.590 123.253 -0.70 -0.00    +0.000 C 
DOCKED: BRANCH   2   3
DOCKED: ATOM      3  C   UNL     1      35.783  10.572 122.331 -0.65 -0.00    +0.000 C 
DOCKED: BRANCH   3   5
DOCKED: ATOM      4  N   UNL     1      36.729   8.504 123.465 -0.64 -0.00    +0.000 N 
DOCKED: ATOM      5  C   UNL     1      36.572   9.298 122.285 -0.72 -0.00    +0.000 C 
DOCKED: ATOM      6  O   UNL     1      37.065   8.907 121.194 -2.70 -0.00    +0.000 OA
DOCKED: ATOM      7  H   UNL     1      36.334   8.810 124.313 -0.28 -0.00    +0.000 HD
DOCKED: BRANCH   4   8
DOCKED: ATOM      8  O   UNL     1      37.416   7.339 123.424 -1.98 -0.00    +0.000 OA
DOCKED: ATOM      9  H   UNL     1      37.738   7.185 122.523 -0.31 -0.00    +0.000 HD
DOCKED: ENDBRANCH   4   8
DOCKED: ENDBRANCH   3   5
DOCKED: ENDBRANCH   2   3
DOCKED: ENDBRANCH   1   2
DOCKED: BRANCH   1  10
DOCKED: ATOM     10  C   UNL     1      37.423  13.922 123.434 -0.48 -0.00    +0.000 C 
DOCKED: BRANCH  10  11
DOCKED: ATOM     11  C   UNL     1      37.992  15.135 122.670 -0.39 -0.00    +0.000 C 
DOCKED: BRANCH  11  12
DOCKED: ATOM     12  C   UNL     1      38.855  14.747 121.459 -0.36 -0.00    +0.000 C 
DOCKED: BRANCH  12  13
DOCKED: ATOM     13  C   UNL     1      40.309  15.043 121.678 -0.36 -0.00    +0.000 C 
DOCKED: ATOM     14  N   UNL     1      40.954  14.649 122.893 -0.52 -0.00    +0.000 N 
DOCKED: ATOM     15  O   UNL     1      40.972  15.617 120.772 -0.26 -0.00    +0.000 OA
DOCKED: ATOM     16  H   UNL     1      40.434  14.198 123.597 -0.03 -0.00    +0.000 HD
DOCKED: BRANCH  14  17
DOCKED: ATOM     17  O   UNL     1      42.273  14.890 123.082 -1.03 +0.00    +0.000 OA
DOCKED: ATOM     18  H   UNL     1      42.616  15.414 122.342 -0.03 -0.00    +0.000 HD
DOCKED: ENDBRANCH  14  17
DOCKED: ENDBRANCH  12  13
DOCKED: ENDBRANCH  11  12
DOCKED: ENDBRANCH  10  11
DOCKED: ENDBRANCH   1  10
DOCKED: TORSDOF 9
DOCKED: TER
DOCKED: ENDMDL
________________________________________________________________________________


	BEGINNING GENETIC ALGORITHM DOCKING 23 of 100
Run: 23 Seed: 1233756843 108509490 [ Run 23 of 100 GA/GALS ]
Beginning LAMARCKIAN GENETIC ALGORITHM (LGA), with a maximum of 2500000 energy evaluations.

Final-Value: -13.552


	FINAL GENETIC ALGORITHM DOCKED STATE
	_______________________________________________


Detailed state:  trans 37.094 15.519 124.162 quatxyzw 0.384774 0.734512 0.555009 0.066379 center 0.300 0.400 0.510 ntor 9 179.1393 7.0998 135.7175 129.6456 -51.2726 119.1759 -66.7356 -113.3944 16.3948
State:	 37.094  15.519 124.162   0.386  0.736  0.556 172.388    179.14    7.10  135.72  129.65  -51.27  119.18  -66.74 -113.39   16.39

DOCKED: MODEL       23
DOCKED: USER    Run = 23
DOCKED: USER    DPF = ligand_dock.biased.dpf
DOCKED: USER  
DOCKED: USER    Estimated Free Energy of Binding    =   -9.44 kcal/mol  [=(1)+(2)+(3)-(4)]
DOCKED: USER    Estimated Inhibition Constant, Ki   =  120.79 nM (nanomolar)  [Temperature = 298.15 K]
DOCKED: USER    
DOCKED: USER    (1) Final Intermolecular Energy     =  -12.12 kcal/mol
DOCKED: USER        vdW + Hbond + desolv Energy     =  -12.12 kcal/mol
DOCKED: USER        Electrostatic Energy            =   +0.00 kcal/mol
DOCKED: USER    (2) Final Total Internal Energy     =   -1.43 kcal/mol
DOCKED: USER    (3) Torsional Free Energy           =   +2.68 kcal/mol
DOCKED: USER    (4) Unbound System's Energy  [=(2)] =   -1.43 kcal/mol
DOCKED: USER    
DOCKED: USER    
DOCKED: USER    NEWDPF move ligand.pdbqt
DOCKED: USER    NEWDPF about 0.300000 0.400000 0.510000
DOCKED: USER    NEWDPF tran0 37.093669 15.519025 124.162243
DOCKED: USER    NEWDPF quaternion0 0.384774 0.734512 0.555009 0.066379
DOCKED: USER    NEWDPF axisangle0 0.385624 0.736136 0.556236 172.387981
DOCKED: USER    NEWDPF quat0 0.385624 0.736136 0.556236 172.387981
DOCKED: USER    NEWDPF dihe0 179.14 7.10 135.72 129.65 -51.27 119.18 -66.74 -113.39 16.39 
DOCKED: USER  keepresnum = 1 
DOCKED: USER  
DOCKED: REMARK  Name = 
DOCKED: REMARK  9 active torsions:
DOCKED: REMARK  status: ('A' for Active; 'I' for Inactive)
DOCKED: REMARK    1  A    between atoms: O_1  and  N_2
DOCKED: REMARK    2  A    between atoms: C_3  and  C_4
DOCKED: REMARK    3  A    between atoms: C_4  and  C_5
DOCKED: REMARK    4  A    between atoms: C_5  and  C_6
DOCKED: REMARK    5  A    between atoms: C_6  and  C_7
DOCKED: REMARK    6  A    between atoms: C_7  and  C_8
DOCKED: REMARK    7  A    between atoms: C_8  and  C_9
DOCKED: REMARK    8  A    between atoms: C_9  and  C_10
DOCKED: REMARK    9  A    between atoms: N_11  and  O_12
DOCKED: REMARK                            x       y       z     vdW  Elec       q    Type
DOCKED: REMARK                         _______ _______ _______ _____ _____    ______ ____
DOCKED: USER                              x       y       z     vdW  Elec       q    Type
DOCKED: USER                           _______ _______ _______ _____ _____    ______ ____
DOCKED: ROOT
DOCKED: ATOM      1  C   UNL     1      36.258  14.023 124.084 -0.41 -0.00    +0.000 C 
DOCKED: ENDROOT
DOCKED: BRANCH   1   2
DOCKED: ATOM      2  C   UNL     1      35.481  15.337 123.943 -0.52 -0.00    +0.000 C 
DOCKED: BRANCH   2   3
DOCKED: ATOM      3  C   UNL     1      34.087  15.220 124.565 -0.46 -0.00    +0.000 C 
DOCKED: BRANCH   3   5
DOCKED: ATOM      4  N   UNL     1      34.047  17.701 125.110 -0.39 -0.00    +0.000 N 
DOCKED: ATOM      5  C   UNL     1      33.844  16.347 125.523 -0.38 -0.00    +0.000 C 
DOCKED: ATOM      6  O   UNL     1      33.420  16.100 126.684 -1.10 -0.00    +0.000 OA
DOCKED: ATOM      7  H   UNL     1      34.369  17.890 124.199 -0.01 -0.00    +0.000 HD
DOCKED: BRANCH   4   8
DOCKED: ATOM      8  O   UNL     1      33.801  18.725 125.961 -0.33 -0.00    +0.000 OA
DOCKED: ATOM      9  H   UNL     1      33.481  18.373 126.806 -0.00 -0.00    +0.000 HD
DOCKED: ENDBRANCH   4   8
DOCKED: ENDBRANCH   3   5
DOCKED: ENDBRANCH   2   3
DOCKED: ENDBRANCH   1   2
DOCKED: BRANCH   1  10
DOCKED: ATOM     10  C   UNL     1      36.500  13.375 122.712 -0.52 -0.00    +0.000 C 
DOCKED: BRANCH  10  11
DOCKED: ATOM     11  C   UNL     1      36.958  11.906 122.827 -0.64 -0.00    +0.000 C 
DOCKED: BRANCH  11  12
DOCKED: ATOM     12  C   UNL     1      36.544  11.041 121.626 -0.47 -0.00    +0.000 C 
DOCKED: BRANCH  12  13
DOCKED: ATOM     13  C   UNL     1      36.843   9.587 121.842 -0.61 -0.00    +0.000 C 
DOCKED: ATOM     14  N   UNL     1      36.849   9.037 123.162 -0.65 -0.00    +0.000 N 
DOCKED: ATOM     15  O   UNL     1      37.061   8.841 120.849 -2.72 -0.00    +0.000 OA
DOCKED: ATOM     16  H   UNL     1      36.675   9.622 123.935 -0.44 -0.00    +0.000 HD
DOCKED: BRANCH  14  17
DOCKED: ATOM     17  O   UNL     1      37.091   7.719 123.359 -2.30 -0.00    +0.000 OA
DOCKED: ATOM     18  H   UNL     1      37.352   7.310 122.519 -0.16 -0.00    +0.000 HD
DOCKED: ENDBRANCH  14  17
DOCKED: ENDBRANCH  12  13
DOCKED: ENDBRANCH  11  12
DOCKED: ENDBRANCH  10  11
DOCKED: ENDBRANCH   1  10
DOCKED: TORSDOF 9
DOCKED: TER
DOCKED: ENDMDL
________________________________________________________________________________


	BEGINNING GENETIC ALGORITHM DOCKING 24 of 100
Run: 24 Seed: 390292375 1040924767 [ Run 24 of 100 GA/GALS ]
Beginning LAMARCKIAN GENETIC ALGORITHM (LGA), with a maximum of 2500000 energy evaluations.

Final-Value: -14.025


	FINAL GENETIC ALGORITHM DOCKED STATE
	_______________________________________________


Detailed state:  trans 38.280 12.924 123.814 quatxyzw 0.094362 0.276914 -0.504742 -0.812188 center 0.300 0.400 0.510 ntor 9 -179.6735 9.3562 160.2395 45.7573 -17.0199 51.2977 -110.2693 -132.7550 -30.8755
State:	 38.280  12.924 123.814   0.162  0.475 -0.865 -71.379   -179.67    9.36  160.24   45.76  -17.02   51.30 -110.27 -132.75  -30.88

DOCKED: MODEL       24
DOCKED: USER    Run = 24
DOCKED: USER    DPF = ligand_dock.biased.dpf
DOCKED: USER  
DOCKED: USER    Estimated Free Energy of Binding    =   -9.90 kcal/mol  [=(1)+(2)+(3)-(4)]
DOCKED: USER    Estimated Inhibition Constant, Ki   =   55.78 nM (nanomolar)  [Temperature = 298.15 K]
DOCKED: USER    
DOCKED: USER    (1) Final Intermolecular Energy     =  -12.58 kcal/mol
DOCKED: USER        vdW + Hbond + desolv Energy     =  -12.58 kcal/mol
DOCKED: USER        Electrostatic Energy            =   +0.00 kcal/mol
DOCKED: USER    (2) Final Total Internal Energy     =   -1.44 kcal/mol
DOCKED: USER    (3) Torsional Free Energy           =   +2.68 kcal/mol
DOCKED: USER    (4) Unbound System's Energy  [=(2)] =   -1.44 kcal/mol
DOCKED: USER    
DOCKED: USER    
DOCKED: USER    NEWDPF move ligand.pdbqt
DOCKED: USER    NEWDPF about 0.300000 0.400000 0.510000
DOCKED: USER    NEWDPF tran0 38.279690 12.923890 123.814143
DOCKED: USER    NEWDPF quaternion0 0.094362 0.276914 -0.504742 -0.812188
DOCKED: USER    NEWDPF axisangle0 0.161746 0.474659 -0.865180 -71.379389
DOCKED: USER    NEWDPF quat0 0.161746 0.474659 -0.865180 -71.379389
DOCKED: USER    NEWDPF dihe0 -179.67 9.36 160.24 45.76 -17.02 51.30 -110.27 -132.75 -30.88 
DOCKED: USER  keepresnum = 1 
DOCKED: USER  
DOCKED: REMARK  Name = 
DOCKED: REMARK  9 active torsions:
DOCKED: REMARK  status: ('A' for Active; 'I' for Inactive)
DOCKED: REMARK    1  A    between atoms: O_1  and  N_2
DOCKED: REMARK    2  A    between atoms: C_3  and  C_4
DOCKED: REMARK    3  A    between atoms: C_4  and  C_5
DOCKED: REMARK    4  A    between atoms: C_5  and  C_6
DOCKED: REMARK    5  A    between atoms: C_6  and  C_7
DOCKED: REMARK    6  A    between atoms: C_7  and  C_8
DOCKED: REMARK    7  A    between atoms: C_8  and  C_9
DOCKED: REMARK    8  A    between atoms: C_9  and  C_10
DOCKED: REMARK    9  A    between atoms: N_11  and  O_12
DOCKED: REMARK                            x       y       z     vdW  Elec       q    Type
DOCKED: REMARK                         _______ _______ _______ _____ _____    ______ ____
DOCKED: USER                              x       y       z     vdW  Elec       q    Type
DOCKED: USER                           _______ _______ _______ _____ _____    ______ ____
DOCKED: ROOT
DOCKED: ATOM      1  C   UNL     1      37.035  13.399 122.734 -0.55 -0.00    +0.000 C 
DOCKED: ENDROOT
DOCKED: BRANCH   1   2
DOCKED: ATOM      2  C   UNL     1      37.314  11.910 122.965 -0.53 -0.00    +0.000 C 
DOCKED: BRANCH   2   3
DOCKED: ATOM      3  C   UNL     1      36.232  11.041 122.319 -0.66 -0.00    +0.000 C 
DOCKED: BRANCH   3   5
DOCKED: ATOM      4  N   UNL     1      36.746   8.759 123.310 -0.64 -0.00    +0.000 N 
DOCKED: ATOM      5  C   UNL     1      36.710   9.627 122.174 -0.69 -0.00    +0.000 C 
DOCKED: ATOM      6  O   UNL     1      37.041   9.193 121.039 -2.73 -0.00    +0.000 OA
DOCKED: ATOM      7  H   UNL     1      36.477   9.100 124.194 -0.39 -0.00    +0.000 HD
DOCKED: BRANCH   4   8
DOCKED: ATOM      8  O   UNL     1      37.149   7.473 123.181 -2.17 -0.00    +0.000 OA
DOCKED: ATOM      9  H   UNL     1      37.384   7.299 122.256 -0.14 -0.00    +0.000 HD
DOCKED: ENDBRANCH   4   8
DOCKED: ENDBRANCH   3   5
DOCKED: ENDBRANCH   2   3
DOCKED: ENDBRANCH   1   2
DOCKED: BRANCH   1  10
DOCKED: ATOM     10  C   UNL     1      35.810  13.861 123.539 -0.54 -0.00    +0.000 C 
DOCKED: BRANCH  10  11
DOCKED: ATOM     11  C   UNL     1      35.935  15.324 124.013 -0.46 -0.00    +0.000 C 
DOCKED: BRANCH  11  12
DOCKED: ATOM     12  C   UNL     1      34.686  16.170 123.722 -0.52 -0.00    +0.000 C 
DOCKED: BRANCH  12  13
DOCKED: ATOM     13  C   UNL     1      34.065  16.719 124.973 -0.48 -0.00    +0.000 C 
DOCKED: ATOM     14  N   UNL     1      33.691  15.843 126.040 -0.43 -0.00    +0.000 N 
DOCKED: ATOM     15  O   UNL     1      33.901  17.963 125.094 -0.42 -0.00    +0.000 OA
DOCKED: ATOM     16  H   UNL     1      33.823  14.873 125.944 -0.04 -0.00    +0.000 HD
DOCKED: BRANCH  14  17
DOCKED: ATOM     17  O   UNL     1      33.156  16.338 127.182 -1.14 -0.00    +0.000 OA
DOCKED: ATOM     18  H   UNL     1      32.955  17.280 127.063 -0.04 -0.00    +0.000 HD
DOCKED: ENDBRANCH  14  17
DOCKED: ENDBRANCH  12  13
DOCKED: ENDBRANCH  11  12
DOCKED: ENDBRANCH  10  11
DOCKED: ENDBRANCH   1  10
DOCKED: TORSDOF 9
DOCKED: TER
DOCKED: ENDMDL
________________________________________________________________________________


	BEGINNING GENETIC ALGORITHM DOCKING 25 of 100
Run: 25 Seed: 2070550091 918717622 [ Run 25 of 100 GA/GALS ]
Beginning LAMARCKIAN GENETIC ALGORITHM (LGA), with a maximum of 2500000 energy evaluations.

Final-Value: -14.487


	FINAL GENETIC ALGORITHM DOCKED STATE
	_______________________________________________


Detailed state:  trans 36.837 14.550 121.883 quatxyzw -0.760067 -0.315855 0.166186 -0.543062 center 0.300 0.400 0.510 ntor 9 -180.0000 -0.6321 -3.6861 81.3148 116.6006 63.6733 20.0952 92.1650 -21.9115
State:	 36.837  14.550 121.883  -0.905 -0.376  0.198 -114.215   -180.00   -0.63   -3.69   81.31  116.60   63.67   20.10   92.16  -21.91

DOCKED: MODEL       25
DOCKED: USER    Run = 25
DOCKED: USER    DPF = ligand_dock.biased.dpf
DOCKED: USER  
DOCKED: USER    Estimated Free Energy of Binding    =  -10.15 kcal/mol  [=(1)+(2)+(3)-(4)]
DOCKED: USER    Estimated Inhibition Constant, Ki   =   36.46 nM (nanomolar)  [Temperature = 298.15 K]
DOCKED: USER    
DOCKED: USER    (1) Final Intermolecular Energy     =  -12.83 kcal/mol
DOCKED: USER        vdW + Hbond + desolv Energy     =  -12.83 kcal/mol
DOCKED: USER        Electrostatic Energy            =   +0.00 kcal/mol
DOCKED: USER    (2) Final Total Internal Energy     =   -1.65 kcal/mol
DOCKED: USER    (3) Torsional Free Energy           =   +2.68 kcal/mol
DOCKED: USER    (4) Unbound System's Energy  [=(2)] =   -1.65 kcal/mol
DOCKED: USER    
DOCKED: USER    
DOCKED: USER    NEWDPF move ligand.pdbqt
DOCKED: USER    NEWDPF about 0.300000 0.400000 0.510000
DOCKED: USER    NEWDPF tran0 36.837352 14.549537 121.883429
DOCKED: USER    NEWDPF quaternion0 -0.760067 -0.315855 0.166186 -0.543062
DOCKED: USER    NEWDPF axisangle0 -0.905173 -0.376155 0.197912 -114.215311
DOCKED: USER    NEWDPF quat0 -0.905173 -0.376155 0.197912 -114.215311
DOCKED: USER    NEWDPF dihe0 -180.00 -0.63 -3.69 81.31 116.60 63.67 20.10 92.16 -21.91 
DOCKED: USER  keepresnum = 1 
DOCKED: USER  
DOCKED: REMARK  Name = 
DOCKED: REMARK  9 active torsions:
DOCKED: REMARK  status: ('A' for Active; 'I' for Inactive)
DOCKED: REMARK    1  A    between atoms: O_1  and  N_2
DOCKED: REMARK    2  A    between atoms: C_3  and  C_4
DOCKED: REMARK    3  A    between atoms: C_4  and  C_5
DOCKED: REMARK    4  A    between atoms: C_5  and  C_6
DOCKED: REMARK    5  A    between atoms: C_6  and  C_7
DOCKED: REMARK    6  A    between atoms: C_7  and  C_8
DOCKED: REMARK    7  A    between atoms: C_8  and  C_9
DOCKED: REMARK    8  A    between atoms: C_9  and  C_10
DOCKED: REMARK    9  A    between atoms: N_11  and  O_12
DOCKED: REMARK                            x       y       z     vdW  Elec       q    Type
DOCKED: REMARK                         _______ _______ _______ _____ _____    ______ ____
DOCKED: USER                              x       y       z     vdW  Elec       q    Type
DOCKED: USER                           _______ _______ _______ _____ _____    ______ ____
DOCKED: ROOT
DOCKED: ATOM      1  C   UNL     1      37.393  13.462 123.088 -0.56 -0.00    +0.000 C 
DOCKED: ENDROOT
DOCKED: BRANCH   1   2
DOCKED: ATOM      2  C   UNL     1      37.518  14.973 123.311 -0.39 -0.00    +0.000 C 
DOCKED: BRANCH   2   3
DOCKED: ATOM      3  C   UNL     1      38.358  15.624 122.210 -0.31 -0.00    +0.000 C 
DOCKED: BRANCH   3   5
DOCKED: ATOM      4  N   UNL     1      40.740  15.731 123.086 -0.37 -0.00    +0.000 N 
DOCKED: ATOM      5  C   UNL     1      39.765  15.107 122.246 -0.41 -0.00    +0.000 C 
DOCKED: ATOM      6  O   UNL     1      40.076  14.095 121.564 -0.94 -0.00    +0.000 OA
DOCKED: ATOM      7  H   UNL     1      40.489  16.516 123.624 -0.02 -0.00    +0.000 HD
DOCKED: BRANCH   4   8
DOCKED: ATOM      8  O   UNL     1      42.005  15.251 123.146 -1.09 +0.00    +0.000 OA
DOCKED: ATOM      9  H   UNL     1      42.087  14.483 122.560 -0.06 -0.00    +0.000 HD
DOCKED: ENDBRANCH   4   8
DOCKED: ENDBRANCH   3   5
DOCKED: ENDBRANCH   2   3
DOCKED: ENDBRANCH   1   2
DOCKED: BRANCH   1  10
DOCKED: ATOM     10  C   UNL     1      36.189  12.889 123.852 -0.61 -0.00    +0.000 C 
DOCKED: BRANCH  10  11
DOCKED: ATOM     11  C   UNL     1      35.667  11.577 123.230 -0.61 -0.00    +0.000 C 
DOCKED: BRANCH  11  12
DOCKED: ATOM     12  C   UNL     1      36.401  11.176 121.941 -0.60 -0.00    +0.000 C 
DOCKED: BRANCH  12  13
DOCKED: ATOM     13  C   UNL     1      36.822   9.736 121.950 -0.64 -0.00    +0.000 C 
DOCKED: ATOM     14  N   UNL     1      36.917   9.018 123.183 -0.65 -0.00    +0.000 N 
DOCKED: ATOM     15  O   UNL     1      37.066   9.151 120.860 -2.73 -0.00    +0.000 OA
DOCKED: ATOM     16  H   UNL     1      36.722   9.476 124.032 -0.47 -0.00    +0.000 HD
DOCKED: BRANCH  14  17
DOCKED: ATOM     17  O   UNL     1      37.270   7.710 123.193 -2.24 -0.00    +0.000 OA
DOCKED: ATOM     18  H   UNL     1      37.416   7.408 122.283 -0.13 -0.00    +0.000 HD
DOCKED: ENDBRANCH  14  17
DOCKED: ENDBRANCH  12  13
DOCKED: ENDBRANCH  11  12
DOCKED: ENDBRANCH  10  11
DOCKED: ENDBRANCH   1  10
DOCKED: TORSDOF 9
DOCKED: TER
DOCKED: ENDMDL
________________________________________________________________________________


	BEGINNING GENETIC ALGORITHM DOCKING 26 of 100
Run: 26 Seed: 1101355606 607313815 [ Run 26 of 100 GA/GALS ]
Beginning LAMARCKIAN GENETIC ALGORITHM (LGA), with a maximum of 2500000 energy evaluations.

Final-Value: -13.660


	FINAL GENETIC ALGORITHM DOCKED STATE
	_______________________________________________


Detailed state:  trans 35.581 11.298 123.493 quatxyzw 0.867276 -0.211170 -0.238176 -0.382768 center 0.300 0.400 0.510 ntor 9 176.3197 -1.2880 180.0000 -140.2011 50.2296 176.1417 87.9244 177.7841 78.3966
State:	 35.581  11.298 123.493   0.939 -0.229 -0.258 -134.990    176.32   -1.29  180.00 -140.20   50.23  176.14   87.92  177.78   78.40

DOCKED: MODEL       26
DOCKED: USER    Run = 26
DOCKED: USER    DPF = ligand_dock.biased.dpf
DOCKED: USER  
DOCKED: USER    Estimated Free Energy of Binding    =   -9.31 kcal/mol  [=(1)+(2)+(3)-(4)]
DOCKED: USER    Estimated Inhibition Constant, Ki   =  150.84 nM (nanomolar)  [Temperature = 298.15 K]
DOCKED: USER    
DOCKED: USER    (1) Final Intermolecular Energy     =  -11.99 kcal/mol
DOCKED: USER        vdW + Hbond + desolv Energy     =  -11.99 kcal/mol
DOCKED: USER        Electrostatic Energy            =   +0.00 kcal/mol
DOCKED: USER    (2) Final Total Internal Energy     =   -1.67 kcal/mol
DOCKED: USER    (3) Torsional Free Energy           =   +2.68 kcal/mol
DOCKED: USER    (4) Unbound System's Energy  [=(2)] =   -1.67 kcal/mol
DOCKED: USER    
DOCKED: USER    
DOCKED: USER    NEWDPF move ligand.pdbqt
DOCKED: USER    NEWDPF about 0.300000 0.400000 0.510000
DOCKED: USER    NEWDPF tran0 35.581063 11.298075 123.492520
DOCKED: USER    NEWDPF quaternion0 0.867276 -0.211170 -0.238176 -0.382768
DOCKED: USER    NEWDPF axisangle0 0.938768 -0.228578 -0.257810 -134.989538
DOCKED: USER    NEWDPF quat0 0.938768 -0.228578 -0.257810 -134.989538
DOCKED: USER    NEWDPF dihe0 176.32 -1.29 180.00 -140.20 50.23 176.14 87.92 177.78 78.40 
DOCKED: USER  keepresnum = 1 
DOCKED: USER  
DOCKED: REMARK  Name = 
DOCKED: REMARK  9 active torsions:
DOCKED: REMARK  status: ('A' for Active; 'I' for Inactive)
DOCKED: REMARK    1  A    between atoms: O_1  and  N_2
DOCKED: REMARK    2  A    between atoms: C_3  and  C_4
DOCKED: REMARK    3  A    between atoms: C_4  and  C_5
DOCKED: REMARK    4  A    between atoms: C_5  and  C_6
DOCKED: REMARK    5  A    between atoms: C_6  and  C_7
DOCKED: REMARK    6  A    between atoms: C_7  and  C_8
DOCKED: REMARK    7  A    between atoms: C_8  and  C_9
DOCKED: REMARK    8  A    between atoms: C_9  and  C_10
DOCKED: REMARK    9  A    between atoms: N_11  and  O_12
DOCKED: REMARK                            x       y       z     vdW  Elec       q    Type
DOCKED: REMARK                         _______ _______ _______ _____ _____    ______ ____
DOCKED: USER                              x       y       z     vdW  Elec       q    Type
DOCKED: USER                           _______ _______ _______ _____ _____    ______ ____
DOCKED: ROOT
DOCKED: ATOM      1  C   UNL     1      36.444  12.722 123.903 -0.57 -0.00    +0.000 C 
DOCKED: ENDROOT
DOCKED: BRANCH   1   2
DOCKED: ATOM      2  C   UNL     1      36.884  11.887 122.694 -0.64 -0.00    +0.000 C 
DOCKED: BRANCH   2   3
DOCKED: ATOM      3  C   UNL     1      35.857  10.797 122.377 -0.65 -0.00    +0.000 C 
DOCKED: BRANCH   3   5
DOCKED: ATOM      4  N   UNL     1      36.582   8.558 123.333 -0.65 -0.00    +0.000 N 
DOCKED: ATOM      5  C   UNL     1      36.531   9.467 122.229 -0.70 -0.00    +0.000 C 
DOCKED: ATOM      6  O   UNL     1      37.018   9.133 121.117 -2.72 -0.00    +0.000 OA
DOCKED: ATOM      7  H   UNL     1      36.192   8.820 124.198 -0.28 -0.00    +0.000 HD
DOCKED: BRANCH   4   8
DOCKED: ATOM      8  O   UNL     1      37.164   7.343 123.199 -2.09 -0.00    +0.000 OA
DOCKED: ATOM      9  H   UNL     1      37.446   7.220 122.279 -0.18 -0.00    +0.000 HD
DOCKED: ENDBRANCH   4   8
DOCKED: ENDBRANCH   3   5
DOCKED: ENDBRANCH   2   3
DOCKED: ENDBRANCH   1   2
DOCKED: BRANCH   1  10
DOCKED: ATOM     10  C   UNL     1      35.639  13.953 123.459 -0.51 -0.00    +0.000 C 
DOCKED: BRANCH  10  11
DOCKED: ATOM     11  C   UNL     1      36.464  15.254 123.530 -0.44 -0.00    +0.000 C 
DOCKED: BRANCH  11  12
DOCKED: ATOM     12  C   UNL     1      37.369  15.473 122.307 -0.33 -0.00    +0.000 C 
DOCKED: BRANCH  12  13
DOCKED: ATOM     13  C   UNL     1      38.826  15.450 122.664 -0.36 -0.00    +0.000 C 
DOCKED: ATOM     14  N   UNL     1      39.696  14.472 122.091 -0.40 -0.00    +0.000 N 
DOCKED: ATOM     15  O   UNL     1      39.288  16.319 123.452 -0.30 -0.00    +0.000 OA
DOCKED: ATOM     16  H   UNL     1      39.333  13.797 121.473 -0.04 -0.00    +0.000 HD
DOCKED: BRANCH  14  17
DOCKED: ATOM     17  O   UNL     1      41.018  14.466 122.390 -1.10 -0.00    +0.000 OA
DOCKED: ATOM     18  H   UNL     1      41.217  15.201 122.990 -0.04 -0.00    +0.000 HD
DOCKED: ENDBRANCH  14  17
DOCKED: ENDBRANCH  12  13
DOCKED: ENDBRANCH  11  12
DOCKED: ENDBRANCH  10  11
DOCKED: ENDBRANCH   1  10
DOCKED: TORSDOF 9
DOCKED: TER
DOCKED: ENDMDL
________________________________________________________________________________


	BEGINNING GENETIC ALGORITHM DOCKING 27 of 100
Run: 27 Seed: 1088309459 181994499 [ Run 27 of 100 GA/GALS ]
Beginning LAMARCKIAN GENETIC ALGORITHM (LGA), with a maximum of 2500000 energy evaluations.

Final-Value: -12.963


	FINAL GENETIC ALGORITHM DOCKED STATE
	_______________________________________________


Detailed state:  trans 37.366 15.550 121.272 quatxyzw 0.261075 0.768579 0.253646 0.526108 center 0.300 0.400 0.510 ntor 9 178.2154 10.8649 169.0450 -121.4358 -9.7058 105.6668 -0.9713 147.9139 85.1115
State:	 37.366  15.550 121.272   0.307  0.904  0.298 116.514    178.22   10.86  169.05 -121.44   -9.71  105.67   -0.97  147.91   85.11

DOCKED: MODEL       27
DOCKED: USER    Run = 27
DOCKED: USER    DPF = ligand_dock.biased.dpf
DOCKED: USER  
DOCKED: USER    Estimated Free Energy of Binding    =   -8.79 kcal/mol  [=(1)+(2)+(3)-(4)]
DOCKED: USER    Estimated Inhibition Constant, Ki   =  358.29 nM (nanomolar)  [Temperature = 298.15 K]
DOCKED: USER    
DOCKED: USER    (1) Final Intermolecular Energy     =  -11.48 kcal/mol
DOCKED: USER        vdW + Hbond + desolv Energy     =  -11.48 kcal/mol
DOCKED: USER        Electrostatic Energy            =   +0.00 kcal/mol
DOCKED: USER    (2) Final Total Internal Energy     =   -1.49 kcal/mol
DOCKED: USER    (3) Torsional Free Energy           =   +2.68 kcal/mol
DOCKED: USER    (4) Unbound System's Energy  [=(2)] =   -1.49 kcal/mol
DOCKED: USER    
DOCKED: USER    
DOCKED: USER    NEWDPF move ligand.pdbqt
DOCKED: USER    NEWDPF about 0.300000 0.400000 0.510000
DOCKED: USER    NEWDPF tran0 37.365902 15.549697 121.271932
DOCKED: USER    NEWDPF quaternion0 0.261075 0.768579 0.253646 0.526108
DOCKED: USER    NEWDPF axisangle0 0.306996 0.903767 0.298260 116.514336
DOCKED: USER    NEWDPF quat0 0.306996 0.903767 0.298260 116.514336
DOCKED: USER    NEWDPF dihe0 178.22 10.86 169.05 -121.44 -9.71 105.67 -0.97 147.91 85.11 
DOCKED: USER  keepresnum = 1 
DOCKED: USER  
DOCKED: REMARK  Name = 
DOCKED: REMARK  9 active torsions:
DOCKED: REMARK  status: ('A' for Active; 'I' for Inactive)
DOCKED: REMARK    1  A    between atoms: O_1  and  N_2
DOCKED: REMARK    2  A    between atoms: C_3  and  C_4
DOCKED: REMARK    3  A    between atoms: C_4  and  C_5
DOCKED: REMARK    4  A    between atoms: C_5  and  C_6
DOCKED: REMARK    5  A    between atoms: C_6  and  C_7
DOCKED: REMARK    6  A    between atoms: C_7  and  C_8
DOCKED: REMARK    7  A    between atoms: C_8  and  C_9
DOCKED: REMARK    8  A    between atoms: C_9  and  C_10
DOCKED: REMARK    9  A    between atoms: N_11  and  O_12
DOCKED: REMARK                            x       y       z     vdW  Elec       q    Type
DOCKED: REMARK                         _______ _______ _______ _____ _____    ______ ____
DOCKED: USER                              x       y       z     vdW  Elec       q    Type
DOCKED: USER                           _______ _______ _______ _____ _____    ______ ____
DOCKED: ROOT
DOCKED: ATOM      1  C   UNL     1      37.985  13.966 121.494 -0.42 -0.00    +0.000 C 
DOCKED: ENDROOT
DOCKED: BRANCH   1   2
DOCKED: ATOM      2  C   UNL     1      36.681  14.377 122.187 -0.34 -0.00    +0.000 C 
DOCKED: BRANCH   2   3
DOCKED: ATOM      3  C   UNL     1      36.964  15.195 123.450 -0.42 -0.00    +0.000 C 
DOCKED: BRANCH   3   5
DOCKED: ATOM      4  N   UNL     1      34.855  15.044 124.857 -0.47 -0.00    +0.000 N 
DOCKED: ATOM      5  C   UNL     1      35.699  15.797 123.982 -0.46 -0.00    +0.000 C 
DOCKED: ATOM      6  O   UNL     1      35.400  16.985 123.687 -0.36 -0.00    +0.000 OA
DOCKED: ATOM      7  H   UNL     1      35.097  14.119 125.091 -0.04 -0.00    +0.000 HD
DOCKED: BRANCH   4   8
DOCKED: ATOM      8  O   UNL     1      33.725  15.591 125.364 -0.78 -0.00    +0.000 OA
DOCKED: ATOM      9  H   UNL     1      33.646  16.508 125.059 -0.02 -0.00    +0.000 HD
DOCKED: ENDBRANCH   4   8
DOCKED: ENDBRANCH   3   5
DOCKED: ENDBRANCH   2   3
DOCKED: ENDBRANCH   1   2
DOCKED: BRANCH   1  10
DOCKED: ATOM     10  C   UNL     1      37.701  13.126 120.239 -0.46 -0.00    +0.000 C 
DOCKED: BRANCH  10  11
DOCKED: ATOM     11  C   UNL     1      37.806  11.611 120.508 -0.37 -0.00    +0.000 C 
DOCKED: BRANCH  11  12
DOCKED: ATOM     12  C   UNL     1      36.963  11.141 121.704 -0.54 -0.00    +0.000 C 
DOCKED: BRANCH  12  13
DOCKED: ATOM     13  C   UNL     1      36.968   9.649 121.853 -0.60 -0.00    +0.000 C 
DOCKED: ATOM     14  N   UNL     1      37.092   9.051 123.146 -0.65 -0.00    +0.000 N 
DOCKED: ATOM     15  O   UNL     1      36.831   8.920 120.834 -2.65 -0.00    +0.000 OA
DOCKED: ATOM     16  H   UNL     1      37.195   9.623 123.941 -0.50 -0.00    +0.000 HD
DOCKED: BRANCH  14  17
DOCKED: ATOM     17  O   UNL     1      37.069   7.704 123.288 -2.31 -0.00    +0.000 OA
DOCKED: ATOM     18  H   UNL     1      37.135   7.286 122.415 -0.10 -0.00    +0.000 HD
DOCKED: ENDBRANCH  14  17
DOCKED: ENDBRANCH  12  13
DOCKED: ENDBRANCH  11  12
DOCKED: ENDBRANCH  10  11
DOCKED: ENDBRANCH   1  10
DOCKED: TORSDOF 9
DOCKED: TER
DOCKED: ENDMDL
________________________________________________________________________________


	BEGINNING GENETIC ALGORITHM DOCKING 28 of 100
Run: 28 Seed: 1335534147 1490032067 [ Run 28 of 100 GA/GALS ]
Beginning LAMARCKIAN GENETIC ALGORITHM (LGA), with a maximum of 2500000 energy evaluations.

Final-Value: -13.645


	FINAL GENETIC ALGORITHM DOCKED STATE
	_______________________________________________


Detailed state:  trans 35.627 11.240 123.052 quatxyzw -0.919289 0.226418 0.239449 0.215190 center 0.300 0.400 0.510 ntor 9 -173.7850 -4.9625 137.7530 9.5280 76.8742 62.5580 79.2759 3.9127 151.1663
State:	 35.627  11.240 123.052  -0.941  0.232  0.245 155.147   -173.79   -4.96  137.75    9.53   76.87   62.56   79.28    3.91  151.17

DOCKED: MODEL       28
DOCKED: USER    Run = 28
DOCKED: USER    DPF = ligand_dock.biased.dpf
DOCKED: USER  
DOCKED: USER    Estimated Free Energy of Binding    =   -9.24 kcal/mol  [=(1)+(2)+(3)-(4)]
DOCKED: USER    Estimated Inhibition Constant, Ki   =  169.38 nM (nanomolar)  [Temperature = 298.15 K]
DOCKED: USER    
DOCKED: USER    (1) Final Intermolecular Energy     =  -11.92 kcal/mol
DOCKED: USER        vdW + Hbond + desolv Energy     =  -11.92 kcal/mol
DOCKED: USER        Electrostatic Energy            =   +0.00 kcal/mol
DOCKED: USER    (2) Final Total Internal Energy     =   -1.72 kcal/mol
DOCKED: USER    (3) Torsional Free Energy           =   +2.68 kcal/mol
DOCKED: USER    (4) Unbound System's Energy  [=(2)] =   -1.72 kcal/mol
DOCKED: USER    
DOCKED: USER    
DOCKED: USER    NEWDPF move ligand.pdbqt
DOCKED: USER    NEWDPF about 0.300000 0.400000 0.510000
DOCKED: USER    NEWDPF tran0 35.627312 11.239656 123.052133
DOCKED: USER    NEWDPF quaternion0 -0.919289 0.226418 0.239449 0.215190
DOCKED: USER    NEWDPF axisangle0 -0.941343 0.231849 0.245194 155.146698
DOCKED: USER    NEWDPF quat0 -0.941343 0.231849 0.245194 155.146698
DOCKED: USER    NEWDPF dihe0 -173.79 -4.96 137.75 9.53 76.87 62.56 79.28 3.91 151.17 
DOCKED: USER  keepresnum = 1 
DOCKED: USER  
DOCKED: REMARK  Name = 
DOCKED: REMARK  9 active torsions:
DOCKED: REMARK  status: ('A' for Active; 'I' for Inactive)
DOCKED: REMARK    1  A    between atoms: O_1  and  N_2
DOCKED: REMARK    2  A    between atoms: C_3  and  C_4
DOCKED: REMARK    3  A    between atoms: C_4  and  C_5
DOCKED: REMARK    4  A    between atoms: C_5  and  C_6
DOCKED: REMARK    5  A    between atoms: C_6  and  C_7
DOCKED: REMARK    6  A    between atoms: C_7  and  C_8
DOCKED: REMARK    7  A    between atoms: C_8  and  C_9
DOCKED: REMARK    8  A    between atoms: C_9  and  C_10
DOCKED: REMARK    9  A    between atoms: N_11  and  O_12
DOCKED: REMARK                            x       y       z     vdW  Elec       q    Type
DOCKED: REMARK                         _______ _______ _______ _____ _____    ______ ____
DOCKED: USER                              x       y       z     vdW  Elec       q    Type
DOCKED: USER                           _______ _______ _______ _____ _____    ______ ____
DOCKED: ROOT
DOCKED: ATOM      1  C   UNL     1      36.530  12.368 123.976 -0.58 -0.00    +0.000 C 
DOCKED: ENDROOT
DOCKED: BRANCH   1   2
DOCKED: ATOM      2  C   UNL     1      37.051  11.915 122.607 -0.62 -0.00    +0.000 C 
DOCKED: BRANCH   2   3
DOCKED: ATOM      3  C   UNL     1      36.090  10.918 121.956 -0.56 -0.00    +0.000 C 
DOCKED: BRANCH   3   5
DOCKED: ATOM      4  N   UNL     1      36.988   8.988 123.343 -0.61 -0.00    +0.000 N 
DOCKED: ATOM      5  C   UNL     1      36.626   9.522 122.066 -0.69 -0.00    +0.000 C 
DOCKED: ATOM      6  O   UNL     1      36.718   8.805 121.035 -2.59 -0.00    +0.000 OA
DOCKED: ATOM      7  H   UNL     1      36.905   9.550 124.147 -0.53 -0.00    +0.000 HD
DOCKED: BRANCH   4   8
DOCKED: ATOM      8  O   UNL     1      37.446   7.719 123.454 -2.18 -0.00    +0.000 OA
DOCKED: ATOM      9  H   UNL     1      37.562   7.339 122.569 -0.21 -0.00    +0.000 HD
DOCKED: ENDBRANCH   4   8
DOCKED: ENDBRANCH   3   5
DOCKED: ENDBRANCH   2   3
DOCKED: ENDBRANCH   1   2
DOCKED: BRANCH   1  10
DOCKED: ATOM     10  C   UNL     1      35.866  13.750 123.884 -0.55 -0.00    +0.000 C 
DOCKED: BRANCH  10  11
DOCKED: ATOM     11  C   UNL     1      36.500  14.636 122.791 -0.42 -0.00    +0.000 C 
DOCKED: BRANCH  11  12
DOCKED: ATOM     12  C   UNL     1      37.642  15.524 123.309 -0.34 -0.00    +0.000 C 
DOCKED: BRANCH  12  13
DOCKED: ATOM     13  C   UNL     1      38.869  15.433 122.451 -0.35 -0.00    +0.000 C 
DOCKED: ATOM     14  N   UNL     1      39.886  14.471 122.743 -0.42 -0.00    +0.000 N 
DOCKED: ATOM     15  O   UNL     1      38.987  16.189 121.450 -0.19 -0.00    +0.000 OA
DOCKED: ATOM     16  H   UNL     1      39.789  13.879 123.524 -0.04 -0.00    +0.000 HD
DOCKED: BRANCH  14  17
DOCKED: ATOM     17  O   UNL     1      40.982  14.366 121.954 -1.03 -0.00    +0.000 OA
DOCKED: ATOM     18  H   UNL     1      40.889  14.959 121.192 -0.01 -0.00    +0.000 HD
DOCKED: ENDBRANCH  14  17
DOCKED: ENDBRANCH  12  13
DOCKED: ENDBRANCH  11  12
DOCKED: ENDBRANCH  10  11
DOCKED: ENDBRANCH   1  10
DOCKED: TORSDOF 9
DOCKED: TER
DOCKED: ENDMDL
________________________________________________________________________________


	BEGINNING GENETIC ALGORITHM DOCKING 29 of 100
Run: 29 Seed: 1236634232 945774412 [ Run 29 of 100 GA/GALS ]
Beginning LAMARCKIAN GENETIC ALGORITHM (LGA), with a maximum of 2500000 energy evaluations.

Final-Value: -13.259


	FINAL GENETIC ALGORITHM DOCKED STATE
	_______________________________________________


Detailed state:  trans 35.729 12.571 121.589 quatxyzw 0.698125 -0.629872 -0.130601 -0.314366 center 0.300 0.400 0.510 ntor 9 179.7237 3.8508 -165.7119 -178.5767 41.5018 -175.2486 25.7660 120.4011 -12.7017
State:	 35.729  12.571 121.589   0.735 -0.664 -0.138 -143.355    179.72    3.85 -165.71 -178.58   41.50 -175.25   25.77  120.40  -12.70

DOCKED: MODEL       29
DOCKED: USER    Run = 29
DOCKED: USER    DPF = ligand_dock.biased.dpf
DOCKED: USER  
DOCKED: USER    Estimated Free Energy of Binding    =   -8.94 kcal/mol  [=(1)+(2)+(3)-(4)]
DOCKED: USER    Estimated Inhibition Constant, Ki   =  280.89 nM (nanomolar)  [Temperature = 298.15 K]
DOCKED: USER    
DOCKED: USER    (1) Final Intermolecular Energy     =  -11.62 kcal/mol
DOCKED: USER        vdW + Hbond + desolv Energy     =  -11.62 kcal/mol
DOCKED: USER        Electrostatic Energy            =   +0.00 kcal/mol
DOCKED: USER    (2) Final Total Internal Energy     =   -1.64 kcal/mol
DOCKED: USER    (3) Torsional Free Energy           =   +2.68 kcal/mol
DOCKED: USER    (4) Unbound System's Energy  [=(2)] =   -1.64 kcal/mol
DOCKED: USER    
DOCKED: USER    
DOCKED: USER    NEWDPF move ligand.pdbqt
DOCKED: USER    NEWDPF about 0.300000 0.400000 0.510000
DOCKED: USER    NEWDPF tran0 35.728920 12.570560 121.588522
DOCKED: USER    NEWDPF quaternion0 0.698125 -0.629872 -0.130601 -0.314366
DOCKED: USER    NEWDPF axisangle0 0.735409 -0.663511 -0.137576 -143.354872
DOCKED: USER    NEWDPF quat0 0.735409 -0.663511 -0.137576 -143.354872
DOCKED: USER    NEWDPF dihe0 179.72 3.85 -165.71 -178.58 41.50 -175.25 25.77 120.40 -12.70 
DOCKED: USER  keepresnum = 1 
DOCKED: USER  
DOCKED: REMARK  Name = 
DOCKED: REMARK  9 active torsions:
DOCKED: REMARK  status: ('A' for Active; 'I' for Inactive)
DOCKED: REMARK    1  A    between atoms: O_1  and  N_2
DOCKED: REMARK    2  A    between atoms: C_3  and  C_4
DOCKED: REMARK    3  A    between atoms: C_4  and  C_5
DOCKED: REMARK    4  A    between atoms: C_5  and  C_6
DOCKED: REMARK    5  A    between atoms: C_6  and  C_7
DOCKED: REMARK    6  A    between atoms: C_7  and  C_8
DOCKED: REMARK    7  A    between atoms: C_8  and  C_9
DOCKED: REMARK    8  A    between atoms: C_9  and  C_10
DOCKED: REMARK    9  A    between atoms: N_11  and  O_12
DOCKED: REMARK                            x       y       z     vdW  Elec       q    Type
DOCKED: REMARK                         _______ _______ _______ _____ _____    ______ ____
DOCKED: USER                              x       y       z     vdW  Elec       q    Type
DOCKED: USER                           _______ _______ _______ _____ _____    ______ ____
DOCKED: ROOT
DOCKED: ATOM      1  C   UNL     1      37.165  13.189 122.294 -0.53 -0.00    +0.000 C 
DOCKED: ENDROOT
DOCKED: BRANCH   1   2
DOCKED: ATOM      2  C   UNL     1      37.206  11.867 121.518 -0.52 -0.00    +0.000 C 
DOCKED: BRANCH   2   3
DOCKED: ATOM      3  C   UNL     1      36.155  10.887 122.046 -0.59 -0.00    +0.000 C 
DOCKED: BRANCH   3   5
DOCKED: ATOM      4  N   UNL     1      36.962   8.883 123.383 -0.61 -0.00    +0.000 N 
DOCKED: ATOM      5  C   UNL     1      36.717   9.500 122.115 -0.70 -0.00    +0.000 C 
DOCKED: ATOM      6  O   UNL     1      36.937   8.860 121.052 -2.67 -0.00    +0.000 OA
DOCKED: ATOM      7  H   UNL     1      36.780   9.384 124.211 -0.50 -0.00    +0.000 HD
DOCKED: BRANCH   4   8
DOCKED: ATOM      8  O   UNL     1      37.443   7.620 123.453 -2.13 -0.00    +0.000 OA
DOCKED: ATOM      9  H   UNL     1      37.564   7.270 122.557 -0.23 -0.00    +0.000 HD
DOCKED: ENDBRANCH   4   8
DOCKED: ENDBRANCH   3   5
DOCKED: ENDBRANCH   2   3
DOCKED: ENDBRANCH   1   2
DOCKED: BRANCH   1  10
DOCKED: ATOM     10  C   UNL     1      37.696  14.348 121.437 -0.38 -0.00    +0.000 C 
DOCKED: BRANCH  10  11
DOCKED: ATOM     11  C   UNL     1      37.339  15.728 122.026 -0.28 -0.00    +0.000 C 
DOCKED: BRANCH  11  12
DOCKED: ATOM     12  C   UNL     1      37.098  15.701 123.544 -0.34 -0.00    +0.000 C 
DOCKED: BRANCH  12  13
DOCKED: ATOM     13  C   UNL     1      35.646  15.847 123.892 -0.46 -0.00    +0.000 C 
DOCKED: ATOM     14  N   UNL     1      34.769  14.719 123.825 -0.57 -0.00    +0.000 N 
DOCKED: ATOM     15  O   UNL     1      35.205  16.964 124.275 -0.39 -0.00    +0.000 OA
DOCKED: ATOM     16  H   UNL     1      35.117  13.847 123.529 -0.04 -0.00    +0.000 HD
DOCKED: BRANCH  14  17
DOCKED: ATOM     17  O   UNL     1      33.463  14.840 124.165 -0.60 -0.00    +0.000 OA
DOCKED: ATOM     18  H   UNL     1      33.268  15.767 124.373 -0.06 -0.00    +0.000 HD
DOCKED: ENDBRANCH  14  17
DOCKED: ENDBRANCH  12  13
DOCKED: ENDBRANCH  11  12
DOCKED: ENDBRANCH  10  11
DOCKED: ENDBRANCH   1  10
DOCKED: TORSDOF 9
DOCKED: TER
DOCKED: ENDMDL
________________________________________________________________________________


	BEGINNING GENETIC ALGORITHM DOCKING 30 of 100
Run: 30 Seed: 561432533 1884984936 [ Run 30 of 100 GA/GALS ]
Beginning LAMARCKIAN GENETIC ALGORITHM (LGA), with a maximum of 2500000 energy evaluations.

Final-Value: -12.813


	FINAL GENETIC ALGORITHM DOCKED STATE
	_______________________________________________


Detailed state:  trans 38.498 12.097 119.323 quatxyzw 0.418821 -0.663602 0.591273 0.186061 center 0.300 0.400 0.510 ntor 9 163.6284 -20.4937 -161.1369 -46.4499 -6.1915 -20.7752 -50.8835 132.9437 59.1685
State:	 38.498  12.097 119.323   0.426 -0.675  0.602 158.554    163.63  -20.49 -161.14  -46.45   -6.19  -20.78  -50.88  132.94   59.17

DOCKED: MODEL       30
DOCKED: USER    Run = 30
DOCKED: USER    DPF = ligand_dock.biased.dpf
DOCKED: USER  
DOCKED: USER    Estimated Free Energy of Binding    =   -7.97 kcal/mol  [=(1)+(2)+(3)-(4)]
DOCKED: USER    Estimated Inhibition Constant, Ki   =    1.45 uM (micromolar)  [Temperature = 298.15 K]
DOCKED: USER    
DOCKED: USER    (1) Final Intermolecular Energy     =  -10.65 kcal/mol
DOCKED: USER        vdW + Hbond + desolv Energy     =  -10.65 kcal/mol
DOCKED: USER        Electrostatic Energy            =   +0.00 kcal/mol
DOCKED: USER    (2) Final Total Internal Energy     =   -2.16 kcal/mol
DOCKED: USER    (3) Torsional Free Energy           =   +2.68 kcal/mol
DOCKED: USER    (4) Unbound System's Energy  [=(2)] =   -2.16 kcal/mol
DOCKED: USER    
DOCKED: USER    
DOCKED: USER    NEWDPF move ligand.pdbqt
DOCKED: USER    NEWDPF about 0.300000 0.400000 0.510000
DOCKED: USER    NEWDPF tran0 38.497724 12.096788 119.323439
DOCKED: USER    NEWDPF quaternion0 0.418821 -0.663602 0.591273 0.186061
DOCKED: USER    NEWDPF axisangle0 0.426264 -0.675395 0.601781 158.554059
DOCKED: USER    NEWDPF quat0 0.426264 -0.675395 0.601781 158.554059
DOCKED: USER    NEWDPF dihe0 163.63 -20.49 -161.14 -46.45 -6.19 -20.78 -50.88 132.94 59.17 
DOCKED: USER  keepresnum = 1 
DOCKED: USER  
DOCKED: REMARK  Name = 
DOCKED: REMARK  9 active torsions:
DOCKED: REMARK  status: ('A' for Active; 'I' for Inactive)
DOCKED: REMARK    1  A    between atoms: O_1  and  N_2
DOCKED: REMARK    2  A    between atoms: C_3  and  C_4
DOCKED: REMARK    3  A    between atoms: C_4  and  C_5
DOCKED: REMARK    4  A    between atoms: C_5  and  C_6
DOCKED: REMARK    5  A    between atoms: C_6  and  C_7
DOCKED: REMARK    6  A    between atoms: C_7  and  C_8
DOCKED: REMARK    7  A    between atoms: C_8  and  C_9
DOCKED: REMARK    8  A    between atoms: C_9  and  C_10
DOCKED: REMARK    9  A    between atoms: N_11  and  O_12
DOCKED: REMARK                            x       y       z     vdW  Elec       q    Type
DOCKED: REMARK                         _______ _______ _______ _____ _____    ______ ____
DOCKED: USER                              x       y       z     vdW  Elec       q    Type
DOCKED: USER                           _______ _______ _______ _____ _____    ______ ____
DOCKED: ROOT
DOCKED: ATOM      1  C   UNL     1      37.710  13.255 120.314 -0.46 -0.00    +0.000 C 
DOCKED: ENDROOT
DOCKED: BRANCH   1   2
DOCKED: ATOM      2  C   UNL     1      37.924  11.829 120.833 -0.07 -0.00    +0.000 C 
DOCKED: BRANCH   2   3
DOCKED: ATOM      3  C   UNL     1      36.621  11.244 121.385 -0.33 -0.00    +0.000 C 
DOCKED: BRANCH   3   5
DOCKED: ATOM      4  N   UNL     1      36.689   9.373 123.102 -0.65 -0.00    +0.000 N 
DOCKED: ATOM      5  C   UNL     1      36.802   9.799 121.741 -0.53 -0.00    +0.000 C 
DOCKED: ATOM      6  O   UNL     1      37.014   8.953 120.833 -2.71 -0.00    +0.000 OA
DOCKED: ATOM      7  H   UNL     1      36.514  10.037 123.808 -0.28 -0.00    +0.000 HD
DOCKED: BRANCH   4   8
DOCKED: ATOM      8  O   UNL     1      36.823   8.066 123.428 -2.11 -0.00    +0.000 OA
DOCKED: ATOM      9  H   UNL     1      36.733   7.523 122.629 -0.04 -0.00    +0.000 HD
DOCKED: ENDBRANCH   4   8
DOCKED: ENDBRANCH   3   5
DOCKED: ENDBRANCH   2   3
DOCKED: ENDBRANCH   1   2
DOCKED: BRANCH   1  10
DOCKED: ATOM     10  C   UNL     1      38.754  14.217 120.901 -0.35 -0.00    +0.000 C 
DOCKED: BRANCH  10  11
DOCKED: ATOM     11  C   UNL     1      38.107  15.400 121.652 -0.29 -0.00    +0.000 C 
DOCKED: BRANCH  11  12
DOCKED: ATOM     12  C   UNL     1      36.842  15.011 122.434 -0.37 -0.00    +0.000 C 
DOCKED: BRANCH  12  13
DOCKED: ATOM     13  C   UNL     1      37.039  13.771 123.255 -0.54 -0.00    +0.000 C 
DOCKED: ATOM     14  N   UNL     1      35.952  12.868 123.472 -0.59 -0.00    +0.000 N 
DOCKED: ATOM     15  O   UNL     1      38.177  13.512 123.730 -0.47 -0.00    +0.000 OA
DOCKED: ATOM     16  H   UNL     1      35.065  13.071 123.097 -0.03 -0.00    +0.000 HD
DOCKED: BRANCH  14  17
DOCKED: ATOM     17  O   UNL     1      36.133  11.733 124.190 -0.75 -0.00    +0.000 OA
DOCKED: ATOM     18  H   UNL     1      37.077  11.510 124.210 -0.08 -0.00    +0.000 HD
DOCKED: ENDBRANCH  14  17
DOCKED: ENDBRANCH  12  13
DOCKED: ENDBRANCH  11  12
DOCKED: ENDBRANCH  10  11
DOCKED: ENDBRANCH   1  10
DOCKED: TORSDOF 9
DOCKED: TER
DOCKED: ENDMDL
________________________________________________________________________________


	BEGINNING GENETIC ALGORITHM DOCKING 31 of 100
Run: 31 Seed: 157271931 1113448693 [ Run 31 of 100 GA/GALS ]
Beginning LAMARCKIAN GENETIC ALGORITHM (LGA), with a maximum of 2500000 energy evaluations.

Final-Value: -14.295


	FINAL GENETIC ALGORITHM DOCKED STATE
	_______________________________________________


Detailed state:  trans 27.368 5.295 116.317 quatxyzw -0.816929 0.314772 0.399309 0.272211 center 0.300 0.400 0.510 ntor 9 179.3239 4.9739 180.0000 12.4533 149.8193 -121.0719 56.2258 -123.8778 -85.2824
State:	 27.368   5.295 116.317  -0.849  0.327  0.415 148.408    179.32    4.97  180.00   12.45  149.82 -121.07   56.23 -123.88  -85.28

DOCKED: MODEL       31
DOCKED: USER    Run = 31
DOCKED: USER    DPF = ligand_dock.biased.dpf
DOCKED: USER  
DOCKED: USER    Estimated Free Energy of Binding    =   -9.80 kcal/mol  [=(1)+(2)+(3)-(4)]
DOCKED: USER    Estimated Inhibition Constant, Ki   =   65.71 nM (nanomolar)  [Temperature = 298.15 K]
DOCKED: USER    
DOCKED: USER    (1) Final Intermolecular Energy     =  -12.48 kcal/mol
DOCKED: USER        vdW + Hbond + desolv Energy     =  -12.48 kcal/mol
DOCKED: USER        Electrostatic Energy            =   +0.00 kcal/mol
DOCKED: USER    (2) Final Total Internal Energy     =   -1.81 kcal/mol
DOCKED: USER    (3) Torsional Free Energy           =   +2.68 kcal/mol
DOCKED: USER    (4) Unbound System's Energy  [=(2)] =   -1.81 kcal/mol
DOCKED: USER    
DOCKED: USER    
DOCKED: USER    NEWDPF move ligand.pdbqt
DOCKED: USER    NEWDPF about 0.300000 0.400000 0.510000
DOCKED: USER    NEWDPF tran0 27.368423 5.294921 116.316691
DOCKED: USER    NEWDPF quaternion0 -0.816929 0.314772 0.399309 0.272211
DOCKED: USER    NEWDPF axisangle0 -0.848988 0.327125 0.414980 148.408245
DOCKED: USER    NEWDPF quat0 -0.848988 0.327125 0.414980 148.408245
DOCKED: USER    NEWDPF dihe0 179.32 4.97 180.00 12.45 149.82 -121.07 56.23 -123.88 -85.28 
DOCKED: USER  keepresnum = 1 
DOCKED: USER  
DOCKED: REMARK  Name = 
DOCKED: REMARK  9 active torsions:
DOCKED: REMARK  status: ('A' for Active; 'I' for Inactive)
DOCKED: REMARK    1  A    between atoms: O_1  and  N_2
DOCKED: REMARK    2  A    between atoms: C_3  and  C_4
DOCKED: REMARK    3  A    between atoms: C_4  and  C_5
DOCKED: REMARK    4  A    between atoms: C_5  and  C_6
DOCKED: REMARK    5  A    between atoms: C_6  and  C_7
DOCKED: REMARK    6  A    between atoms: C_7  and  C_8
DOCKED: REMARK    7  A    between atoms: C_8  and  C_9
DOCKED: REMARK    8  A    between atoms: C_9  and  C_10
DOCKED: REMARK    9  A    between atoms: N_11  and  O_12
DOCKED: REMARK                            x       y       z     vdW  Elec       q    Type
DOCKED: REMARK                         _______ _______ _______ _____ _____    ______ ____
DOCKED: USER                              x       y       z     vdW  Elec       q    Type
DOCKED: USER                           _______ _______ _______ _____ _____    ______ ____
DOCKED: ROOT
DOCKED: ATOM      1  C   UNL     1      28.759   6.210 116.728 -0.63 +0.00    +0.000 C 
DOCKED: ENDROOT
DOCKED: BRANCH   1   2
DOCKED: ATOM      2  C   UNL     1      28.671   5.536 115.354 -0.73 -0.00    +0.000 C 
DOCKED: BRANCH   2   3
DOCKED: ATOM      3  C   UNL     1      27.689   4.362 115.381 -0.72 -0.00    +0.000 C 
DOCKED: BRANCH   3   5
DOCKED: ATOM      4  N   UNL     1      26.648   4.098 117.683 -0.64 -0.00    +0.000 N 
DOCKED: ATOM      5  C   UNL     1      27.659   3.731 116.740 -0.69 -0.00    +0.000 C 
DOCKED: ATOM      6  O   UNL     1      28.505   2.846 117.037 -1.22 +0.00    +0.000 OA
DOCKED: ATOM      7  H   UNL     1      25.983   4.784 117.443 -0.51 -0.00    +0.000 HD
DOCKED: BRANCH   4   8
DOCKED: ATOM      8  O   UNL     1      26.597   3.512 118.902 -0.86 -0.00    +0.000 OA
DOCKED: ATOM      9  H   UNL     1      27.310   2.858 118.976 -0.60 -0.00    +0.000 HD
DOCKED: ENDBRANCH   4   8
DOCKED: ENDBRANCH   3   5
DOCKED: ENDBRANCH   2   3
DOCKED: ENDBRANCH   1   2
DOCKED: BRANCH   1  10
DOCKED: ATOM     10  C   UNL     1      28.432   7.708 116.629 -0.47 -0.00    +0.000 C 
DOCKED: BRANCH  10  11
DOCKED: ATOM     11  C   UNL     1      26.939   8.003 116.882 -0.66 -0.00    +0.000 C 
DOCKED: BRANCH  11  12
DOCKED: ATOM     12  C   UNL     1      26.698   9.275 117.710 -0.74 +0.00    +0.000 C 
DOCKED: BRANCH  12  13
DOCKED: ATOM     13  C   UNL     1      27.476   9.275 118.993 -0.70 +0.00    +0.000 C 
DOCKED: ATOM     14  N   UNL     1      26.923   8.691 120.175 -0.65 -0.00    +0.000 N 
DOCKED: ATOM     15  O   UNL     1      28.636   9.768 119.018 -0.73 +0.00    +0.000 OA
DOCKED: ATOM     16  H   UNL     1      26.018   8.304 120.151 -0.55 -0.00    +0.000 HD
DOCKED: BRANCH  14  17
DOCKED: ATOM     17  O   UNL     1      27.633   8.665 121.328 -0.78 -0.00    +0.000 OA
DOCKED: ATOM     18  H   UNL     1      28.463   9.152 121.207 -0.60 -0.00    +0.000 HD
DOCKED: ENDBRANCH  14  17
DOCKED: ENDBRANCH  12  13
DOCKED: ENDBRANCH  11  12
DOCKED: ENDBRANCH  10  11
DOCKED: ENDBRANCH   1  10
DOCKED: TORSDOF 9
DOCKED: TER
DOCKED: ENDMDL
________________________________________________________________________________


	BEGINNING GENETIC ALGORITHM DOCKING 32 of 100
Run: 32 Seed: 765903030 328318196 [ Run 32 of 100 GA/GALS ]
Beginning LAMARCKIAN GENETIC ALGORITHM (LGA), with a maximum of 2500000 energy evaluations.

Final-Value: -13.898


	FINAL GENETIC ALGORITHM DOCKED STATE
	_______________________________________________


Detailed state:  trans 35.159 14.265 122.237 quatxyzw -0.164736 -0.786962 0.393963 -0.445361 center 0.300 0.400 0.510 ntor 9 179.7038 0.8552 -122.3571 132.0969 58.6173 45.2506 11.2411 -161.9639 -150.8174
State:	 35.159  14.265 122.237  -0.184 -0.879  0.440 -127.107    179.70    0.86 -122.36  132.10   58.62   45.25   11.24 -161.96 -150.82

DOCKED: MODEL       32
DOCKED: USER    Run = 32
DOCKED: USER    DPF = ligand_dock.biased.dpf
DOCKED: USER  
DOCKED: USER    Estimated Free Energy of Binding    =   -9.69 kcal/mol  [=(1)+(2)+(3)-(4)]
DOCKED: USER    Estimated Inhibition Constant, Ki   =   78.94 nM (nanomolar)  [Temperature = 298.15 K]
DOCKED: USER    
DOCKED: USER    (1) Final Intermolecular Energy     =  -12.37 kcal/mol
DOCKED: USER        vdW + Hbond + desolv Energy     =  -12.37 kcal/mol
DOCKED: USER        Electrostatic Energy            =   +0.00 kcal/mol
DOCKED: USER    (2) Final Total Internal Energy     =   -1.52 kcal/mol
DOCKED: USER    (3) Torsional Free Energy           =   +2.68 kcal/mol
DOCKED: USER    (4) Unbound System's Energy  [=(2)] =   -1.52 kcal/mol
DOCKED: USER    
DOCKED: USER    
DOCKED: USER    NEWDPF move ligand.pdbqt
DOCKED: USER    NEWDPF about 0.300000 0.400000 0.510000
DOCKED: USER    NEWDPF tran0 35.159193 14.264706 122.236690
DOCKED: USER    NEWDPF quaternion0 -0.164736 -0.786962 0.393963 -0.445361
DOCKED: USER    NEWDPF axisangle0 -0.183990 -0.878942 0.440010 -127.107181
DOCKED: USER    NEWDPF quat0 -0.183990 -0.878942 0.440010 -127.107181
DOCKED: USER    NEWDPF dihe0 179.70 0.86 -122.36 132.10 58.62 45.25 11.24 -161.96 -150.82 
DOCKED: USER  keepresnum = 1 
DOCKED: USER  
DOCKED: REMARK  Name = 
DOCKED: REMARK  9 active torsions:
DOCKED: REMARK  status: ('A' for Active; 'I' for Inactive)
DOCKED: REMARK    1  A    between atoms: O_1  and  N_2
DOCKED: REMARK    2  A    between atoms: C_3  and  C_4
DOCKED: REMARK    3  A    between atoms: C_4  and  C_5
DOCKED: REMARK    4  A    between atoms: C_5  and  C_6
DOCKED: REMARK    5  A    between atoms: C_6  and  C_7
DOCKED: REMARK    6  A    between atoms: C_7  and  C_8
DOCKED: REMARK    7  A    between atoms: C_8  and  C_9
DOCKED: REMARK    8  A    between atoms: C_9  and  C_10
DOCKED: REMARK    9  A    between atoms: N_11  and  O_12
DOCKED: REMARK                            x       y       z     vdW  Elec       q    Type
DOCKED: REMARK                         _______ _______ _______ _____ _____    ______ ____
DOCKED: USER                              x       y       z     vdW  Elec       q    Type
DOCKED: USER                           _______ _______ _______ _____ _____    ______ ____
DOCKED: ROOT
DOCKED: ATOM      1  C   UNL     1      36.614  14.414 123.132 -0.49 -0.00    +0.000 C 
DOCKED: ENDROOT
DOCKED: BRANCH   1   2
DOCKED: ATOM      2  C   UNL     1      35.272  14.340 123.869 -0.52 -0.00    +0.000 C 
DOCKED: BRANCH   2   3
DOCKED: ATOM      3  C   UNL     1      34.430  15.591 123.604 -0.53 -0.00    +0.000 C 
DOCKED: BRANCH   3   5
DOCKED: ATOM      4  N   UNL     1      33.822  17.685 124.908 -0.39 -0.00    +0.000 N 
DOCKED: ATOM      5  C   UNL     1      34.094  16.280 124.892 -0.51 -0.00    +0.000 C 
DOCKED: ATOM      6  O   UNL     1      34.012  15.611 125.956 -0.83 -0.00    +0.000 OA
DOCKED: ATOM      7  H   UNL     1      33.879  18.202 124.072 -0.02 -0.00    +0.000 HD
DOCKED: BRANCH   4   8
DOCKED: ATOM      8  O   UNL     1      33.490  18.309 126.063 -0.38 -0.00    +0.000 OA
DOCKED: ATOM      9  H   UNL     1      33.476  17.663 126.786 -0.01 -0.00    +0.000 HD
DOCKED: ENDBRANCH   4   8
DOCKED: ENDBRANCH   3   5
DOCKED: ENDBRANCH   2   3
DOCKED: ENDBRANCH   1   2
DOCKED: BRANCH   1  10
DOCKED: ATOM     10  C   UNL     1      37.336  13.059 123.163 -0.59 -0.00    +0.000 C 
DOCKED: BRANCH  10  11
DOCKED: ATOM     11  C   UNL     1      36.357  11.873 123.286 -0.70 -0.00    +0.000 C 
DOCKED: BRANCH  11  12
DOCKED: ATOM     12  C   UNL     1      36.119  11.136 121.958 -0.58 -0.00    +0.000 C 
DOCKED: BRANCH  12  13
DOCKED: ATOM     13  C   UNL     1      36.659   9.736 121.979 -0.67 -0.00    +0.000 C 
DOCKED: ATOM     14  N   UNL     1      36.688   8.989 123.198 -0.64 -0.00    +0.000 N 
DOCKED: ATOM     15  O   UNL     1      37.062   9.208 120.908 -2.74 -0.00    +0.000 OA
DOCKED: ATOM     16  H   UNL     1      36.369   9.403 124.032 -0.35 -0.00    +0.000 HD
DOCKED: BRANCH  14  17
DOCKED: ATOM     17  O   UNL     1      37.149   7.716 123.215 -2.30 -0.00    +0.000 OA
DOCKED: ATOM     18  H   UNL     1      37.435   7.464 122.323 -0.13 -0.00    +0.000 HD
DOCKED: ENDBRANCH  14  17
DOCKED: ENDBRANCH  12  13
DOCKED: ENDBRANCH  11  12
DOCKED: ENDBRANCH  10  11
DOCKED: ENDBRANCH   1  10
DOCKED: TORSDOF 9
DOCKED: TER
DOCKED: ENDMDL
________________________________________________________________________________


	BEGINNING GENETIC ALGORITHM DOCKING 33 of 100
Run: 33 Seed: 72768950 619583697 [ Run 33 of 100 GA/GALS ]
Beginning LAMARCKIAN GENETIC ALGORITHM (LGA), with a maximum of 2500000 energy evaluations.

Final-Value: -13.180


	FINAL GENETIC ALGORITHM DOCKED STATE
	_______________________________________________


Detailed state:  trans 26.407 5.158 115.388 quatxyzw -0.574543 0.786507 0.210871 -0.082710 center 0.300 0.400 0.510 ntor 9 172.6303 17.2550 -142.8486 -133.9269 -105.8676 -170.6350 -144.7065 -175.5293 -111.7758
State:	 26.407   5.158 115.388  -0.577  0.789  0.212 -170.511    172.63   17.26 -142.85 -133.93 -105.87 -170.64 -144.71 -175.53 -111.78

DOCKED: MODEL       33
DOCKED: USER    Run = 33
DOCKED: USER    DPF = ligand_dock.biased.dpf
DOCKED: USER  
DOCKED: USER    Estimated Free Energy of Binding    =   -8.87 kcal/mol  [=(1)+(2)+(3)-(4)]
DOCKED: USER    Estimated Inhibition Constant, Ki   =  315.99 nM (nanomolar)  [Temperature = 298.15 K]
DOCKED: USER    
DOCKED: USER    (1) Final Intermolecular Energy     =  -11.55 kcal/mol
DOCKED: USER        vdW + Hbond + desolv Energy     =  -11.55 kcal/mol
DOCKED: USER        Electrostatic Energy            =   +0.00 kcal/mol
DOCKED: USER    (2) Final Total Internal Energy     =   -1.63 kcal/mol
DOCKED: USER    (3) Torsional Free Energy           =   +2.68 kcal/mol
DOCKED: USER    (4) Unbound System's Energy  [=(2)] =   -1.63 kcal/mol
DOCKED: USER    
DOCKED: USER    
DOCKED: USER    NEWDPF move ligand.pdbqt
DOCKED: USER    NEWDPF about 0.300000 0.400000 0.510000
DOCKED: USER    NEWDPF tran0 26.406507 5.158136 115.388077
DOCKED: USER    NEWDPF quaternion0 -0.574543 0.786507 0.210871 -0.082710
DOCKED: USER    NEWDPF axisangle0 -0.576518 0.789211 0.211596 -170.511284
DOCKED: USER    NEWDPF quat0 -0.576518 0.789211 0.211596 -170.511284
DOCKED: USER    NEWDPF dihe0 172.63 17.26 -142.85 -133.93 -105.87 -170.64 -144.71 -175.53 -111.78 
DOCKED: USER  keepresnum = 1 
DOCKED: USER  
DOCKED: REMARK  Name = 
DOCKED: REMARK  9 active torsions:
DOCKED: REMARK  status: ('A' for Active; 'I' for Inactive)
DOCKED: REMARK    1  A    between atoms: O_1  and  N_2
DOCKED: REMARK    2  A    between atoms: C_3  and  C_4
DOCKED: REMARK    3  A    between atoms: C_4  and  C_5
DOCKED: REMARK    4  A    between atoms: C_5  and  C_6
DOCKED: REMARK    5  A    between atoms: C_6  and  C_7
DOCKED: REMARK    6  A    between atoms: C_7  and  C_8
DOCKED: REMARK    7  A    between atoms: C_8  and  C_9
DOCKED: REMARK    8  A    between atoms: C_9  and  C_10
DOCKED: REMARK    9  A    between atoms: N_11  and  O_12
DOCKED: REMARK                            x       y       z     vdW  Elec       q    Type
DOCKED: REMARK                         _______ _______ _______ _____ _____    ______ ____
DOCKED: USER                              x       y       z     vdW  Elec       q    Type
DOCKED: USER                           _______ _______ _______ _____ _____    ______ ____
DOCKED: ROOT
DOCKED: ATOM      1  C   UNL     1      27.324   4.489 116.673 -0.61 -0.00    +0.000 C 
DOCKED: ENDROOT
DOCKED: BRANCH   1   2
DOCKED: ATOM      2  C   UNL     1      27.315   3.799 115.304 -0.64 -0.00    +0.000 C 
DOCKED: BRANCH   2   3
DOCKED: ATOM      3  C   UNL     1      28.725   3.358 114.902 -0.49 +0.00    +0.000 C 
DOCKED: BRANCH   3   5
DOCKED: ATOM      4  N   UNL     1      29.758   1.042 115.053 -0.76 +0.00    +0.000 N 
DOCKED: ATOM      5  C   UNL     1      29.152   2.164 115.701 -0.65 +0.00    +0.000 C 
DOCKED: ATOM      6  O   UNL     1      29.011   2.167 116.953 -1.22 +0.00    +0.000 OA
DOCKED: ATOM      7  H   UNL     1      29.875   1.049 114.075 -0.06 +0.00    +0.000 HD
DOCKED: BRANCH   4   8
DOCKED: ATOM      8  O   UNL     1      30.172  -0.028 115.772 -0.77 -0.00    +0.000 OA
DOCKED: ATOM      9  H   UNL     1      30.093   0.169 116.718 -0.27 -0.00    +0.000 HD
DOCKED: ENDBRANCH   4   8
DOCKED: ENDBRANCH   3   5
DOCKED: ENDBRANCH   2   3
DOCKED: ENDBRANCH   1   2
DOCKED: BRANCH   1  10
DOCKED: ATOM     10  C   UNL     1      28.606   5.312 116.868 -0.52 +0.00    +0.000 C 
DOCKED: BRANCH  10  11
DOCKED: ATOM     11  C   UNL     1      28.691   6.508 115.897 -0.60 -0.00    +0.000 C 
DOCKED: BRANCH  11  12
DOCKED: ATOM     12  C   UNL     1      28.034   7.786 116.441 -0.62 -0.00    +0.000 C 
DOCKED: BRANCH  12  13
DOCKED: ATOM     13  C   UNL     1      26.684   8.035 115.835 -0.79 -0.00    +0.000 C 
DOCKED: ATOM     14  N   UNL     1      25.538   8.214 116.670 -0.66 -0.00    +0.000 N 
DOCKED: ATOM     15  O   UNL     1      26.569   8.116 114.582 -1.27 -0.00    +0.000 OA
DOCKED: ATOM     16  H   UNL     1      25.632   8.154 117.648 -0.21 -0.00    +0.000 HD
DOCKED: BRANCH  14  17
DOCKED: ATOM     17  O   UNL     1      24.323   8.467 116.128 -1.20 -0.00    +0.000 OA
DOCKED: ATOM     18  H   UNL     1      24.333   8.229 115.187 -0.20 -0.00    +0.000 HD
DOCKED: ENDBRANCH  14  17
DOCKED: ENDBRANCH  12  13
DOCKED: ENDBRANCH  11  12
DOCKED: ENDBRANCH  10  11
DOCKED: ENDBRANCH   1  10
DOCKED: TORSDOF 9
DOCKED: TER
DOCKED: ENDMDL
________________________________________________________________________________


	BEGINNING GENETIC ALGORITHM DOCKING 34 of 100
Run: 34 Seed: 1214774806 384626384 [ Run 34 of 100 GA/GALS ]
Beginning LAMARCKIAN GENETIC ALGORITHM (LGA), with a maximum of 2500000 energy evaluations.

Final-Value: -14.437


	FINAL GENETIC ALGORITHM DOCKED STATE
	_______________________________________________


Detailed state:  trans 38.402 13.859 123.435 quatxyzw 0.571642 0.637964 0.067768 -0.511503 center 0.300 0.400 0.510 ntor 9 178.0487 4.6812 -55.1098 96.2578 -76.3873 147.4632 9.5115 4.9962 -108.6839
State:	 38.402  13.859 123.435   0.665  0.742  0.079 -118.472    178.05    4.68  -55.11   96.26  -76.39  147.46    9.51    5.00 -108.68

DOCKED: MODEL       34
DOCKED: USER    Run = 34
DOCKED: USER    DPF = ligand_dock.biased.dpf
DOCKED: USER  
DOCKED: USER    Estimated Free Energy of Binding    =  -10.12 kcal/mol  [=(1)+(2)+(3)-(4)]
DOCKED: USER    Estimated Inhibition Constant, Ki   =   37.97 nM (nanomolar)  [Temperature = 298.15 K]
DOCKED: USER    
DOCKED: USER    (1) Final Intermolecular Energy     =  -12.81 kcal/mol
DOCKED: USER        vdW + Hbond + desolv Energy     =  -12.81 kcal/mol
DOCKED: USER        Electrostatic Energy            =   +0.00 kcal/mol
DOCKED: USER    (2) Final Total Internal Energy     =   -1.63 kcal/mol
DOCKED: USER    (3) Torsional Free Energy           =   +2.68 kcal/mol
DOCKED: USER    (4) Unbound System's Energy  [=(2)] =   -1.63 kcal/mol
DOCKED: USER    
DOCKED: USER    
DOCKED: USER    NEWDPF move ligand.pdbqt
DOCKED: USER    NEWDPF about 0.300000 0.400000 0.510000
DOCKED: USER    NEWDPF tran0 38.402059 13.859488 123.435198
DOCKED: USER    NEWDPF quaternion0 0.571642 0.637964 0.067768 -0.511503
DOCKED: USER    NEWDPF axisangle0 0.665255 0.742439 0.078866 -118.471943
DOCKED: USER    NEWDPF quat0 0.665255 0.742439 0.078866 -118.471943
DOCKED: USER    NEWDPF dihe0 178.05 4.68 -55.11 96.26 -76.39 147.46 9.51 5.00 -108.68 
DOCKED: USER  keepresnum = 1 
DOCKED: USER  
DOCKED: REMARK  Name = 
DOCKED: REMARK  9 active torsions:
DOCKED: REMARK  status: ('A' for Active; 'I' for Inactive)
DOCKED: REMARK    1  A    between atoms: O_1  and  N_2
DOCKED: REMARK    2  A    between atoms: C_3  and  C_4
DOCKED: REMARK    3  A    between atoms: C_4  and  C_5
DOCKED: REMARK    4  A    between atoms: C_5  and  C_6
DOCKED: REMARK    5  A    between atoms: C_6  and  C_7
DOCKED: REMARK    6  A    between atoms: C_7  and  C_8
DOCKED: REMARK    7  A    between atoms: C_8  and  C_9
DOCKED: REMARK    8  A    between atoms: C_9  and  C_10
DOCKED: REMARK    9  A    between atoms: N_11  and  O_12
DOCKED: REMARK                            x       y       z     vdW  Elec       q    Type
DOCKED: REMARK                         _______ _______ _______ _____ _____    ______ ____
DOCKED: USER                              x       y       z     vdW  Elec       q    Type
DOCKED: USER                           _______ _______ _______ _____ _____    ______ ____
DOCKED: ROOT
DOCKED: ATOM      1  C   UNL     1      36.763  14.227 123.782 -0.43 -0.00    +0.000 C 
DOCKED: ENDROOT
DOCKED: BRANCH   1   2
DOCKED: ATOM      2  C   UNL     1      37.320  14.484 122.377 -0.43 -0.00    +0.000 C 
DOCKED: BRANCH   2   3
DOCKED: ATOM      3  C   UNL     1      38.322  15.641 122.387 -0.32 -0.00    +0.000 C 
DOCKED: BRANCH   3   5
DOCKED: ATOM      4  N   UNL     1      40.754  15.707 123.119 -0.34 -0.00    +0.000 N 
DOCKED: ATOM      5  C   UNL     1      39.726  15.121 122.315 -0.41 -0.00    +0.000 C 
DOCKED: ATOM      6  O   UNL     1      39.991  14.138 121.573 -0.94 -0.00    +0.000 OA
DOCKED: ATOM      7  H   UNL     1      40.540  16.470 123.704 -0.02 -0.00    +0.000 HD
DOCKED: BRANCH   4   8
DOCKED: ATOM      8  O   UNL     1      42.018  15.224 123.081 -1.10 +0.00    +0.000 OA
DOCKED: ATOM      9  H   UNL     1      42.054  14.461 122.483 -0.05 -0.00    +0.000 HD
DOCKED: ENDBRANCH   4   8
DOCKED: ENDBRANCH   3   5
DOCKED: ENDBRANCH   2   3
DOCKED: ENDBRANCH   1   2
DOCKED: BRANCH   1  10
DOCKED: ATOM     10  C   UNL     1      35.946  12.926 123.822 -0.60 -0.00    +0.000 C 
DOCKED: BRANCH  10  11
DOCKED: ATOM     11  C   UNL     1      36.828  11.672 123.656 -0.69 -0.00    +0.000 C 
DOCKED: BRANCH  11  12
DOCKED: ATOM     12  C   UNL     1      36.992  11.228 122.193 -0.58 -0.00    +0.000 C 
DOCKED: BRANCH  12  13
DOCKED: ATOM     13  C   UNL     1      37.047   9.736 122.053 -0.59 -0.00    +0.000 C 
DOCKED: ATOM     14  N   UNL     1      37.045   8.899 123.213 -0.66 -0.00    +0.000 N 
DOCKED: ATOM     15  O   UNL     1      37.065   9.217 120.904 -2.74 -0.00    +0.000 OA
DOCKED: ATOM     16  H   UNL     1      37.028   9.307 124.109 -0.55 -0.00    +0.000 HD
DOCKED: BRANCH  14  17
DOCKED: ATOM     17  O   UNL     1      37.067   7.550 123.090 -2.27 -0.00    +0.000 OA
DOCKED: ATOM     18  H   UNL     1      37.157   7.313 122.154 -0.09 -0.00    +0.000 HD
DOCKED: ENDBRANCH  14  17
DOCKED: ENDBRANCH  12  13
DOCKED: ENDBRANCH  11  12
DOCKED: ENDBRANCH  10  11
DOCKED: ENDBRANCH   1  10
DOCKED: TORSDOF 9
DOCKED: TER
DOCKED: ENDMDL
________________________________________________________________________________


	BEGINNING GENETIC ALGORITHM DOCKING 35 of 100
Run: 35 Seed: 173393305 1849322762 [ Run 35 of 100 GA/GALS ]
Beginning LAMARCKIAN GENETIC ALGORITHM (LGA), with a maximum of 2500000 energy evaluations.

Final-Value: -12.680


	FINAL GENETIC ALGORITHM DOCKED STATE
	_______________________________________________


Detailed state:  trans 35.989 12.046 122.107 quatxyzw 0.375091 -0.614238 0.331594 -0.609971 center 0.300 0.400 0.510 ntor 9 179.8834 -0.4504 -179.9355 127.2199 -64.2186 131.7013 92.0177 -177.2198 -58.4312
State:	 35.989  12.046 122.107   0.473 -0.775  0.418 -104.825    179.88   -0.45 -179.94  127.22  -64.22  131.70   92.02 -177.22  -58.43

DOCKED: MODEL       35
DOCKED: USER    Run = 35
DOCKED: USER    DPF = ligand_dock.biased.dpf
DOCKED: USER  
DOCKED: USER    Estimated Free Energy of Binding    =   -8.32 kcal/mol  [=(1)+(2)+(3)-(4)]
DOCKED: USER    Estimated Inhibition Constant, Ki   =  796.48 nM (nanomolar)  [Temperature = 298.15 K]
DOCKED: USER    
DOCKED: USER    (1) Final Intermolecular Energy     =  -11.00 kcal/mol
DOCKED: USER        vdW + Hbond + desolv Energy     =  -11.00 kcal/mol
DOCKED: USER        Electrostatic Energy            =   +0.00 kcal/mol
DOCKED: USER    (2) Final Total Internal Energy     =   -1.67 kcal/mol
DOCKED: USER    (3) Torsional Free Energy           =   +2.68 kcal/mol
DOCKED: USER    (4) Unbound System's Energy  [=(2)] =   -1.67 kcal/mol
DOCKED: USER    
DOCKED: USER    
DOCKED: USER    NEWDPF move ligand.pdbqt
DOCKED: USER    NEWDPF about 0.300000 0.400000 0.510000
DOCKED: USER    NEWDPF tran0 35.988559 12.045523 122.106776
DOCKED: USER    NEWDPF quaternion0 0.375091 -0.614238 0.331594 -0.609971
DOCKED: USER    NEWDPF axisangle0 0.473346 -0.775138 0.418456 -104.825243
DOCKED: USER    NEWDPF quat0 0.473346 -0.775138 0.418456 -104.825243
DOCKED: USER    NEWDPF dihe0 179.88 -0.45 -179.94 127.22 -64.22 131.70 92.02 -177.22 -58.43 
DOCKED: USER  keepresnum = 1 
DOCKED: USER  
DOCKED: REMARK  Name = 
DOCKED: REMARK  9 active torsions:
DOCKED: REMARK  status: ('A' for Active; 'I' for Inactive)
DOCKED: REMARK    1  A    between atoms: O_1  and  N_2
DOCKED: REMARK    2  A    between atoms: C_3  and  C_4
DOCKED: REMARK    3  A    between atoms: C_4  and  C_5
DOCKED: REMARK    4  A    between atoms: C_5  and  C_6
DOCKED: REMARK    5  A    between atoms: C_6  and  C_7
DOCKED: REMARK    6  A    between atoms: C_7  and  C_8
DOCKED: REMARK    7  A    between atoms: C_8  and  C_9
DOCKED: REMARK    8  A    between atoms: C_9  and  C_10
DOCKED: REMARK    9  A    between atoms: N_11  and  O_12
DOCKED: REMARK                            x       y       z     vdW  Elec       q    Type
DOCKED: REMARK                         _______ _______ _______ _____ _____    ______ ____
DOCKED: USER                              x       y       z     vdW  Elec       q    Type
DOCKED: USER                           _______ _______ _______ _____ _____    ______ ____
DOCKED: ROOT
DOCKED: ATOM      1  C   UNL     1      37.383  13.029 121.930 -0.51 -0.00    +0.000 C 
DOCKED: ENDROOT
DOCKED: BRANCH   1   2
DOCKED: ATOM      2  C   UNL     1      37.366  11.914 122.982 -0.51 -0.00    +0.000 C 
DOCKED: BRANCH   2   3
DOCKED: ATOM      3  C   UNL     1      36.184  10.967 122.760 -0.69 -0.00    +0.000 C 
DOCKED: BRANCH   3   5
DOCKED: ATOM      4  N   UNL     1      36.787   8.587 123.415 -0.65 -0.00    +0.000 N 
DOCKED: ATOM      5  C   UNL     1      36.669   9.593 122.405 -0.71 -0.00    +0.000 C 
DOCKED: ATOM      6  O   UNL     1      36.936   9.315 121.206 -2.62 -0.00    +0.000 OA
DOCKED: ATOM      7  H   UNL     1      36.569   8.807 124.350 -0.36 -0.00    +0.000 HD
DOCKED: BRANCH   4   8
DOCKED: ATOM      8  O   UNL     1      37.197   7.337 123.097 -2.08 -0.00    +0.000 OA
DOCKED: ATOM      9  H   UNL     1      37.370   7.286 122.144 -0.13 -0.00    +0.000 HD
DOCKED: ENDBRANCH   4   8
DOCKED: ENDBRANCH   3   5
DOCKED: ENDBRANCH   2   3
DOCKED: ENDBRANCH   1   2
DOCKED: BRANCH   1  10
DOCKED: ATOM     10  C   UNL     1      38.158  12.594 120.678 -0.41 -0.00    +0.000 C 
DOCKED: BRANCH  10  11
DOCKED: ATOM     11  C   UNL     1      37.280  12.600 119.409 -0.41 -0.00    +0.000 C 
DOCKED: BRANCH  11  12
DOCKED: ATOM     12  C   UNL     1      37.234  13.964 118.702 -0.38 -0.00    +0.000 C 
DOCKED: BRANCH  12  13
DOCKED: ATOM     13  C   UNL     1      36.049  14.095 117.793 -0.38 -0.00    +0.000 C 
DOCKED: ATOM     14  N   UNL     1      34.858  13.344 118.043 -0.12 -0.00    +0.000 N 
DOCKED: ATOM     15  O   UNL     1      36.095  14.894 116.819 -0.25 -0.00    +0.000 OA
DOCKED: ATOM     16  H   UNL     1      34.823  12.723 118.807 -0.39 -0.00    +0.000 HD
DOCKED: BRANCH  14  17
DOCKED: ATOM     17  O   UNL     1      33.775  13.480 117.240 -0.38 -0.00    +0.000 OA
DOCKED: ATOM     18  H   UNL     1      33.968  14.129 116.546 -0.02 -0.00    +0.000 HD
DOCKED: ENDBRANCH  14  17
DOCKED: ENDBRANCH  12  13
DOCKED: ENDBRANCH  11  12
DOCKED: ENDBRANCH  10  11
DOCKED: ENDBRANCH   1  10
DOCKED: TORSDOF 9
DOCKED: TER
DOCKED: ENDMDL
________________________________________________________________________________


	BEGINNING GENETIC ALGORITHM DOCKING 36 of 100
Run: 36 Seed: 1797202818 1426464757 [ Run 36 of 100 GA/GALS ]
Beginning LAMARCKIAN GENETIC ALGORITHM (LGA), with a maximum of 2500000 energy evaluations.

Final-Value: -13.945


	FINAL GENETIC ALGORITHM DOCKED STATE
	_______________________________________________


Detailed state:  trans 35.159 12.996 123.104 quatxyzw -0.417740 0.845587 0.205697 0.261085 center 0.300 0.400 0.510 ntor 9 180.0000 -4.9571 61.7938 -149.0556 -67.3726 -116.0884 -170.1378 -100.7574 -95.5014
State:	 35.159  12.996 123.104  -0.433  0.876  0.213 149.731    180.00   -4.96   61.79 -149.06  -67.37 -116.09 -170.14 -100.76  -95.50

DOCKED: MODEL       36
DOCKED: USER    Run = 36
DOCKED: USER    DPF = ligand_dock.biased.dpf
DOCKED: USER  
DOCKED: USER    Estimated Free Energy of Binding    =   -9.59 kcal/mol  [=(1)+(2)+(3)-(4)]
DOCKED: USER    Estimated Inhibition Constant, Ki   =   94.16 nM (nanomolar)  [Temperature = 298.15 K]
DOCKED: USER    
DOCKED: USER    (1) Final Intermolecular Energy     =  -12.27 kcal/mol
DOCKED: USER        vdW + Hbond + desolv Energy     =  -12.27 kcal/mol
DOCKED: USER        Electrostatic Energy            =   +0.00 kcal/mol
DOCKED: USER    (2) Final Total Internal Energy     =   -1.67 kcal/mol
DOCKED: USER    (3) Torsional Free Energy           =   +2.68 kcal/mol
DOCKED: USER    (4) Unbound System's Energy  [=(2)] =   -1.67 kcal/mol
DOCKED: USER    
DOCKED: USER    
DOCKED: USER    NEWDPF move ligand.pdbqt
DOCKED: USER    NEWDPF about 0.300000 0.400000 0.510000
DOCKED: USER    NEWDPF tran0 35.158822 12.995944 123.103590
DOCKED: USER    NEWDPF quaternion0 -0.417740 0.845587 0.205697 0.261085
DOCKED: USER    NEWDPF axisangle0 -0.432749 0.875969 0.213087 149.731043
DOCKED: USER    NEWDPF quat0 -0.432749 0.875969 0.213087 149.731043
DOCKED: USER    NEWDPF dihe0 180.00 -4.96 61.79 -149.06 -67.37 -116.09 -170.14 -100.76 -95.50 
DOCKED: USER  keepresnum = 1 
DOCKED: USER  
DOCKED: REMARK  Name = 
DOCKED: REMARK  9 active torsions:
DOCKED: REMARK  status: ('A' for Active; 'I' for Inactive)
DOCKED: REMARK    1  A    between atoms: O_1  and  N_2
DOCKED: REMARK    2  A    between atoms: C_3  and  C_4
DOCKED: REMARK    3  A    between atoms: C_4  and  C_5
DOCKED: REMARK    4  A    between atoms: C_5  and  C_6
DOCKED: REMARK    5  A    between atoms: C_6  and  C_7
DOCKED: REMARK    6  A    between atoms: C_7  and  C_8
DOCKED: REMARK    7  A    between atoms: C_8  and  C_9
DOCKED: REMARK    8  A    between atoms: C_9  and  C_10
DOCKED: REMARK    9  A    between atoms: N_11  and  O_12
DOCKED: REMARK                            x       y       z     vdW  Elec       q    Type
DOCKED: REMARK                         _______ _______ _______ _____ _____    ______ ____
DOCKED: USER                              x       y       z     vdW  Elec       q    Type
DOCKED: USER                           _______ _______ _______ _____ _____    ______ ____
DOCKED: ROOT
DOCKED: ATOM      1  C   UNL     1      36.640  12.545 123.842 -0.62 -0.00    +0.000 C 
DOCKED: ENDROOT
DOCKED: BRANCH   1   2
DOCKED: ATOM      2  C   UNL     1      35.787  11.484 123.136 -0.66 -0.00    +0.000 C 
DOCKED: BRANCH   2   3
DOCKED: ATOM      3  C   UNL     1      36.470  10.990 121.858 -0.56 -0.00    +0.000 C 
DOCKED: BRANCH   3   5
DOCKED: ATOM      4  N   UNL     1      37.078   8.995 123.309 -0.62 -0.00    +0.000 N 
DOCKED: ATOM      5  C   UNL     1      36.895   9.561 122.008 -0.65 -0.00    +0.000 C 
DOCKED: ATOM      6  O   UNL     1      37.052   8.845 120.983 -2.70 -0.00    +0.000 OA
DOCKED: ATOM      7  H   UNL     1      36.946   9.556 124.107 -0.53 -0.00    +0.000 HD
DOCKED: BRANCH   4   8
DOCKED: ATOM      8  O   UNL     1      37.434   7.697 123.452 -2.17 -0.00    +0.000 OA
DOCKED: ATOM      9  H   UNL     1      37.525   7.289 122.577 -0.22 -0.00    +0.000 HD
DOCKED: ENDBRANCH   4   8
DOCKED: ENDBRANCH   3   5
DOCKED: ENDBRANCH   2   3
DOCKED: ENDBRANCH   1   2
DOCKED: BRANCH   1  10
DOCKED: ATOM     10  C   UNL     1      37.810  12.992 122.952 -0.48 -0.00    +0.000 C 
DOCKED: BRANCH  10  11
DOCKED: ATOM     11  C   UNL     1      37.392  14.062 121.923 -0.43 -0.00    +0.000 C 
DOCKED: BRANCH  11  12
DOCKED: ATOM     12  C   UNL     1      38.581  14.813 121.303 -0.34 -0.00    +0.000 C 
DOCKED: BRANCH  12  13
DOCKED: ATOM     13  C   UNL     1      39.558  15.286 122.338 -0.39 -0.00    +0.000 C 
DOCKED: ATOM     14  N   UNL     1      40.853  14.688 122.438 -0.49 -0.00    +0.000 N 
DOCKED: ATOM     15  O   UNL     1      39.244  16.237 123.103 -0.31 -0.00    +0.000 OA
DOCKED: ATOM     16  H   UNL     1      41.097  13.948 121.836 -0.03 +0.00    +0.000 HD
DOCKED: BRANCH  14  17
DOCKED: ATOM     17  O   UNL     1      41.748  15.131 123.353 -1.03 +0.00    +0.000 OA
DOCKED: ATOM     18  H   UNL     1      41.387  15.907 123.809 -0.04 +0.00    +0.000 HD
DOCKED: ENDBRANCH  14  17
DOCKED: ENDBRANCH  12  13
DOCKED: ENDBRANCH  11  12
DOCKED: ENDBRANCH  10  11
DOCKED: ENDBRANCH   1  10
DOCKED: TORSDOF 9
DOCKED: TER
DOCKED: ENDMDL
________________________________________________________________________________


	BEGINNING GENETIC ALGORITHM DOCKING 37 of 100
Run: 37 Seed: 991863676 1994159673 [ Run 37 of 100 GA/GALS ]
Beginning LAMARCKIAN GENETIC ALGORITHM (LGA), with a maximum of 2500000 energy evaluations.

Final-Value: -14.151


	FINAL GENETIC ALGORITHM DOCKED STATE
	_______________________________________________


Detailed state:  trans 37.324 15.168 124.333 quatxyzw -0.213366 -0.678304 -0.557863 0.427980 center 0.300 0.400 0.510 ntor 9 175.6197 -7.4634 179.8592 -128.9920 -175.8165 -170.2352 -17.5479 0.6530 97.2963
State:	 37.324  15.168 124.333  -0.236 -0.751 -0.617 129.321    175.62   -7.46  179.86 -128.99 -175.82 -170.24  -17.55    0.65   97.30

DOCKED: MODEL       37
DOCKED: USER    Run = 37
DOCKED: USER    DPF = ligand_dock.biased.dpf
DOCKED: USER  
DOCKED: USER    Estimated Free Energy of Binding    =   -9.86 kcal/mol  [=(1)+(2)+(3)-(4)]
DOCKED: USER    Estimated Inhibition Constant, Ki   =   59.19 nM (nanomolar)  [Temperature = 298.15 K]
DOCKED: USER    
DOCKED: USER    (1) Final Intermolecular Energy     =  -12.55 kcal/mol
DOCKED: USER        vdW + Hbond + desolv Energy     =  -12.55 kcal/mol
DOCKED: USER        Electrostatic Energy            =   +0.00 kcal/mol
DOCKED: USER    (2) Final Total Internal Energy     =   -1.61 kcal/mol
DOCKED: USER    (3) Torsional Free Energy           =   +2.68 kcal/mol
DOCKED: USER    (4) Unbound System's Energy  [=(2)] =   -1.61 kcal/mol
DOCKED: USER    
DOCKED: USER    
DOCKED: USER    NEWDPF move ligand.pdbqt
DOCKED: USER    NEWDPF about 0.300000 0.400000 0.510000
DOCKED: USER    NEWDPF tran0 37.323729 15.168118 124.332630
DOCKED: USER    NEWDPF quaternion0 -0.213366 -0.678304 -0.557863 0.427980
DOCKED: USER    NEWDPF axisangle0 -0.236079 -0.750513 -0.617250 129.321076
DOCKED: USER    NEWDPF quat0 -0.236079 -0.750513 -0.617250 129.321076
DOCKED: USER    NEWDPF dihe0 175.62 -7.46 179.86 -128.99 -175.82 -170.24 -17.55 0.65 97.30 
DOCKED: USER  keepresnum = 1 
DOCKED: USER  
DOCKED: REMARK  Name = 
DOCKED: REMARK  9 active torsions:
DOCKED: REMARK  status: ('A' for Active; 'I' for Inactive)
DOCKED: REMARK    1  A    between atoms: O_1  and  N_2
DOCKED: REMARK    2  A    between atoms: C_3  and  C_4
DOCKED: REMARK    3  A    between atoms: C_4  and  C_5
DOCKED: REMARK    4  A    between atoms: C_5  and  C_6
DOCKED: REMARK    5  A    between atoms: C_6  and  C_7
DOCKED: REMARK    6  A    between atoms: C_7  and  C_8
DOCKED: REMARK    7  A    between atoms: C_8  and  C_9
DOCKED: REMARK    8  A    between atoms: C_9  and  C_10
DOCKED: REMARK    9  A    between atoms: N_11  and  O_12
DOCKED: REMARK                            x       y       z     vdW  Elec       q    Type
DOCKED: REMARK                         _______ _______ _______ _____ _____    ______ ____
DOCKED: USER                              x       y       z     vdW  Elec       q    Type
DOCKED: USER                           _______ _______ _______ _____ _____    ______ ____
DOCKED: ROOT
DOCKED: ATOM      1  C   UNL     1      36.304  13.925 123.736 -0.54 -0.00    +0.000 C 
DOCKED: ENDROOT
DOCKED: BRANCH   1   2
DOCKED: ATOM      2  C   UNL     1      36.558  15.174 122.885 -0.41 -0.00    +0.000 C 
DOCKED: BRANCH   2   3
DOCKED: ATOM      3  C   UNL     1      35.432  16.197 123.060 -0.40 -0.00    +0.000 C 
DOCKED: BRANCH   3   5
DOCKED: ATOM      4  N   UNL     1      34.544  16.170 125.440 -0.41 -0.00    +0.000 N 
DOCKED: ATOM      5  C   UNL     1      34.446  15.723 124.085 -0.59 -0.00    +0.000 C 
DOCKED: ATOM      6  O   UNL     1      33.504  14.960 123.741 -0.64 -0.00    +0.000 OA
DOCKED: ATOM      7  H   UNL     1      35.276  16.773 125.703 -0.02 -0.00    +0.000 HD
DOCKED: BRANCH   4   8
DOCKED: ATOM      8  O   UNL     1      33.640  15.768 126.365 -0.98 -0.00    +0.000 OA
DOCKED: ATOM      9  H   UNL     1      32.952  15.237 125.935 -0.18 -0.00    +0.000 HD
DOCKED: ENDBRANCH   4   8
DOCKED: ENDBRANCH   3   5
DOCKED: ENDBRANCH   2   3
DOCKED: ENDBRANCH   1   2
DOCKED: BRANCH   1  10
DOCKED: ATOM     10  C   UNL     1      37.164  12.746 123.255 -0.62 -0.00    +0.000 C 
DOCKED: BRANCH  10  11
DOCKED: ATOM     11  C   UNL     1      36.508  11.974 122.092 -0.58 -0.00    +0.000 C 
DOCKED: BRANCH  11  12
DOCKED: ATOM     12  C   UNL     1      35.704  10.746 122.548 -0.66 -0.00    +0.000 C 
DOCKED: BRANCH  12  13
DOCKED: ATOM     13  C   UNL     1      36.449   9.463 122.328 -0.71 -0.00    +0.000 C 
DOCKED: ATOM     14  N   UNL     1      36.572   8.508 123.385 -0.65 -0.00    +0.000 N 
DOCKED: ATOM     15  O   UNL     1      36.944   9.216 121.195 -2.71 -0.00    +0.000 OA
DOCKED: ATOM     16  H   UNL     1      36.182   8.702 124.267 -0.24 -0.00    +0.000 HD
DOCKED: BRANCH  14  17
DOCKED: ATOM     17  O   UNL     1      37.220   7.335 123.181 -2.06 -0.00    +0.000 OA
DOCKED: ATOM     18  H   UNL     1      37.439   7.246 122.241 -0.17 -0.00    +0.000 HD
DOCKED: ENDBRANCH  14  17
DOCKED: ENDBRANCH  12  13
DOCKED: ENDBRANCH  11  12
DOCKED: ENDBRANCH  10  11
DOCKED: ENDBRANCH   1  10
DOCKED: TORSDOF 9
DOCKED: TER
DOCKED: ENDMDL
________________________________________________________________________________


	BEGINNING GENETIC ALGORITHM DOCKING 38 of 100
Run: 38 Seed: 1583136982 678505599 [ Run 38 of 100 GA/GALS ]
Beginning LAMARCKIAN GENETIC ALGORITHM (LGA), with a maximum of 2500000 energy evaluations.

Final-Value: -14.064


	FINAL GENETIC ALGORITHM DOCKED STATE
	_______________________________________________


Detailed state:  trans 35.748 13.415 121.802 quatxyzw -0.515862 0.846968 0.128575 -0.000040 center 0.300 0.400 0.510 ntor 9 176.5756 6.3926 -148.3753 -42.6379 59.6835 -12.2387 -35.4326 -120.3114 -147.1253
State:	 35.748  13.415 121.802  -0.516  0.847  0.129 -179.995    176.58    6.39 -148.38  -42.64   59.68  -12.24  -35.43 -120.31 -147.13

DOCKED: MODEL       38
DOCKED: USER    Run = 38
DOCKED: USER    DPF = ligand_dock.biased.dpf
DOCKED: USER  
DOCKED: USER    Estimated Free Energy of Binding    =   -9.82 kcal/mol  [=(1)+(2)+(3)-(4)]
DOCKED: USER    Estimated Inhibition Constant, Ki   =   63.68 nM (nanomolar)  [Temperature = 298.15 K]
DOCKED: USER    
DOCKED: USER    (1) Final Intermolecular Energy     =  -12.50 kcal/mol
DOCKED: USER        vdW + Hbond + desolv Energy     =  -12.50 kcal/mol
DOCKED: USER        Electrostatic Energy            =   +0.00 kcal/mol
DOCKED: USER    (2) Final Total Internal Energy     =   -1.56 kcal/mol
DOCKED: USER    (3) Torsional Free Energy           =   +2.68 kcal/mol
DOCKED: USER    (4) Unbound System's Energy  [=(2)] =   -1.56 kcal/mol
DOCKED: USER    
DOCKED: USER    
DOCKED: USER    NEWDPF move ligand.pdbqt
DOCKED: USER    NEWDPF about 0.300000 0.400000 0.510000
DOCKED: USER    NEWDPF tran0 35.747611 13.414993 121.802487
DOCKED: USER    NEWDPF quaternion0 -0.515862 0.846968 0.128575 -0.000040
DOCKED: USER    NEWDPF axisangle0 -0.515862 0.846968 0.128575 -179.995465
DOCKED: USER    NEWDPF quat0 -0.515862 0.846968 0.128575 -179.995465
DOCKED: USER    NEWDPF dihe0 176.58 6.39 -148.38 -42.64 59.68 -12.24 -35.43 -120.31 -147.13 
DOCKED: USER  keepresnum = 1 
DOCKED: USER  
DOCKED: REMARK  Name = 
DOCKED: REMARK  9 active torsions:
DOCKED: REMARK  status: ('A' for Active; 'I' for Inactive)
DOCKED: REMARK    1  A    between atoms: O_1  and  N_2
DOCKED: REMARK    2  A    between atoms: C_3  and  C_4
DOCKED: REMARK    3  A    between atoms: C_4  and  C_5
DOCKED: REMARK    4  A    between atoms: C_5  and  C_6
DOCKED: REMARK    5  A    between atoms: C_6  and  C_7
DOCKED: REMARK    6  A    between atoms: C_7  and  C_8
DOCKED: REMARK    7  A    between atoms: C_8  and  C_9
DOCKED: REMARK    8  A    between atoms: C_9  and  C_10
DOCKED: REMARK    9  A    between atoms: N_11  and  O_12
DOCKED: REMARK                            x       y       z     vdW  Elec       q    Type
DOCKED: REMARK                         _______ _______ _______ _____ _____    ______ ____
DOCKED: USER                              x       y       z     vdW  Elec       q    Type
DOCKED: USER                           _______ _______ _______ _____ _____    ______ ____
DOCKED: ROOT
DOCKED: ATOM      1  C   UNL     1      36.677  12.935 123.162 -0.62 -0.00    +0.000 C 
DOCKED: ENDROOT
DOCKED: BRANCH   1   2
DOCKED: ATOM      2  C   UNL     1      36.460  11.955 122.003 -0.57 -0.00    +0.000 C 
DOCKED: BRANCH   2   3
DOCKED: ATOM      3  C   UNL     1      35.627  10.751 122.451 -0.64 -0.00    +0.000 C 
DOCKED: BRANCH   3   5
DOCKED: ATOM      4  N   UNL     1      36.536   8.547 123.327 -0.65 -0.00    +0.000 N 
DOCKED: ATOM      5  C   UNL     1      36.391   9.478 122.250 -0.70 -0.00    +0.000 C 
DOCKED: ATOM      6  O   UNL     1      36.872   9.209 121.118 -2.68 -0.00    +0.000 OA
DOCKED: ATOM      7  H   UNL     1      36.150   8.757 124.208 -0.26 -0.00    +0.000 HD
DOCKED: BRANCH   4   8
DOCKED: ATOM      8  O   UNL     1      37.201   7.382 123.145 -2.10 -0.00    +0.000 OA
DOCKED: ATOM      9  H   UNL     1      37.470   7.305 122.216 -0.13 -0.00    +0.000 HD
DOCKED: ENDBRANCH   4   8
DOCKED: ENDBRANCH   3   5
DOCKED: ENDBRANCH   2   3
DOCKED: ENDBRANCH   1   2
DOCKED: BRANCH   1  10
DOCKED: ATOM     10  C   UNL     1      38.068  13.583 123.083 -0.48 -0.00    +0.000 C 
DOCKED: BRANCH  10  11
DOCKED: ATOM     11  C   UNL     1      38.568  13.729 121.631 -0.38 -0.00    +0.000 C 
DOCKED: BRANCH  11  12
DOCKED: ATOM     12  C   UNL     1      39.379  15.012 121.389 -0.33 -0.00    +0.000 C 
DOCKED: BRANCH  12  13
DOCKED: ATOM     13  C   UNL     1      40.550  15.129 122.319 -0.46 -0.00    +0.000 C 
DOCKED: ATOM     14  N   UNL     1      40.941  16.405 122.833 -0.32 -0.00    +0.000 N 
DOCKED: ATOM     15  O   UNL     1      41.174  14.092 122.671 -1.08 +0.00    +0.000 OA
DOCKED: ATOM     16  H   UNL     1      40.451  17.214 122.559 +0.00 -0.00    +0.000 HD
DOCKED: BRANCH  14  17
DOCKED: ATOM     17  O   UNL     1      41.981  16.512 123.695 -1.04 +0.00    +0.000 OA
DOCKED: ATOM     18  H   UNL     1      42.417  15.650 123.783 -0.05 +0.00    +0.000 HD
DOCKED: ENDBRANCH  14  17
DOCKED: ENDBRANCH  12  13
DOCKED: ENDBRANCH  11  12
DOCKED: ENDBRANCH  10  11
DOCKED: ENDBRANCH   1  10
DOCKED: TORSDOF 9
DOCKED: TER
DOCKED: ENDMDL
________________________________________________________________________________


	BEGINNING GENETIC ALGORITHM DOCKING 39 of 100
Run: 39 Seed: 763669992 323678638 [ Run 39 of 100 GA/GALS ]
Beginning LAMARCKIAN GENETIC ALGORITHM (LGA), with a maximum of 2500000 energy evaluations.

Final-Value: -14.204


	FINAL GENETIC ALGORITHM DOCKED STATE
	_______________________________________________


Detailed state:  trans 37.116 13.718 124.569 quatxyzw -0.370568 -0.252498 -0.816488 0.363691 center 0.300 0.400 0.510 ntor 9 -179.9163 7.9634 -175.1539 -94.0281 -110.6259 117.8673 -59.4638 63.7448 -18.9289
State:	 37.116  13.718 124.569  -0.398 -0.271 -0.877 137.346   -179.92    7.96 -175.15  -94.03 -110.63  117.87  -59.46   63.74  -18.93

DOCKED: MODEL       39
DOCKED: USER    Run = 39
DOCKED: USER    DPF = ligand_dock.biased.dpf
DOCKED: USER  
DOCKED: USER    Estimated Free Energy of Binding    =  -10.02 kcal/mol  [=(1)+(2)+(3)-(4)]
DOCKED: USER    Estimated Inhibition Constant, Ki   =   45.50 nM (nanomolar)  [Temperature = 298.15 K]
DOCKED: USER    
DOCKED: USER    (1) Final Intermolecular Energy     =  -12.70 kcal/mol
DOCKED: USER        vdW + Hbond + desolv Energy     =  -12.70 kcal/mol
DOCKED: USER        Electrostatic Energy            =   +0.00 kcal/mol
DOCKED: USER    (2) Final Total Internal Energy     =   -1.50 kcal/mol
DOCKED: USER    (3) Torsional Free Energy           =   +2.68 kcal/mol
DOCKED: USER    (4) Unbound System's Energy  [=(2)] =   -1.50 kcal/mol
DOCKED: USER    
DOCKED: USER    
DOCKED: USER    NEWDPF move ligand.pdbqt
DOCKED: USER    NEWDPF about 0.300000 0.400000 0.510000
DOCKED: USER    NEWDPF tran0 37.116153 13.718223 124.568579
DOCKED: USER    NEWDPF quaternion0 -0.370568 -0.252498 -0.816488 0.363691
DOCKED: USER    NEWDPF axisangle0 -0.397810 -0.271060 -0.876512 137.345901
DOCKED: USER    NEWDPF quat0 -0.397810 -0.271060 -0.876512 137.345901
DOCKED: USER    NEWDPF dihe0 -179.92 7.96 -175.15 -94.03 -110.63 117.87 -59.46 63.74 -18.93 
DOCKED: USER  keepresnum = 1 
DOCKED: USER  
DOCKED: REMARK  Name = 
DOCKED: REMARK  9 active torsions:
DOCKED: REMARK  status: ('A' for Active; 'I' for Inactive)
DOCKED: REMARK    1  A    between atoms: O_1  and  N_2
DOCKED: REMARK    2  A    between atoms: C_3  and  C_4
DOCKED: REMARK    3  A    between atoms: C_4  and  C_5
DOCKED: REMARK    4  A    between atoms: C_5  and  C_6
DOCKED: REMARK    5  A    between atoms: C_6  and  C_7
DOCKED: REMARK    6  A    between atoms: C_7  and  C_8
DOCKED: REMARK    7  A    between atoms: C_8  and  C_9
DOCKED: REMARK    8  A    between atoms: C_9  and  C_10
DOCKED: REMARK    9  A    between atoms: N_11  and  O_12
DOCKED: REMARK                            x       y       z     vdW  Elec       q    Type
DOCKED: REMARK                         _______ _______ _______ _____ _____    ______ ____
DOCKED: USER                              x       y       z     vdW  Elec       q    Type
DOCKED: USER                           _______ _______ _______ _____ _____    ______ ____
DOCKED: ROOT
DOCKED: ATOM      1  C   UNL     1      36.285  13.786 123.070 -0.53 -0.00    +0.000 C 
DOCKED: ENDROOT
DOCKED: BRANCH   1   2
DOCKED: ATOM      2  C   UNL     1      36.709  15.085 123.764 -0.39 -0.00    +0.000 C 
DOCKED: BRANCH   2   3
DOCKED: ATOM      3  C   UNL     1      35.605  16.142 123.674 -0.44 -0.00    +0.000 C 
DOCKED: BRANCH   3   5
DOCKED: ATOM      4  N   UNL     1      34.226  16.340 125.799 -0.43 -0.00    +0.000 N 
DOCKED: ATOM      5  C   UNL     1      34.428  15.745 124.514 -0.59 -0.00    +0.000 C 
DOCKED: ATOM      6  O   UNL     1      33.593  14.915 124.067 -0.65 -0.00    +0.000 OA
DOCKED: ATOM      7  H   UNL     1      34.877  16.995 126.140 -0.02 -0.00    +0.000 HD
DOCKED: BRANCH   4   8
DOCKED: ATOM      8  O   UNL     1      33.150  16.008 126.550 -1.06 -0.00    +0.000 OA
DOCKED: ATOM      9  H   UNL     1      32.615  15.353 126.076 -0.23 -0.00    +0.000 HD
DOCKED: ENDBRANCH   4   8
DOCKED: ENDBRANCH   3   5
DOCKED: ENDBRANCH   2   3
DOCKED: ENDBRANCH   1   2
DOCKED: BRANCH   1  10
DOCKED: ATOM     10  C   UNL     1      37.254  13.427 121.933 -0.48 -0.00    +0.000 C 
DOCKED: BRANCH  10  11
DOCKED: ATOM     11  C   UNL     1      37.195  11.931 121.559 -0.53 -0.00    +0.000 C 
DOCKED: BRANCH  11  12
DOCKED: ATOM     12  C   UNL     1      36.871  11.015 122.750 -0.64 -0.00    +0.000 C 
DOCKED: BRANCH  12  13
DOCKED: ATOM     13  C   UNL     1      36.964   9.561 122.392 -0.64 -0.00    +0.000 C 
DOCKED: ATOM     14  N   UNL     1      37.010   8.565 123.417 -0.66 -0.00    +0.000 N 
DOCKED: ATOM     15  O   UNL     1      36.972   9.217 121.180 -2.71 -0.00    +0.000 OA
DOCKED: ATOM     16  H   UNL     1      36.999   8.836 124.363 -0.50 -0.00    +0.000 HD
DOCKED: BRANCH  14  17
DOCKED: ATOM     17  O   UNL     1      37.066   7.250 123.098 -2.07 -0.00    +0.000 OA
DOCKED: ATOM     18  H   UNL     1      37.195   7.155 122.141 -0.13 -0.00    +0.000 HD
DOCKED: ENDBRANCH  14  17
DOCKED: ENDBRANCH  12  13
DOCKED: ENDBRANCH  11  12
DOCKED: ENDBRANCH  10  11
DOCKED: ENDBRANCH   1  10
DOCKED: TORSDOF 9
DOCKED: TER
DOCKED: ENDMDL
________________________________________________________________________________


	BEGINNING GENETIC ALGORITHM DOCKING 40 of 100
Run: 40 Seed: 770719363 1565497057 [ Run 40 of 100 GA/GALS ]
Beginning LAMARCKIAN GENETIC ALGORITHM (LGA), with a maximum of 2500000 energy evaluations.

Final-Value: -13.606


	FINAL GENETIC ALGORITHM DOCKED STATE
	_______________________________________________


Detailed state:  trans 28.685 8.653 115.986 quatxyzw -0.663544 -0.550710 -0.028768 -0.505569 center 0.300 0.400 0.510 ntor 9 178.4481 4.2719 -141.8007 150.1473 104.3156 -53.3943 -179.9143 -150.1918 -53.5743
State:	 28.685   8.653 115.986  -0.769 -0.638 -0.033 -119.262    178.45    4.27 -141.80  150.15  104.32  -53.39 -179.91 -150.19  -53.57

DOCKED: MODEL       40
DOCKED: USER    Run = 40
DOCKED: USER    DPF = ligand_dock.biased.dpf
DOCKED: USER  
DOCKED: USER    Estimated Free Energy of Binding    =   -9.31 kcal/mol  [=(1)+(2)+(3)-(4)]
DOCKED: USER    Estimated Inhibition Constant, Ki   =  150.27 nM (nanomolar)  [Temperature = 298.15 K]
DOCKED: USER    
DOCKED: USER    (1) Final Intermolecular Energy     =  -11.99 kcal/mol
DOCKED: USER        vdW + Hbond + desolv Energy     =  -11.99 kcal/mol
DOCKED: USER        Electrostatic Energy            =   +0.00 kcal/mol
DOCKED: USER    (2) Final Total Internal Energy     =   -1.61 kcal/mol
DOCKED: USER    (3) Torsional Free Energy           =   +2.68 kcal/mol
DOCKED: USER    (4) Unbound System's Energy  [=(2)] =   -1.61 kcal/mol
DOCKED: USER    
DOCKED: USER    
DOCKED: USER    NEWDPF move ligand.pdbqt
DOCKED: USER    NEWDPF about 0.300000 0.400000 0.510000
DOCKED: USER    NEWDPF tran0 28.684751 8.652589 115.985609
DOCKED: USER    NEWDPF quaternion0 -0.663544 -0.550710 -0.028768 -0.505569
DOCKED: USER    NEWDPF axisangle0 -0.769071 -0.638293 -0.033343 -119.261771
DOCKED: USER    NEWDPF quat0 -0.769071 -0.638293 -0.033343 -119.261771
DOCKED: USER    NEWDPF dihe0 178.45 4.27 -141.80 150.15 104.32 -53.39 -179.91 -150.19 -53.57 
DOCKED: USER  keepresnum = 1 
DOCKED: USER  
DOCKED: REMARK  Name = 
DOCKED: REMARK  9 active torsions:
DOCKED: REMARK  status: ('A' for Active; 'I' for Inactive)
DOCKED: REMARK    1  A    between atoms: O_1  and  N_2
DOCKED: REMARK    2  A    between atoms: C_3  and  C_4
DOCKED: REMARK    3  A    between atoms: C_4  and  C_5
DOCKED: REMARK    4  A    between atoms: C_5  and  C_6
DOCKED: REMARK    5  A    between atoms: C_6  and  C_7
DOCKED: REMARK    6  A    between atoms: C_7  and  C_8
DOCKED: REMARK    7  A    between atoms: C_8  and  C_9
DOCKED: REMARK    8  A    between atoms: C_9  and  C_10
DOCKED: REMARK    9  A    between atoms: N_11  and  O_12
DOCKED: REMARK                            x       y       z     vdW  Elec       q    Type
DOCKED: REMARK                         _______ _______ _______ _____ _____    ______ ____
DOCKED: USER                              x       y       z     vdW  Elec       q    Type
DOCKED: USER                           _______ _______ _______ _____ _____    ______ ____
DOCKED: ROOT
DOCKED: ATOM      1  C   UNL     1      28.857   7.346 117.084 -0.31 +0.00    +0.000 C 
DOCKED: ENDROOT
DOCKED: BRANCH   1   2
DOCKED: ATOM      2  C   UNL     1      28.436   8.726 117.602 -0.54 +0.00    +0.000 C 
DOCKED: BRANCH   2   3
DOCKED: ATOM      3  C   UNL     1      26.927   8.782 117.853 -0.63 -0.00    +0.000 C 
DOCKED: BRANCH   3   5
DOCKED: ATOM      4  N   UNL     1      25.029   8.092 116.311 -0.70 -0.00    +0.000 N 
DOCKED: ATOM      5  C   UNL     1      26.182   8.902 116.558 -0.85 -0.00    +0.000 C 
DOCKED: ATOM      6  O   UNL     1      26.551   9.748 115.701 -1.12 +0.00    +0.000 OA
DOCKED: ATOM      7  H   UNL     1      24.739   7.438 116.988 -0.35 -0.00    +0.000 HD
DOCKED: BRANCH   4   8
DOCKED: ATOM      8  O   UNL     1      24.335   8.215 115.156 -1.10 -0.00    +0.000 OA
DOCKED: ATOM      9  H   UNL     1      24.734   8.912 114.612 -0.10 -0.00    +0.000 HD
DOCKED: ENDBRANCH   4   8
DOCKED: ENDBRANCH   3   5
DOCKED: ENDBRANCH   2   3
DOCKED: ENDBRANCH   1   2
DOCKED: BRANCH   1  10
DOCKED: ATOM     10  C   UNL     1      27.644   6.411 116.958 -0.59 -0.00    +0.000 C 
DOCKED: BRANCH  10  11
DOCKED: ATOM     11  C   UNL     1      27.492   5.832 115.536 -0.48 -0.00    +0.000 C 
DOCKED: BRANCH  11  12
DOCKED: ATOM     12  C   UNL     1      27.702   4.311 115.469 -0.71 -0.00    +0.000 C 
DOCKED: BRANCH  12  13
DOCKED: ATOM     13  C   UNL     1      27.656   3.669 116.824 -0.69 -0.00    +0.000 C 
DOCKED: ATOM     14  N   UNL     1      26.582   3.953 117.723 -0.65 -0.00    +0.000 N 
DOCKED: ATOM     15  O   UNL     1      28.557   2.852 117.158 -1.21 +0.00    +0.000 OA
DOCKED: ATOM     16  H   UNL     1      25.878   4.589 117.459 -0.49 -0.00    +0.000 HD
DOCKED: BRANCH  14  17
DOCKED: ATOM     17  O   UNL     1      26.522   3.354 118.937 -0.86 -0.00    +0.000 OA
DOCKED: ATOM     18  H   UNL     1      27.317   2.814 119.070 -0.62 -0.00    +0.000 HD
DOCKED: ENDBRANCH  14  17
DOCKED: ENDBRANCH  12  13
DOCKED: ENDBRANCH  11  12
DOCKED: ENDBRANCH  10  11
DOCKED: ENDBRANCH   1  10
DOCKED: TORSDOF 9
DOCKED: TER
DOCKED: ENDMDL
________________________________________________________________________________


	BEGINNING GENETIC ALGORITHM DOCKING 41 of 100
Run: 41 Seed: 534347871 1176730553 [ Run 41 of 100 GA/GALS ]
Beginning LAMARCKIAN GENETIC ALGORITHM (LGA), with a maximum of 2500000 energy evaluations.

Final-Value: -12.891


	FINAL GENETIC ALGORITHM DOCKED STATE
	_______________________________________________


Detailed state:  trans 37.433 12.986 122.142 quatxyzw -0.793480 -0.590767 0.131686 -0.063580 center 0.300 0.400 0.510 ntor 9 -179.2403 -178.0915 146.6635 156.0557 -92.5008 166.3282 20.5352 168.3487 -98.4059
State:	 37.433  12.986 122.142  -0.795 -0.592  0.132 -172.709   -179.24 -178.09  146.66  156.06  -92.50  166.33   20.54  168.35  -98.41

DOCKED: MODEL       41
DOCKED: USER    Run = 41
DOCKED: USER    DPF = ligand_dock.biased.dpf
DOCKED: USER  
DOCKED: USER    Estimated Free Energy of Binding    =   -6.05 kcal/mol  [=(1)+(2)+(3)-(4)]
DOCKED: USER    Estimated Inhibition Constant, Ki   =   36.85 uM (micromolar)  [Temperature = 298.15 K]
DOCKED: USER    
DOCKED: USER    (1) Final Intermolecular Energy     =   -8.73 kcal/mol
DOCKED: USER        vdW + Hbond + desolv Energy     =   -8.73 kcal/mol
DOCKED: USER        Electrostatic Energy            =   +0.00 kcal/mol
DOCKED: USER    (2) Final Total Internal Energy     =   -4.16 kcal/mol
DOCKED: USER    (3) Torsional Free Energy           =   +2.68 kcal/mol
DOCKED: USER    (4) Unbound System's Energy  [=(2)] =   -4.16 kcal/mol
DOCKED: USER    
DOCKED: USER    
DOCKED: USER    NEWDPF move ligand.pdbqt
DOCKED: USER    NEWDPF about 0.300000 0.400000 0.510000
DOCKED: USER    NEWDPF tran0 37.432530 12.985902 122.141722
DOCKED: USER    NEWDPF quaternion0 -0.793480 -0.590767 0.131686 -0.063580
DOCKED: USER    NEWDPF axisangle0 -0.795089 -0.591965 0.131953 -172.709394
DOCKED: USER    NEWDPF quat0 -0.795089 -0.591965 0.131953 -172.709394
DOCKED: USER    NEWDPF dihe0 -179.24 -178.09 146.66 156.06 -92.50 166.33 20.54 168.35 -98.41 
DOCKED: USER  keepresnum = 1 
DOCKED: USER  
DOCKED: REMARK  Name = 
DOCKED: REMARK  9 active torsions:
DOCKED: REMARK  status: ('A' for Active; 'I' for Inactive)
DOCKED: REMARK    1  A    between atoms: O_1  and  N_2
DOCKED: REMARK    2  A    between atoms: C_3  and  C_4
DOCKED: REMARK    3  A    between atoms: C_4  and  C_5
DOCKED: REMARK    4  A    between atoms: C_5  and  C_6
DOCKED: REMARK    5  A    between atoms: C_6  and  C_7
DOCKED: REMARK    6  A    between atoms: C_7  and  C_8
DOCKED: REMARK    7  A    between atoms: C_8  and  C_9
DOCKED: REMARK    8  A    between atoms: C_9  and  C_10
DOCKED: REMARK    9  A    between atoms: N_11  and  O_12
DOCKED: REMARK                            x       y       z     vdW  Elec       q    Type
DOCKED: REMARK                         _______ _______ _______ _____ _____    ______ ____
DOCKED: USER                              x       y       z     vdW  Elec       q    Type
DOCKED: USER                           _______ _______ _______ _____ _____    ______ ____
DOCKED: ROOT
DOCKED: ATOM      1  C   UNL     1      37.151  13.096 123.830 -0.37 -0.00    +0.000 C 
DOCKED: ENDROOT
DOCKED: BRANCH   1   2
DOCKED: ATOM      2  C   UNL     1      36.732  14.250 122.912 -0.49 -0.00    +0.000 C 
DOCKED: BRANCH   2   3
DOCKED: ATOM      3  C   UNL     1      37.933  14.801 122.139 -0.39 -0.00    +0.000 C 
DOCKED: BRANCH   3   5
DOCKED: ATOM      4  N   UNL     1      37.139  14.036 119.850 -0.32 -0.00    +0.000 N 
DOCKED: ATOM      5  C   UNL     1      38.142  14.030 120.871 -0.39 -0.00    +0.000 C 
DOCKED: ATOM      6  O   UNL     1      39.222  13.407 120.688 -0.41 -0.00    +0.000 OA
DOCKED: ATOM      7  H   UNL     1      36.301  14.531 119.994 -0.01 -0.00    +0.000 HD
DOCKED: BRANCH   4   8
DOCKED: ATOM      8  O   UNL     1      37.333  13.365 118.690 -0.44 -0.00    +0.000 OA
DOCKED: ATOM      9  H   UNL     1      38.196  12.922 118.714 -0.13 -0.00    +0.000 HD
DOCKED: ENDBRANCH   4   8
DOCKED: ENDBRANCH   3   5
DOCKED: ENDBRANCH   2   3
DOCKED: ENDBRANCH   1   2
DOCKED: BRANCH   1  10
DOCKED: ATOM     10  C   UNL     1      35.943  12.223 124.204 -0.46 -0.00    +0.000 C 
DOCKED: BRANCH  10  11
DOCKED: ATOM     11  C   UNL     1      35.561  11.235 123.082 -0.63 -0.00    +0.000 C 
DOCKED: BRANCH  11  12
DOCKED: ATOM     12  C   UNL     1      36.553  10.071 122.928 -0.68 -0.00    +0.000 C 
DOCKED: BRANCH  12  13
DOCKED: ATOM     13  C   UNL     1      37.077   9.951 121.528 -0.46 -0.00    +0.000 C 
DOCKED: ATOM     14  N   UNL     1      37.709  11.067 120.893 -0.22 -0.00    +0.000 N 
DOCKED: ATOM     15  O   UNL     1      36.986   8.851 120.920 -2.69 -0.00    +0.000 OA
DOCKED: ATOM     16  H   UNL     1      37.782  11.924 121.372 -0.02 -0.00    +0.000 HD
DOCKED: BRANCH  14  17
DOCKED: ATOM     17  O   UNL     1      38.209  10.954 119.640 -0.46 -0.00    +0.000 OA
DOCKED: ATOM     18  H   UNL     1      38.625  11.792 119.381 -0.14 -0.00    +0.000 HD
DOCKED: ENDBRANCH  14  17
DOCKED: ENDBRANCH  12  13
DOCKED: ENDBRANCH  11  12
DOCKED: ENDBRANCH  10  11
DOCKED: ENDBRANCH   1  10
DOCKED: TORSDOF 9
DOCKED: TER
DOCKED: ENDMDL
________________________________________________________________________________


	BEGINNING GENETIC ALGORITHM DOCKING 42 of 100
Run: 42 Seed: 1389660044 330109087 [ Run 42 of 100 GA/GALS ]
Beginning LAMARCKIAN GENETIC ALGORITHM (LGA), with a maximum of 2500000 energy evaluations.

Final-Value: -13.556


	FINAL GENETIC ALGORITHM DOCKED STATE
	_______________________________________________


Detailed state:  trans 35.682 11.820 122.268 quatxyzw 0.543930 -0.733154 0.395538 -0.100869 center 0.300 0.400 0.510 ntor 9 162.3481 -5.1998 144.7253 -16.2274 -34.9732 113.9663 62.9288 122.7678 -109.7823
State:	 35.682  11.820 122.268   0.547 -0.737  0.398 -168.422    162.35   -5.20  144.73  -16.23  -34.97  113.97   62.93  122.77 -109.78

DOCKED: MODEL       42
DOCKED: USER    Run = 42
DOCKED: USER    DPF = ligand_dock.biased.dpf
DOCKED: USER  
DOCKED: USER    Estimated Free Energy of Binding    =   -9.06 kcal/mol  [=(1)+(2)+(3)-(4)]
DOCKED: USER    Estimated Inhibition Constant, Ki   =  227.29 nM (nanomolar)  [Temperature = 298.15 K]
DOCKED: USER    
DOCKED: USER    (1) Final Intermolecular Energy     =  -11.75 kcal/mol
DOCKED: USER        vdW + Hbond + desolv Energy     =  -11.75 kcal/mol
DOCKED: USER        Electrostatic Energy            =   +0.00 kcal/mol
DOCKED: USER    (2) Final Total Internal Energy     =   -1.81 kcal/mol
DOCKED: USER    (3) Torsional Free Energy           =   +2.68 kcal/mol
DOCKED: USER    (4) Unbound System's Energy  [=(2)] =   -1.81 kcal/mol
DOCKED: USER    
DOCKED: USER    
DOCKED: USER    NEWDPF move ligand.pdbqt
DOCKED: USER    NEWDPF about 0.300000 0.400000 0.510000
DOCKED: USER    NEWDPF tran0 35.682225 11.820408 122.267871
DOCKED: USER    NEWDPF quaternion0 0.543930 -0.733154 0.395538 -0.100869
DOCKED: USER    NEWDPF axisangle0 0.546718 -0.736913 0.397566 -168.421578
DOCKED: USER    NEWDPF quat0 0.546718 -0.736913 0.397566 -168.421578
DOCKED: USER    NEWDPF dihe0 162.35 -5.20 144.73 -16.23 -34.97 113.97 62.93 122.77 -109.78 
DOCKED: USER  keepresnum = 1 
DOCKED: USER  
DOCKED: REMARK  Name = 
DOCKED: REMARK  9 active torsions:
DOCKED: REMARK  status: ('A' for Active; 'I' for Inactive)
DOCKED: REMARK    1  A    between atoms: O_1  and  N_2
DOCKED: REMARK    2  A    between atoms: C_3  and  C_4
DOCKED: REMARK    3  A    between atoms: C_4  and  C_5
DOCKED: REMARK    4  A    between atoms: C_5  and  C_6
DOCKED: REMARK    5  A    between atoms: C_6  and  C_7
DOCKED: REMARK    6  A    between atoms: C_7  and  C_8
DOCKED: REMARK    7  A    between atoms: C_8  and  C_9
DOCKED: REMARK    8  A    between atoms: C_9  and  C_10
DOCKED: REMARK    9  A    between atoms: N_11  and  O_12
DOCKED: REMARK                            x       y       z     vdW  Elec       q    Type
DOCKED: REMARK                         _______ _______ _______ _____ _____    ______ ____
DOCKED: USER                              x       y       z     vdW  Elec       q    Type
DOCKED: USER                           _______ _______ _______ _____ _____    ______ ____
DOCKED: ROOT
DOCKED: ATOM      1  C   UNL     1      35.959  12.955 123.524 -0.62 -0.00    +0.000 C 
DOCKED: ENDROOT
DOCKED: BRANCH   1   2
DOCKED: ATOM      2  C   UNL     1      36.221  11.466 123.773 -0.68 -0.00    +0.000 C 
DOCKED: BRANCH   2   3
DOCKED: ATOM      3  C   UNL     1      35.553  10.603 122.699 -0.66 -0.00    +0.000 C 
DOCKED: BRANCH   3   5
DOCKED: ATOM      4  N   UNL     1      36.696   8.447 123.404 -0.67 -0.00    +0.000 N 
DOCKED: ATOM      5  C   UNL     1      36.398   9.406 122.385 -0.72 -0.00    +0.000 C 
DOCKED: ATOM      6  O   UNL     1      36.814   9.224 121.210 -2.66 -0.00    +0.000 OA
DOCKED: ATOM      7  H   UNL     1      36.361   8.588 124.319 -0.28 -0.00    +0.000 HD
DOCKED: BRANCH   4   8
DOCKED: ATOM      8  O   UNL     1      37.435   7.348 123.121 -1.94 -0.00    +0.000 OA
DOCKED: ATOM      9  H   UNL     1      37.450   7.208 122.162 -0.17 -0.00    +0.000 HD
DOCKED: ENDBRANCH   4   8
DOCKED: ENDBRANCH   3   5
DOCKED: ENDBRANCH   2   3
DOCKED: ENDBRANCH   1   2
DOCKED: BRANCH   1  10
DOCKED: ATOM     10  C   UNL     1      37.270  13.708 123.252 -0.53 -0.00    +0.000 C 
DOCKED: BRANCH  10  11
DOCKED: ATOM     11  C   UNL     1      37.915  13.302 121.910 -0.46 -0.00    +0.000 C 
DOCKED: BRANCH  11  12
DOCKED: ATOM     12  C   UNL     1      36.899  12.803 120.869 -0.45 -0.00    +0.000 C 
DOCKED: BRANCH  12  13
DOCKED: ATOM     13  C   UNL     1      37.558  12.366 119.594 -0.41 -0.00    +0.000 C 
DOCKED: ATOM     14  N   UNL     1      37.283  13.046 118.367 -0.41 -0.00    +0.000 N 
DOCKED: ATOM     15  O   UNL     1      38.381  11.412 119.613 -0.49 -0.00    +0.000 OA
DOCKED: ATOM     16  H   UNL     1      36.643  13.794 118.356 -0.02 -0.00    +0.000 HD
DOCKED: BRANCH  14  17
DOCKED: ATOM     17  O   UNL     1      37.897  12.672 117.219 -0.47 -0.00    +0.000 OA
DOCKED: ATOM     18  H   UNL     1      38.553  11.984 117.413 -0.12 -0.00    +0.000 HD
DOCKED: ENDBRANCH  14  17
DOCKED: ENDBRANCH  12  13
DOCKED: ENDBRANCH  11  12
DOCKED: ENDBRANCH  10  11
DOCKED: ENDBRANCH   1  10
DOCKED: TORSDOF 9
DOCKED: TER
DOCKED: ENDMDL
________________________________________________________________________________


	BEGINNING GENETIC ALGORITHM DOCKING 43 of 100
Run: 43 Seed: 97889092 1185268725 [ Run 43 of 100 GA/GALS ]
Beginning LAMARCKIAN GENETIC ALGORITHM (LGA), with a maximum of 2500000 energy evaluations.

Final-Value: -13.207


	FINAL GENETIC ALGORITHM DOCKED STATE
	_______________________________________________


Detailed state:  trans 37.513 11.561 122.266 quatxyzw 0.468766 -0.559493 0.651943 0.205418 center 0.300 0.400 0.510 ntor 9 -179.8668 21.4317 17.7595 155.4734 -75.4614 13.3569 -5.4208 38.4402 -39.3936
State:	 37.513  11.561 122.266   0.479 -0.572  0.666 156.292   -179.87   21.43   17.76  155.47  -75.46   13.36   -5.42   38.44  -39.39

DOCKED: MODEL       43
DOCKED: USER    Run = 43
DOCKED: USER    DPF = ligand_dock.biased.dpf
DOCKED: USER  
DOCKED: USER    Estimated Free Energy of Binding    =   -8.01 kcal/mol  [=(1)+(2)+(3)-(4)]
DOCKED: USER    Estimated Inhibition Constant, Ki   =    1.35 uM (micromolar)  [Temperature = 298.15 K]
DOCKED: USER    
DOCKED: USER    (1) Final Intermolecular Energy     =  -10.69 kcal/mol
DOCKED: USER        vdW + Hbond + desolv Energy     =  -10.69 kcal/mol
DOCKED: USER        Electrostatic Energy            =   +0.00 kcal/mol
DOCKED: USER    (2) Final Total Internal Energy     =   -2.51 kcal/mol
DOCKED: USER    (3) Torsional Free Energy           =   +2.68 kcal/mol
DOCKED: USER    (4) Unbound System's Energy  [=(2)] =   -2.51 kcal/mol
DOCKED: USER    
DOCKED: USER    
DOCKED: USER    NEWDPF move ligand.pdbqt
DOCKED: USER    NEWDPF about 0.300000 0.400000 0.510000
DOCKED: USER    NEWDPF tran0 37.512882 11.560647 122.266080
DOCKED: USER    NEWDPF quaternion0 0.468766 -0.559493 0.651943 0.205418
DOCKED: USER    NEWDPF axisangle0 0.478981 -0.571684 0.666149 156.292116
DOCKED: USER    NEWDPF quat0 0.478981 -0.571684 0.666149 156.292116
DOCKED: USER    NEWDPF dihe0 -179.87 21.43 17.76 155.47 -75.46 13.36 -5.42 38.44 -39.39 
DOCKED: USER  keepresnum = 1 
DOCKED: USER  
DOCKED: REMARK  Name = 
DOCKED: REMARK  9 active torsions:
DOCKED: REMARK  status: ('A' for Active; 'I' for Inactive)
DOCKED: REMARK    1  A    between atoms: O_1  and  N_2
DOCKED: REMARK    2  A    between atoms: C_3  and  C_4
DOCKED: REMARK    3  A    between atoms: C_4  and  C_5
DOCKED: REMARK    4  A    between atoms: C_5  and  C_6
DOCKED: REMARK    5  A    between atoms: C_6  and  C_7
DOCKED: REMARK    6  A    between atoms: C_7  and  C_8
DOCKED: REMARK    7  A    between atoms: C_8  and  C_9
DOCKED: REMARK    8  A    between atoms: C_9  and  C_10
DOCKED: REMARK    9  A    between atoms: N_11  and  O_12
DOCKED: REMARK                            x       y       z     vdW  Elec       q    Type
DOCKED: REMARK                         _______ _______ _______ _____ _____    ______ ____
DOCKED: USER                              x       y       z     vdW  Elec       q    Type
DOCKED: USER                           _______ _______ _______ _____ _____    ______ ____
DOCKED: ROOT
DOCKED: ATOM      1  C   UNL     1      36.495  12.754 122.961 -0.61 -0.00    +0.000 C 
DOCKED: ENDROOT
DOCKED: BRANCH   1   2
DOCKED: ATOM      2  C   UNL     1      36.878  11.512 123.775 -0.68 -0.00    +0.000 C 
DOCKED: BRANCH   2   3
DOCKED: ATOM      3  C   UNL     1      35.948  10.338 123.456 -0.53 -0.00    +0.000 C 
DOCKED: BRANCH   3   5
DOCKED: ATOM      4  N   UNL     1      37.012   9.702 121.238 -0.48 -0.00    +0.000 N 
DOCKED: ATOM      5  C   UNL     1      36.640   9.345 122.572 -0.73 -0.00    +0.000 C 
DOCKED: ATOM      6  O   UNL     1      36.930   8.204 123.022 -2.08 -0.00    +0.000 OA
DOCKED: ATOM      7  H   UNL     1      36.792  10.598 120.894 -0.02 -0.00    +0.000 HD
DOCKED: BRANCH   4   8
DOCKED: ATOM      8  O   UNL     1      37.663   8.819 120.444 -1.79 -0.00    +0.000 OA
DOCKED: ATOM      9  H   UNL     1      37.800   7.990 120.928 -0.33 -0.00    +0.000 HD
DOCKED: ENDBRANCH   4   8
DOCKED: ENDBRANCH   3   5
DOCKED: ENDBRANCH   2   3
DOCKED: ENDBRANCH   1   2
DOCKED: BRANCH   1  10
DOCKED: ATOM     10  C   UNL     1      37.341  13.967 123.376 -0.49 -0.00    +0.000 C 
DOCKED: BRANCH  10  11
DOCKED: ATOM     11  C   UNL     1      37.801  14.806 122.165 -0.39 -0.00    +0.000 C 
DOCKED: BRANCH  11  12
DOCKED: ATOM     12  C   UNL     1      38.607  14.001 121.133 -0.39 -0.00    +0.000 C 
DOCKED: BRANCH  12  13
DOCKED: ATOM     13  C   UNL     1      37.724  13.221 120.204 -0.45 -0.00    +0.000 C 
DOCKED: ATOM     14  N   UNL     1      36.695  13.879 119.460 -0.33 -0.00    +0.000 N 
DOCKED: ATOM     15  O   UNL     1      37.911  11.983 120.059 -0.56 -0.00    +0.000 OA
DOCKED: ATOM     16  H   UNL     1      36.553  14.847 119.573 -0.01 -0.00    +0.000 HD
DOCKED: BRANCH  14  17
DOCKED: ATOM     17  O   UNL     1      35.914  13.183 118.600 -0.40 -0.00    +0.000 OA
DOCKED: ATOM     18  H   UNL     1      35.931  12.242 118.837 -0.42 -0.00    +0.000 HD
DOCKED: ENDBRANCH  14  17
DOCKED: ENDBRANCH  12  13
DOCKED: ENDBRANCH  11  12
DOCKED: ENDBRANCH  10  11
DOCKED: ENDBRANCH   1  10
DOCKED: TORSDOF 9
DOCKED: TER
DOCKED: ENDMDL
________________________________________________________________________________


	BEGINNING GENETIC ALGORITHM DOCKING 44 of 100
Run: 44 Seed: 1238705375 1429230096 [ Run 44 of 100 GA/GALS ]
Beginning LAMARCKIAN GENETIC ALGORITHM (LGA), with a maximum of 2500000 energy evaluations.

Final-Value: -13.496


	FINAL GENETIC ALGORITHM DOCKED STATE
	_______________________________________________


Detailed state:  trans 35.836 11.833 122.031 quatxyzw 0.738939 -0.603285 0.296134 0.048171 center 0.300 0.400 0.510 ntor 9 -169.3298 2.5019 81.9346 -40.0260 37.6340 75.2605 82.2288 -178.8064 -171.9312
State:	 35.836  11.833 122.031   0.740 -0.604  0.296 174.478   -169.33    2.50   81.93  -40.03   37.63   75.26   82.23 -178.81 -171.93

DOCKED: MODEL       44
DOCKED: USER    Run = 44
DOCKED: USER    DPF = ligand_dock.biased.dpf
DOCKED: USER  
DOCKED: USER    Estimated Free Energy of Binding    =   -9.28 kcal/mol  [=(1)+(2)+(3)-(4)]
DOCKED: USER    Estimated Inhibition Constant, Ki   =  158.22 nM (nanomolar)  [Temperature = 298.15 K]
DOCKED: USER    
DOCKED: USER    (1) Final Intermolecular Energy     =  -11.96 kcal/mol
DOCKED: USER        vdW + Hbond + desolv Energy     =  -11.96 kcal/mol
DOCKED: USER        Electrostatic Energy            =   +0.00 kcal/mol
DOCKED: USER    (2) Final Total Internal Energy     =   -1.53 kcal/mol
DOCKED: USER    (3) Torsional Free Energy           =   +2.68 kcal/mol
DOCKED: USER    (4) Unbound System's Energy  [=(2)] =   -1.53 kcal/mol
DOCKED: USER    
DOCKED: USER    
DOCKED: USER    NEWDPF move ligand.pdbqt
DOCKED: USER    NEWDPF about 0.300000 0.400000 0.510000
DOCKED: USER    NEWDPF tran0 35.835531 11.833094 122.031343
DOCKED: USER    NEWDPF quaternion0 0.738939 -0.603285 0.296134 0.048171
DOCKED: USER    NEWDPF axisangle0 0.739798 -0.603987 0.296478 174.477850
DOCKED: USER    NEWDPF quat0 0.739798 -0.603987 0.296478 174.477850
DOCKED: USER    NEWDPF dihe0 -169.33 2.50 81.93 -40.03 37.63 75.26 82.23 -178.81 -171.93 
DOCKED: USER  keepresnum = 1 
DOCKED: USER  
DOCKED: REMARK  Name = 
DOCKED: REMARK  9 active torsions:
DOCKED: REMARK  status: ('A' for Active; 'I' for Inactive)
DOCKED: REMARK    1  A    between atoms: O_1  and  N_2
DOCKED: REMARK    2  A    between atoms: C_3  and  C_4
DOCKED: REMARK    3  A    between atoms: C_4  and  C_5
DOCKED: REMARK    4  A    between atoms: C_5  and  C_6
DOCKED: REMARK    5  A    between atoms: C_6  and  C_7
DOCKED: REMARK    6  A    between atoms: C_7  and  C_8
DOCKED: REMARK    7  A    between atoms: C_8  and  C_9
DOCKED: REMARK    8  A    between atoms: C_9  and  C_10
DOCKED: REMARK    9  A    between atoms: N_11  and  O_12
DOCKED: REMARK                            x       y       z     vdW  Elec       q    Type
DOCKED: REMARK                         _______ _______ _______ _____ _____    ______ ____
DOCKED: USER                              x       y       z     vdW  Elec       q    Type
DOCKED: USER                           _______ _______ _______ _____ _____    ______ ____
DOCKED: ROOT
DOCKED: ATOM      1  C   UNL     1      35.678  12.649 123.532 -0.51 -0.00    +0.000 C 
DOCKED: ENDROOT
DOCKED: BRANCH   1   2
DOCKED: ATOM      2  C   UNL     1      36.671  11.489 123.397 -0.70 -0.00    +0.000 C 
DOCKED: BRANCH   2   3
DOCKED: ATOM      3  C   UNL     1      36.708  10.961 121.960 -0.62 -0.00    +0.000 C 
DOCKED: BRANCH   3   5
DOCKED: ATOM      4  N   UNL     1      36.995   8.752 123.181 -0.68 -0.00    +0.000 N 
DOCKED: ATOM      5  C   UNL     1      36.868   9.471 121.951 -0.66 -0.00    +0.000 C 
DOCKED: ATOM      6  O   UNL     1      36.849   8.847 120.856 -2.66 -0.00    +0.000 OA
DOCKED: ATOM      7  H   UNL     1      37.000   9.243 124.034 -0.52 -0.00    +0.000 HD
DOCKED: BRANCH   4   8
DOCKED: ATOM      8  O   UNL     1      37.111   7.403 123.181 -2.15 -0.00    +0.000 OA
DOCKED: ATOM      9  H   UNL     1      37.259   7.091 122.275 -0.16 -0.00    +0.000 HD
DOCKED: ENDBRANCH   4   8
DOCKED: ENDBRANCH   3   5
DOCKED: ENDBRANCH   2   3
DOCKED: ENDBRANCH   1   2
DOCKED: BRANCH   1  10
DOCKED: ATOM     10  C   UNL     1      36.398  14.003 123.455 -0.55 -0.00    +0.000 C 
DOCKED: BRANCH  10  11
DOCKED: ATOM     11  C   UNL     1      37.897  13.855 123.118 -0.50 -0.00    +0.000 C 
DOCKED: BRANCH  11  12
DOCKED: ATOM     12  C   UNL     1      38.179  13.767 121.610 -0.44 -0.00    +0.000 C 
DOCKED: BRANCH  12  13
DOCKED: ATOM     13  C   UNL     1      39.450  14.467 121.227 -0.33 -0.00    +0.000 C 
DOCKED: ATOM     14  N   UNL     1      39.523  15.224 120.016 -0.20 -0.00    +0.000 N 
DOCKED: ATOM     15  O   UNL     1      40.449  14.409 121.994 -1.07 -0.00    +0.000 OA
DOCKED: ATOM     16  H   UNL     1      38.740  15.270 119.421 -0.02 -0.00    +0.000 HD
DOCKED: BRANCH  14  17
DOCKED: ATOM     17  O   UNL     1      40.659  15.880 119.681 -0.19 -0.00    +0.000 OA
DOCKED: ATOM     18  H   UNL     1      41.343  15.703 120.346 -0.01 -0.00    +0.000 HD
DOCKED: ENDBRANCH  14  17
DOCKED: ENDBRANCH  12  13
DOCKED: ENDBRANCH  11  12
DOCKED: ENDBRANCH  10  11
DOCKED: ENDBRANCH   1  10
DOCKED: TORSDOF 9
DOCKED: TER
DOCKED: ENDMDL
________________________________________________________________________________


	BEGINNING GENETIC ALGORITHM DOCKING 45 of 100
Run: 45 Seed: 1264697028 1356938003 [ Run 45 of 100 GA/GALS ]
Beginning LAMARCKIAN GENETIC ALGORITHM (LGA), with a maximum of 2500000 energy evaluations.

Final-Value: -13.699


	FINAL GENETIC ALGORITHM DOCKED STATE
	_______________________________________________


Detailed state:  trans 36.361 14.750 122.215 quatxyzw -0.270804 -0.573550 0.197955 -0.747342 center 0.300 0.400 0.510 ntor 9 179.4270 -4.4657 -168.0067 166.9284 -41.1418 9.7422 59.5097 -113.7714 -177.4678
State:	 36.361  14.750 122.215  -0.408 -0.863  0.298 -83.279    179.43   -4.47 -168.01  166.93  -41.14    9.74   59.51 -113.77 -177.47

DOCKED: MODEL       45
DOCKED: USER    Run = 45
DOCKED: USER    DPF = ligand_dock.biased.dpf
DOCKED: USER  
DOCKED: USER    Estimated Free Energy of Binding    =   -9.34 kcal/mol  [=(1)+(2)+(3)-(4)]
DOCKED: USER    Estimated Inhibition Constant, Ki   =  142.66 nM (nanomolar)  [Temperature = 298.15 K]
DOCKED: USER    
DOCKED: USER    (1) Final Intermolecular Energy     =  -12.02 kcal/mol
DOCKED: USER        vdW + Hbond + desolv Energy     =  -12.02 kcal/mol
DOCKED: USER        Electrostatic Energy            =   +0.00 kcal/mol
DOCKED: USER    (2) Final Total Internal Energy     =   -1.67 kcal/mol
DOCKED: USER    (3) Torsional Free Energy           =   +2.68 kcal/mol
DOCKED: USER    (4) Unbound System's Energy  [=(2)] =   -1.67 kcal/mol
DOCKED: USER    
DOCKED: USER    
DOCKED: USER    NEWDPF move ligand.pdbqt
DOCKED: USER    NEWDPF about 0.300000 0.400000 0.510000
DOCKED: USER    NEWDPF tran0 36.361341 14.750027 122.214665
DOCKED: USER    NEWDPF quaternion0 -0.270804 -0.573550 0.197955 -0.747342
DOCKED: USER    NEWDPF axisangle0 -0.407568 -0.863208 0.297927 -83.278725
DOCKED: USER    NEWDPF quat0 -0.407568 -0.863208 0.297927 -83.278725
DOCKED: USER    NEWDPF dihe0 179.43 -4.47 -168.01 166.93 -41.14 9.74 59.51 -113.77 -177.47 
DOCKED: USER  keepresnum = 1 
DOCKED: USER  
DOCKED: REMARK  Name = 
DOCKED: REMARK  9 active torsions:
DOCKED: REMARK  status: ('A' for Active; 'I' for Inactive)
DOCKED: REMARK    1  A    between atoms: O_1  and  N_2
DOCKED: REMARK    2  A    between atoms: C_3  and  C_4
DOCKED: REMARK    3  A    between atoms: C_4  and  C_5
DOCKED: REMARK    4  A    between atoms: C_5  and  C_6
DOCKED: REMARK    5  A    between atoms: C_6  and  C_7
DOCKED: REMARK    6  A    between atoms: C_7  and  C_8
DOCKED: REMARK    7  A    between atoms: C_8  and  C_9
DOCKED: REMARK    8  A    between atoms: C_9  and  C_10
DOCKED: REMARK    9  A    between atoms: N_11  and  O_12
DOCKED: REMARK                            x       y       z     vdW  Elec       q    Type
DOCKED: REMARK                         _______ _______ _______ _____ _____    ______ ____
DOCKED: USER                              x       y       z     vdW  Elec       q    Type
DOCKED: USER                           _______ _______ _______ _____ _____    ______ ____
DOCKED: ROOT
DOCKED: ATOM      1  C   UNL     1      37.786  13.795 122.224 -0.48 -0.00    +0.000 C 
DOCKED: ENDROOT
DOCKED: BRANCH   1   2
DOCKED: ATOM      2  C   UNL     1      37.170  14.257 123.550 -0.41 -0.00    +0.000 C 
DOCKED: BRANCH   2   3
DOCKED: ATOM      3  C   UNL     1      36.234  15.449 123.336 -0.43 -0.00    +0.000 C 
DOCKED: BRANCH   3   5
DOCKED: ATOM      4  N   UNL     1      34.784  16.136 125.305 -0.39 -0.00    +0.000 N 
DOCKED: ATOM      5  C   UNL     1      34.994  15.300 124.163 -0.58 -0.00    +0.000 C 
DOCKED: ATOM      6  O   UNL     1      34.116  14.461 123.828 -0.60 -0.00    +0.000 OA
DOCKED: ATOM      7  H   UNL     1      35.469  16.796 125.558 -0.02 -0.00    +0.000 HD
DOCKED: BRANCH   4   8
DOCKED: ATOM      8  O   UNL     1      33.652  16.026 126.040 -0.94 -0.00    +0.000 OA
DOCKED: ATOM      9  H   UNL     1      33.083  15.341 125.656 -0.13 -0.00    +0.000 HD
DOCKED: ENDBRANCH   4   8
DOCKED: ENDBRANCH   3   5
DOCKED: ENDBRANCH   2   3
DOCKED: ENDBRANCH   1   2
DOCKED: BRANCH   1  10
DOCKED: ATOM     10  C   UNL     1      37.422  12.333 121.927 -0.51 -0.00    +0.000 C 
DOCKED: BRANCH  10  11
DOCKED: ATOM     11  C   UNL     1      36.532  11.713 123.024 -0.69 -0.00    +0.000 C 
DOCKED: BRANCH  11  12
DOCKED: ATOM     12  C   UNL     1      35.590  10.617 122.501 -0.65 -0.00    +0.000 C 
DOCKED: BRANCH  12  13
DOCKED: ATOM     13  C   UNL     1      36.298   9.312 122.285 -0.71 -0.00    +0.000 C 
DOCKED: ATOM     14  N   UNL     1      36.830   8.585 123.396 -0.65 -0.00    +0.000 N 
DOCKED: ATOM     15  O   UNL     1      36.398   8.842 121.120 -2.27 -0.00    +0.000 OA
DOCKED: ATOM     16  H   UNL     1      36.747   8.953 124.305 -0.42 -0.00    +0.000 HD
DOCKED: BRANCH  14  17
DOCKED: ATOM     17  O   UNL     1      37.446   7.393 123.209 -1.96 -0.00    +0.000 OA
DOCKED: ATOM     18  H   UNL     1      37.382   7.140 122.274 -0.18 -0.00    +0.000 HD
DOCKED: ENDBRANCH  14  17
DOCKED: ENDBRANCH  12  13
DOCKED: ENDBRANCH  11  12
DOCKED: ENDBRANCH  10  11
DOCKED: ENDBRANCH   1  10
DOCKED: TORSDOF 9
DOCKED: TER
DOCKED: ENDMDL
________________________________________________________________________________


	BEGINNING GENETIC ALGORITHM DOCKING 46 of 100
Run: 46 Seed: 1320561344 799869014 [ Run 46 of 100 GA/GALS ]
Beginning LAMARCKIAN GENETIC ALGORITHM (LGA), with a maximum of 2500000 energy evaluations.

Final-Value: -14.477


	FINAL GENETIC ALGORITHM DOCKED STATE
	_______________________________________________


Detailed state:  trans 36.855 15.253 121.768 quatxyzw 0.486088 -0.256137 -0.421394 0.721484 center 0.300 0.400 0.510 ntor 9 -180.0000 19.3077 -134.0190 132.8554 -62.2664 53.8894 165.2670 121.0514 3.8519
State:	 36.855  15.253 121.768   0.702 -0.370 -0.609 87.646   -180.00   19.31 -134.02  132.86  -62.27   53.89  165.27  121.05    3.85

DOCKED: MODEL       46
DOCKED: USER    Run = 46
DOCKED: USER    DPF = ligand_dock.biased.dpf
DOCKED: USER  
DOCKED: USER    Estimated Free Energy of Binding    =  -10.24 kcal/mol  [=(1)+(2)+(3)-(4)]
DOCKED: USER    Estimated Inhibition Constant, Ki   =   31.45 nM (nanomolar)  [Temperature = 298.15 K]
DOCKED: USER    
DOCKED: USER    (1) Final Intermolecular Energy     =  -12.92 kcal/mol
DOCKED: USER        vdW + Hbond + desolv Energy     =  -12.92 kcal/mol
DOCKED: USER        Electrostatic Energy            =   +0.00 kcal/mol
DOCKED: USER    (2) Final Total Internal Energy     =   -1.56 kcal/mol
DOCKED: USER    (3) Torsional Free Energy           =   +2.68 kcal/mol
DOCKED: USER    (4) Unbound System's Energy  [=(2)] =   -1.56 kcal/mol
DOCKED: USER    
DOCKED: USER    
DOCKED: USER    NEWDPF move ligand.pdbqt
DOCKED: USER    NEWDPF about 0.300000 0.400000 0.510000
DOCKED: USER    NEWDPF tran0 36.855274 15.252901 121.767736
DOCKED: USER    NEWDPF quaternion0 0.486088 -0.256137 -0.421394 0.721484
DOCKED: USER    NEWDPF axisangle0 0.702002 -0.369910 -0.608572 87.645696
DOCKED: USER    NEWDPF quat0 0.702002 -0.369910 -0.608572 87.645696
DOCKED: USER    NEWDPF dihe0 -180.00 19.31 -134.02 132.86 -62.27 53.89 165.27 121.05 3.85 
DOCKED: USER  keepresnum = 1 
DOCKED: USER  
DOCKED: REMARK  Name = 
DOCKED: REMARK  9 active torsions:
DOCKED: REMARK  status: ('A' for Active; 'I' for Inactive)
DOCKED: REMARK    1  A    between atoms: O_1  and  N_2
DOCKED: REMARK    2  A    between atoms: C_3  and  C_4
DOCKED: REMARK    3  A    between atoms: C_4  and  C_5
DOCKED: REMARK    4  A    between atoms: C_5  and  C_6
DOCKED: REMARK    5  A    between atoms: C_6  and  C_7
DOCKED: REMARK    6  A    between atoms: C_7  and  C_8
DOCKED: REMARK    7  A    between atoms: C_8  and  C_9
DOCKED: REMARK    8  A    between atoms: C_9  and  C_10
DOCKED: REMARK    9  A    between atoms: N_11  and  O_12
DOCKED: REMARK                            x       y       z     vdW  Elec       q    Type
DOCKED: REMARK                         _______ _______ _______ _____ _____    ______ ____
DOCKED: USER                              x       y       z     vdW  Elec       q    Type
DOCKED: USER                           _______ _______ _______ _____ _____    ______ ____
DOCKED: ROOT
DOCKED: ATOM      1  C   UNL     1      37.438  13.643 121.662 -0.45 -0.00    +0.000 C 
DOCKED: ENDROOT
DOCKED: BRANCH   1   2
DOCKED: ATOM      2  C   UNL     1      38.391  14.816 121.403 -0.35 -0.00    +0.000 C 
DOCKED: BRANCH   2   3
DOCKED: ATOM      3  C   UNL     1      39.002  15.326 122.711 -0.36 -0.00    +0.000 C 
DOCKED: BRANCH   3   5
DOCKED: ATOM      4  N   UNL     1      41.338  16.138 123.288 -0.38 -0.00    +0.000 N 
DOCKED: ATOM      5  C   UNL     1      40.490  15.148 122.701 -0.44 -0.00    +0.000 C 
DOCKED: ATOM      6  O   UNL     1      40.991  14.102 122.208 -1.05 +0.00    +0.000 OA
DOCKED: ATOM      7  H   UNL     1      40.942  16.950 123.680 -0.02 -0.00    +0.000 HD
DOCKED: BRANCH   4   8
DOCKED: ATOM      8  O   UNL     1      42.682  15.970 123.308 -1.11 +0.00    +0.000 OA
DOCKED: ATOM      9  H   UNL     1      42.908  15.127 122.885 -0.05 +0.00    +0.000 HD
DOCKED: ENDBRANCH   4   8
DOCKED: ENDBRANCH   3   5
DOCKED: ENDBRANCH   2   3
DOCKED: ENDBRANCH   1   2
DOCKED: BRANCH   1  10
DOCKED: ATOM     10  C   UNL     1      37.632  13.077 123.076 -0.54 -0.00    +0.000 C 
DOCKED: BRANCH  10  11
DOCKED: ATOM     11  C   UNL     1      36.717  11.867 123.357 -0.69 -0.00    +0.000 C 
DOCKED: BRANCH  11  12
DOCKED: ATOM     12  C   UNL     1      36.295  11.110 122.087 -0.63 -0.00    +0.000 C 
DOCKED: BRANCH  12  13
DOCKED: ATOM     13  C   UNL     1      36.694   9.665 122.125 -0.69 -0.00    +0.000 C 
DOCKED: ATOM     14  N   UNL     1      36.737   8.959 123.368 -0.59 -0.00    +0.000 N 
DOCKED: ATOM     15  O   UNL     1      36.964   9.064 121.051 -2.69 -0.00    +0.000 OA
DOCKED: ATOM     16  H   UNL     1      36.522   9.430 124.206 -0.42 -0.00    +0.000 HD
DOCKED: BRANCH  14  17
DOCKED: ATOM     17  O   UNL     1      37.070   7.646 123.404 -2.26 -0.00    +0.000 OA
DOCKED: ATOM     18  H   UNL     1      37.537   7.409 122.587 -0.19 -0.00    +0.000 HD
DOCKED: ENDBRANCH  14  17
DOCKED: ENDBRANCH  12  13
DOCKED: ENDBRANCH  11  12
DOCKED: ENDBRANCH  10  11
DOCKED: ENDBRANCH   1  10
DOCKED: TORSDOF 9
DOCKED: TER
DOCKED: ENDMDL
________________________________________________________________________________


	BEGINNING GENETIC ALGORITHM DOCKING 47 of 100
Run: 47 Seed: 1068895383 454232093 [ Run 47 of 100 GA/GALS ]
Beginning LAMARCKIAN GENETIC ALGORITHM (LGA), with a maximum of 2500000 energy evaluations.

Final-Value: -12.739


	FINAL GENETIC ALGORITHM DOCKED STATE
	_______________________________________________


Detailed state:  trans 36.037 12.118 121.758 quatxyzw 0.652969 -0.675336 0.294499 -0.175566 center 0.300 0.400 0.510 ntor 9 -178.4774 -0.5629 -178.7349 -164.4272 -16.5860 96.2459 35.4987 -177.3251 -122.0629
State:	 36.037  12.118 121.758   0.663 -0.686  0.299 -159.777   -178.48   -0.56 -178.73 -164.43  -16.59   96.25   35.50 -177.33 -122.06

DOCKED: MODEL       47
DOCKED: USER    Run = 47
DOCKED: USER    DPF = ligand_dock.biased.dpf
DOCKED: USER  
DOCKED: USER    Estimated Free Energy of Binding    =   -8.47 kcal/mol  [=(1)+(2)+(3)-(4)]
DOCKED: USER    Estimated Inhibition Constant, Ki   =  619.62 nM (nanomolar)  [Temperature = 298.15 K]
DOCKED: USER    
DOCKED: USER    (1) Final Intermolecular Energy     =  -11.15 kcal/mol
DOCKED: USER        vdW + Hbond + desolv Energy     =  -11.15 kcal/mol
DOCKED: USER        Electrostatic Energy            =   +0.00 kcal/mol
DOCKED: USER    (2) Final Total Internal Energy     =   -1.59 kcal/mol
DOCKED: USER    (3) Torsional Free Energy           =   +2.68 kcal/mol
DOCKED: USER    (4) Unbound System's Energy  [=(2)] =   -1.59 kcal/mol
DOCKED: USER    
DOCKED: USER    
DOCKED: USER    NEWDPF move ligand.pdbqt
DOCKED: USER    NEWDPF about 0.300000 0.400000 0.510000
DOCKED: USER    NEWDPF tran0 36.037406 12.118106 121.758205
DOCKED: USER    NEWDPF quaternion0 0.652969 -0.675336 0.294499 -0.175566
DOCKED: USER    NEWDPF axisangle0 0.663271 -0.685991 0.299145 -159.776813
DOCKED: USER    NEWDPF quat0 0.663271 -0.685991 0.299145 -159.776813
DOCKED: USER    NEWDPF dihe0 -178.48 -0.56 -178.73 -164.43 -16.59 96.25 35.50 -177.33 -122.06 
DOCKED: USER  keepresnum = 1 
DOCKED: USER  
DOCKED: REMARK  Name = 
DOCKED: REMARK  9 active torsions:
DOCKED: REMARK  status: ('A' for Active; 'I' for Inactive)
DOCKED: REMARK    1  A    between atoms: O_1  and  N_2
DOCKED: REMARK    2  A    between atoms: C_3  and  C_4
DOCKED: REMARK    3  A    between atoms: C_4  and  C_5
DOCKED: REMARK    4  A    between atoms: C_5  and  C_6
DOCKED: REMARK    5  A    between atoms: C_6  and  C_7
DOCKED: REMARK    6  A    between atoms: C_7  and  C_8
DOCKED: REMARK    7  A    between atoms: C_8  and  C_9
DOCKED: REMARK    8  A    between atoms: C_9  and  C_10
DOCKED: REMARK    9  A    between atoms: N_11  and  O_12
DOCKED: REMARK                            x       y       z     vdW  Elec       q    Type
DOCKED: REMARK                         _______ _______ _______ _____ _____    ______ ____
DOCKED: USER                              x       y       z     vdW  Elec       q    Type
DOCKED: USER                           _______ _______ _______ _____ _____    ______ ____
DOCKED: ROOT
DOCKED: ATOM      1  C   UNL     1      36.541  13.257 122.938 -0.57 -0.00    +0.000 C 
DOCKED: ENDROOT
DOCKED: BRANCH   1   2
DOCKED: ATOM      2  C   UNL     1      37.066  11.817 122.997 -0.65 -0.00    +0.000 C 
DOCKED: BRANCH   2   3
DOCKED: ATOM      3  C   UNL     1      35.940  10.811 122.742 -0.69 -0.00    +0.000 C 
DOCKED: BRANCH   3   5
DOCKED: ATOM      4  N   UNL     1      36.627   8.454 123.396 -0.66 -0.00    +0.000 N 
DOCKED: ATOM      5  C   UNL     1      36.504   9.467 122.393 -0.72 -0.00    +0.000 C 
DOCKED: ATOM      6  O   UNL     1      36.835   9.218 121.203 -2.67 -0.00    +0.000 OA
DOCKED: ATOM      7  H   UNL     1      36.359   8.651 124.323 -0.28 -0.00    +0.000 HD
DOCKED: BRANCH   4   8
DOCKED: ATOM      8  O   UNL     1      37.109   7.229 123.082 -2.02 -0.00    +0.000 OA
DOCKED: ATOM      9  H   UNL     1      37.348   7.207 122.142 -0.15 -0.00    +0.000 HD
DOCKED: ENDBRANCH   4   8
DOCKED: ENDBRANCH   3   5
DOCKED: ENDBRANCH   2   3
DOCKED: ENDBRANCH   1   2
DOCKED: BRANCH   1  10
DOCKED: ATOM     10  C   UNL     1      37.586  14.200 122.323 -0.46 -0.00    +0.000 C 
DOCKED: BRANCH  10  11
DOCKED: ATOM     11  C   UNL     1      38.046  13.738 120.925 -0.41 -0.00    +0.000 C 
DOCKED: BRANCH  11  12
DOCKED: ATOM     12  C   UNL     1      37.152  14.254 119.785 -0.32 -0.00    +0.000 C 
DOCKED: BRANCH  12  13
DOCKED: ATOM     13  C   UNL     1      37.806  14.117 118.442 -0.32 -0.00    +0.000 C 
DOCKED: ATOM     14  N   UNL     1      37.547  12.972 117.625 -0.41 -0.00    +0.000 N 
DOCKED: ATOM     15  O   UNL     1      38.564  15.031 118.021 -0.22 -0.00    +0.000 OA
DOCKED: ATOM     16  H   UNL     1      36.952  12.260 117.955 -0.02 -0.00    +0.000 HD
DOCKED: BRANCH  14  17
DOCKED: ATOM     17  O   UNL     1      38.114  12.857 116.400 -0.53 -0.00    +0.000 OA
DOCKED: ATOM     18  H   UNL     1      38.660  13.639 116.222 -0.06 -0.00    +0.000 HD
DOCKED: ENDBRANCH  14  17
DOCKED: ENDBRANCH  12  13
DOCKED: ENDBRANCH  11  12
DOCKED: ENDBRANCH  10  11
DOCKED: ENDBRANCH   1  10
DOCKED: TORSDOF 9
DOCKED: TER
DOCKED: ENDMDL
________________________________________________________________________________


	BEGINNING GENETIC ALGORITHM DOCKING 48 of 100
Run: 48 Seed: 614203978 1520603314 [ Run 48 of 100 GA/GALS ]
Beginning LAMARCKIAN GENETIC ALGORITHM (LGA), with a maximum of 2500000 energy evaluations.

Final-Value: -12.938


	FINAL GENETIC ALGORITHM DOCKED STATE
	_______________________________________________


Detailed state:  trans 36.105 12.839 120.505 quatxyzw -0.544025 0.814151 -0.202574 0.012580 center 0.300 0.400 0.510 ntor 9 -170.6639 9.4031 -82.8607 -85.5252 -5.0222 6.5676 -92.0942 89.4763 -3.3378
State:	 36.105  12.839 120.505  -0.544  0.814 -0.203 178.558   -170.66    9.40  -82.86  -85.53   -5.02    6.57  -92.09   89.48   -3.34

DOCKED: MODEL       48
DOCKED: USER    Run = 48
DOCKED: USER    DPF = ligand_dock.biased.dpf
DOCKED: USER  
DOCKED: USER    Estimated Free Energy of Binding    =   -8.87 kcal/mol  [=(1)+(2)+(3)-(4)]
DOCKED: USER    Estimated Inhibition Constant, Ki   =  313.12 nM (nanomolar)  [Temperature = 298.15 K]
DOCKED: USER    
DOCKED: USER    (1) Final Intermolecular Energy     =  -11.56 kcal/mol
DOCKED: USER        vdW + Hbond + desolv Energy     =  -11.56 kcal/mol
DOCKED: USER        Electrostatic Energy            =   +0.00 kcal/mol
DOCKED: USER    (2) Final Total Internal Energy     =   -1.38 kcal/mol
DOCKED: USER    (3) Torsional Free Energy           =   +2.68 kcal/mol
DOCKED: USER    (4) Unbound System's Energy  [=(2)] =   -1.38 kcal/mol
DOCKED: USER    
DOCKED: USER    
DOCKED: USER    NEWDPF move ligand.pdbqt
DOCKED: USER    NEWDPF about 0.300000 0.400000 0.510000
DOCKED: USER    NEWDPF tran0 36.104891 12.838544 120.504811
DOCKED: USER    NEWDPF quaternion0 -0.544025 0.814151 -0.202574 0.012580
DOCKED: USER    NEWDPF axisangle0 -0.544068 0.814216 -0.202590 178.558439
DOCKED: USER    NEWDPF quat0 -0.544068 0.814216 -0.202590 178.558439
DOCKED: USER    NEWDPF dihe0 -170.66 9.40 -82.86 -85.53 -5.02 6.57 -92.09 89.48 -3.34 
DOCKED: USER  keepresnum = 1 
DOCKED: USER  
DOCKED: REMARK  Name = 
DOCKED: REMARK  9 active torsions:
DOCKED: REMARK  status: ('A' for Active; 'I' for Inactive)
DOCKED: REMARK    1  A    between atoms: O_1  and  N_2
DOCKED: REMARK    2  A    between atoms: C_3  and  C_4
DOCKED: REMARK    3  A    between atoms: C_4  and  C_5
DOCKED: REMARK    4  A    between atoms: C_5  and  C_6
DOCKED: REMARK    5  A    between atoms: C_6  and  C_7
DOCKED: REMARK    6  A    between atoms: C_7  and  C_8
DOCKED: REMARK    7  A    between atoms: C_8  and  C_9
DOCKED: REMARK    8  A    between atoms: C_9  and  C_10
DOCKED: REMARK    9  A    between atoms: N_11  and  O_12
DOCKED: REMARK                            x       y       z     vdW  Elec       q    Type
DOCKED: REMARK                         _______ _______ _______ _____ _____    ______ ____
DOCKED: USER                              x       y       z     vdW  Elec       q    Type
DOCKED: USER                           _______ _______ _______ _____ _____    ______ ____
DOCKED: ROOT
DOCKED: ATOM      1  C   UNL     1      36.522  13.305 122.102 -0.32 -0.00    +0.000 C 
DOCKED: ENDROOT
DOCKED: BRANCH   1   2
DOCKED: ATOM      2  C   UNL     1      36.692  11.845 121.666 -0.58 -0.00    +0.000 C 
DOCKED: BRANCH   2   3
DOCKED: ATOM      3  C   UNL     1      37.030  10.950 122.862 -0.62 -0.00    +0.000 C 
DOCKED: BRANCH   3   5
DOCKED: ATOM      4  N   UNL     1      37.069   8.476 123.437 -0.68 -0.00    +0.000 N 
DOCKED: ATOM      5  C   UNL     1      37.063   9.510 122.448 -0.61 -0.00    +0.000 C 
DOCKED: ATOM      6  O   UNL     1      37.045   9.210 121.225 -2.71 -0.00    +0.000 OA
DOCKED: ATOM      7  H   UNL     1      37.073   8.715 124.392 -0.50 -0.00    +0.000 HD
DOCKED: BRANCH   4   8
DOCKED: ATOM      8  O   UNL     1      37.070   7.173 123.071 -1.99 -0.00    +0.000 OA
DOCKED: ATOM      9  H   UNL     1      37.215   7.106 122.114 -0.14 -0.00    +0.000 HD
DOCKED: ENDBRANCH   4   8
DOCKED: ENDBRANCH   3   5
DOCKED: ENDBRANCH   2   3
DOCKED: ENDBRANCH   1   2
DOCKED: BRANCH   1  10
DOCKED: ATOM     10  C   UNL     1      37.868  14.045 122.082 -0.46 -0.00    +0.000 C 
DOCKED: BRANCH  10  11
DOCKED: ATOM     11  C   UNL     1      37.716  15.551 122.383 -0.33 -0.00    +0.000 C 
DOCKED: BRANCH  11  12
DOCKED: ATOM     12  C   UNL     1      36.253  16.010 122.486 -0.31 -0.00    +0.000 C 
DOCKED: BRANCH  12  13
DOCKED: ATOM     13  C   UNL     1      35.610  15.579 123.771 -0.49 -0.00    +0.000 C 
DOCKED: ATOM     14  N   UNL     1      34.294  16.025 124.107 -0.53 -0.00    +0.000 N 
DOCKED: ATOM     15  O   UNL     1      36.224  14.794 124.543 -0.45 -0.00    +0.000 OA
DOCKED: ATOM     16  H   UNL     1      33.815  16.635 123.501 -0.03 -0.00    +0.000 HD
DOCKED: BRANCH  14  17
DOCKED: ATOM     17  O   UNL     1      33.699  15.616 125.253 -0.75 -0.00    +0.000 OA
DOCKED: ATOM     18  H   UNL     1      34.346  15.147 125.804 -0.05 -0.00    +0.000 HD
DOCKED: ENDBRANCH  14  17
DOCKED: ENDBRANCH  12  13
DOCKED: ENDBRANCH  11  12
DOCKED: ENDBRANCH  10  11
DOCKED: ENDBRANCH   1  10
DOCKED: TORSDOF 9
DOCKED: TER
DOCKED: ENDMDL
________________________________________________________________________________


	BEGINNING GENETIC ALGORITHM DOCKING 49 of 100
Run: 49 Seed: 745368429 2046952489 [ Run 49 of 100 GA/GALS ]
Beginning LAMARCKIAN GENETIC ALGORITHM (LGA), with a maximum of 2500000 energy evaluations.

Final-Value: -12.821


	FINAL GENETIC ALGORITHM DOCKED STATE
	_______________________________________________


Detailed state:  trans 33.981 7.720 120.780 quatxyzw -0.327994 0.852885 -0.234394 -0.331762 center 0.300 0.400 0.510 ntor 9 -177.1058 30.4178 16.7897 -160.3238 -142.9843 -125.0122 28.6309 -134.4782 -152.5892
State:	 33.981   7.720 120.780  -0.348  0.904 -0.248 -141.248   -177.11   30.42   16.79 -160.32 -142.98 -125.01   28.63 -134.48 -152.59

DOCKED: MODEL       49
DOCKED: USER    Run = 49
DOCKED: USER    DPF = ligand_dock.biased.dpf
DOCKED: USER  
DOCKED: USER    Estimated Free Energy of Binding    =   -8.54 kcal/mol  [=(1)+(2)+(3)-(4)]
DOCKED: USER    Estimated Inhibition Constant, Ki   =  549.12 nM (nanomolar)  [Temperature = 298.15 K]
DOCKED: USER    
DOCKED: USER    (1) Final Intermolecular Energy     =  -11.23 kcal/mol
DOCKED: USER        vdW + Hbond + desolv Energy     =  -11.23 kcal/mol
DOCKED: USER        Electrostatic Energy            =   +0.00 kcal/mol
DOCKED: USER    (2) Final Total Internal Energy     =   -1.60 kcal/mol
DOCKED: USER    (3) Torsional Free Energy           =   +2.68 kcal/mol
DOCKED: USER    (4) Unbound System's Energy  [=(2)] =   -1.60 kcal/mol
DOCKED: USER    
DOCKED: USER    
DOCKED: USER    NEWDPF move ligand.pdbqt
DOCKED: USER    NEWDPF about 0.300000 0.400000 0.510000
DOCKED: USER    NEWDPF tran0 33.981145 7.720141 120.779666
DOCKED: USER    NEWDPF quaternion0 -0.327994 0.852885 -0.234394 -0.331762
DOCKED: USER    NEWDPF axisangle0 -0.347686 0.904090 -0.248467 -141.248481
DOCKED: USER    NEWDPF quat0 -0.347686 0.904090 -0.248467 -141.248481
DOCKED: USER    NEWDPF dihe0 -177.11 30.42 16.79 -160.32 -142.98 -125.01 28.63 -134.48 -152.59 
DOCKED: USER  keepresnum = 1 
DOCKED: USER  
DOCKED: REMARK  Name = 
DOCKED: REMARK  9 active torsions:
DOCKED: REMARK  status: ('A' for Active; 'I' for Inactive)
DOCKED: REMARK    1  A    between atoms: O_1  and  N_2
DOCKED: REMARK    2  A    between atoms: C_3  and  C_4
DOCKED: REMARK    3  A    between atoms: C_4  and  C_5
DOCKED: REMARK    4  A    between atoms: C_5  and  C_6
DOCKED: REMARK    5  A    between atoms: C_6  and  C_7
DOCKED: REMARK    6  A    between atoms: C_7  and  C_8
DOCKED: REMARK    7  A    between atoms: C_8  and  C_9
DOCKED: REMARK    8  A    between atoms: C_9  and  C_10
DOCKED: REMARK    9  A    between atoms: N_11  and  O_12
DOCKED: REMARK                            x       y       z     vdW  Elec       q    Type
DOCKED: REMARK                         _______ _______ _______ _____ _____    ______ ____
DOCKED: USER                              x       y       z     vdW  Elec       q    Type
DOCKED: USER                           _______ _______ _______ _____ _____    ______ ____
DOCKED: ROOT
DOCKED: ATOM      1  C   UNL     1      33.275   7.652 122.341 -0.64 -0.00    +0.000 C 
DOCKED: ENDROOT
DOCKED: BRANCH   1   2
DOCKED: ATOM      2  C   UNL     1      33.517   6.356 121.558 -0.51 -0.00    +0.000 C 
DOCKED: BRANCH   2   3
DOCKED: ATOM      3  C   UNL     1      32.954   6.459 120.139 -0.18 -0.00    +0.000 C 
DOCKED: BRANCH   3   5
DOCKED: ATOM      4  N   UNL     1      32.441   8.946 120.175 -0.46 -0.00    +0.000 N 
DOCKED: ATOM      5  C   UNL     1      33.144   7.843 119.596 -0.58 -0.00    +0.000 C 
DOCKED: ATOM      6  O   UNL     1      33.955   8.039 118.653 -0.68 +0.00    +0.000 OA
DOCKED: ATOM      7  H   UNL     1      31.814   8.790 120.918 +0.04 -0.00    +0.000 HD
DOCKED: BRANCH   4   8
DOCKED: ATOM      8  O   UNL     1      32.629  10.203 119.708 -0.42 -0.00    +0.000 OA
DOCKED: ATOM      9  H   UNL     1      33.235  10.180 118.952 -0.60 -0.00    +0.000 HD
DOCKED: ENDBRANCH   4   8
DOCKED: ENDBRANCH   3   5
DOCKED: ENDBRANCH   2   3
DOCKED: ENDBRANCH   1   2
DOCKED: BRANCH   1  10
DOCKED: ATOM     10  C   UNL     1      34.364   7.866 123.403 -0.70 -0.00    +0.000 C 
DOCKED: BRANCH  10  11
DOCKED: ATOM     11  C   UNL     1      35.686   7.157 123.043 -0.77 -0.00    +0.000 C 
DOCKED: BRANCH  11  12
DOCKED: ATOM     12  C   UNL     1      36.917   8.072 123.141 -0.74 -0.00    +0.000 C 
DOCKED: BRANCH  12  13
DOCKED: ATOM     13  C   UNL     1      36.789   9.294 122.280 -0.70 -0.00    +0.000 C 
DOCKED: ATOM     14  N   UNL     1      36.383  10.541 122.850 -0.63 -0.00    +0.000 N 
DOCKED: ATOM     15  O   UNL     1      37.070   9.225 121.053 -2.73 -0.00    +0.000 OA
DOCKED: ATOM     16  H   UNL     1      36.167  10.592 123.809 -0.10 -0.00    +0.000 HD
DOCKED: BRANCH  14  17
DOCKED: ATOM     17  O   UNL     1      36.293  11.653 122.082 -0.60 -0.00    +0.000 OA
DOCKED: ATOM     18  H   UNL     1      36.058  11.401 121.175 -0.23 -0.00    +0.000 HD
DOCKED: ENDBRANCH  14  17
DOCKED: ENDBRANCH  12  13
DOCKED: ENDBRANCH  11  12
DOCKED: ENDBRANCH  10  11
DOCKED: ENDBRANCH   1  10
DOCKED: TORSDOF 9
DOCKED: TER
DOCKED: ENDMDL
________________________________________________________________________________


	BEGINNING GENETIC ALGORITHM DOCKING 50 of 100
Run: 50 Seed: 736108842 573339972 [ Run 50 of 100 GA/GALS ]
Beginning LAMARCKIAN GENETIC ALGORITHM (LGA), with a maximum of 2500000 energy evaluations.

Final-Value: -13.045


	FINAL GENETIC ALGORITHM DOCKED STATE
	_______________________________________________


Detailed state:  trans 35.212 14.326 124.468 quatxyzw -0.140474 0.230005 0.810204 -0.520514 center 0.300 0.400 0.510 ntor 9 -179.9751 9.4391 170.6919 179.3823 -63.7770 71.0270 23.8692 127.3358 -16.8597
State:	 35.212  14.326 124.468  -0.165  0.269  0.949 -117.267   -179.98    9.44  170.69  179.38  -63.78   71.03   23.87  127.34  -16.86

DOCKED: MODEL       50
DOCKED: USER    Run = 50
DOCKED: USER    DPF = ligand_dock.biased.dpf
DOCKED: USER  
DOCKED: USER    Estimated Free Energy of Binding    =   -8.87 kcal/mol  [=(1)+(2)+(3)-(4)]
DOCKED: USER    Estimated Inhibition Constant, Ki   =  315.41 nM (nanomolar)  [Temperature = 298.15 K]
DOCKED: USER    
DOCKED: USER    (1) Final Intermolecular Energy     =  -11.55 kcal/mol
DOCKED: USER        vdW + Hbond + desolv Energy     =  -11.55 kcal/mol
DOCKED: USER        Electrostatic Energy            =   +0.00 kcal/mol
DOCKED: USER    (2) Final Total Internal Energy     =   -1.49 kcal/mol
DOCKED: USER    (3) Torsional Free Energy           =   +2.68 kcal/mol
DOCKED: USER    (4) Unbound System's Energy  [=(2)] =   -1.49 kcal/mol
DOCKED: USER    
DOCKED: USER    
DOCKED: USER    NEWDPF move ligand.pdbqt
DOCKED: USER    NEWDPF about 0.300000 0.400000 0.510000
DOCKED: USER    NEWDPF tran0 35.211707 14.325829 124.468432
DOCKED: USER    NEWDPF quaternion0 -0.140474 0.230005 0.810204 -0.520514
DOCKED: USER    NEWDPF axisangle0 -0.164518 0.269373 0.948879 -117.266582
DOCKED: USER    NEWDPF quat0 -0.164518 0.269373 0.948879 -117.266582
DOCKED: USER    NEWDPF dihe0 -179.98 9.44 170.69 179.38 -63.78 71.03 23.87 127.34 -16.86 
DOCKED: USER  keepresnum = 1 
DOCKED: USER  
DOCKED: REMARK  Name = 
DOCKED: REMARK  9 active torsions:
DOCKED: REMARK  status: ('A' for Active; 'I' for Inactive)
DOCKED: REMARK    1  A    between atoms: O_1  and  N_2
DOCKED: REMARK    2  A    between atoms: C_3  and  C_4
DOCKED: REMARK    3  A    between atoms: C_4  and  C_5
DOCKED: REMARK    4  A    between atoms: C_5  and  C_6
DOCKED: REMARK    5  A    between atoms: C_6  and  C_7
DOCKED: REMARK    6  A    between atoms: C_7  and  C_8
DOCKED: REMARK    7  A    between atoms: C_8  and  C_9
DOCKED: REMARK    8  A    between atoms: C_9  and  C_10
DOCKED: REMARK    9  A    between atoms: N_11  and  O_12
DOCKED: REMARK                            x       y       z     vdW  Elec       q    Type
DOCKED: REMARK                         _______ _______ _______ _____ _____    ______ ____
DOCKED: USER                              x       y       z     vdW  Elec       q    Type
DOCKED: USER                           _______ _______ _______ _____ _____    ______ ____
DOCKED: ROOT
DOCKED: ATOM      1  C   UNL     1      35.934  13.628 123.078 -0.45 -0.00    +0.000 C 
DOCKED: ENDROOT
DOCKED: BRANCH   1   2
DOCKED: ATOM      2  C   UNL     1      35.923  15.152 123.247 -0.45 -0.00    +0.000 C 
DOCKED: BRANCH   2   3
DOCKED: ATOM      3  C   UNL     1      34.499  15.672 123.459 -0.50 -0.00    +0.000 C 
DOCKED: BRANCH   3   5
DOCKED: ATOM      4  N   UNL     1      34.682  17.662 125.027 -0.35 -0.00    +0.000 N 
DOCKED: ATOM      5  C   UNL     1      34.359  16.284 124.820 -0.53 -0.00    +0.000 C 
DOCKED: ATOM      6  O   UNL     1      33.918  15.590 125.775 -0.84 -0.00    +0.000 OA
DOCKED: ATOM      7  H   UNL     1      35.018  18.202 124.276 -0.01 -0.00    +0.000 HD
DOCKED: BRANCH   4   8
DOCKED: ATOM      8  O   UNL     1      34.531  18.228 126.247 -0.30 -0.00    +0.000 OA
DOCKED: ATOM      9  H   UNL     1      34.196  17.566 126.872 -0.01 -0.00    +0.000 HD
DOCKED: ENDBRANCH   4   8
DOCKED: ENDBRANCH   3   5
DOCKED: ENDBRANCH   2   3
DOCKED: ENDBRANCH   1   2
DOCKED: BRANCH   1  10
DOCKED: ATOM     10  C   UNL     1      37.303  13.041 123.454 -0.58 -0.00    +0.000 C 
DOCKED: BRANCH  10  11
DOCKED: ATOM     11  C   UNL     1      37.233  11.529 123.752 -0.55 -0.00    +0.000 C 
DOCKED: BRANCH  11  12
DOCKED: ATOM     12  C   UNL     1      36.159  10.793 122.935 -0.70 -0.00    +0.000 C 
DOCKED: BRANCH  12  13
DOCKED: ATOM     13  C   UNL     1      36.634   9.458 122.441 -0.72 -0.00    +0.000 C 
DOCKED: ATOM     14  N   UNL     1      36.666   8.331 123.321 -0.69 -0.00    +0.000 N 
DOCKED: ATOM     15  O   UNL     1      36.978   9.326 121.236 -2.59 -0.00    +0.000 OA
DOCKED: ATOM     16  H   UNL     1      36.393   8.436 124.260 -0.29 -0.00    +0.000 HD
DOCKED: BRANCH  14  17
DOCKED: ATOM     17  O   UNL     1      37.068   7.118 122.871 -1.84 -0.00    +0.000 OA
DOCKED: ATOM     18  H   UNL     1      37.440   7.210 121.980 -0.16 -0.00    +0.000 HD
DOCKED: ENDBRANCH  14  17
DOCKED: ENDBRANCH  12  13
DOCKED: ENDBRANCH  11  12
DOCKED: ENDBRANCH  10  11
DOCKED: ENDBRANCH   1  10
DOCKED: TORSDOF 9
DOCKED: TER
DOCKED: ENDMDL
________________________________________________________________________________


	BEGINNING GENETIC ALGORITHM DOCKING 51 of 100
Run: 51 Seed: 1765027715 916085017 [ Run 51 of 100 GA/GALS ]
Beginning LAMARCKIAN GENETIC ALGORITHM (LGA), with a maximum of 2500000 energy evaluations.

Final-Value: -14.214


	FINAL GENETIC ALGORITHM DOCKED STATE
	_______________________________________________


Detailed state:  trans 35.695 12.394 122.154 quatxyzw -0.791695 0.581792 -0.147633 -0.113760 center 0.300 0.400 0.510 ntor 9 -179.5194 0.4620 121.0689 167.7608 40.4990 -176.9606 47.7915 -113.5495 -45.7828
State:	 35.695  12.394 122.154  -0.797  0.586 -0.149 -166.936   -179.52    0.46  121.07  167.76   40.50 -176.96   47.79 -113.55  -45.78

DOCKED: MODEL       51
DOCKED: USER    Run = 51
DOCKED: USER    DPF = ligand_dock.biased.dpf
DOCKED: USER  
DOCKED: USER    Estimated Free Energy of Binding    =  -10.03 kcal/mol  [=(1)+(2)+(3)-(4)]
DOCKED: USER    Estimated Inhibition Constant, Ki   =   44.37 nM (nanomolar)  [Temperature = 298.15 K]
DOCKED: USER    
DOCKED: USER    (1) Final Intermolecular Energy     =  -12.72 kcal/mol
DOCKED: USER        vdW + Hbond + desolv Energy     =  -12.72 kcal/mol
DOCKED: USER        Electrostatic Energy            =   +0.00 kcal/mol
DOCKED: USER    (2) Final Total Internal Energy     =   -1.50 kcal/mol
DOCKED: USER    (3) Torsional Free Energy           =   +2.68 kcal/mol
DOCKED: USER    (4) Unbound System's Energy  [=(2)] =   -1.50 kcal/mol
DOCKED: USER    
DOCKED: USER    
DOCKED: USER    NEWDPF move ligand.pdbqt
DOCKED: USER    NEWDPF about 0.300000 0.400000 0.510000
DOCKED: USER    NEWDPF tran0 35.694865 12.394228 122.154158
DOCKED: USER    NEWDPF quaternion0 -0.791695 0.581792 -0.147633 -0.113760
DOCKED: USER    NEWDPF axisangle0 -0.796868 0.585593 -0.148598 -166.935827
DOCKED: USER    NEWDPF quat0 -0.796868 0.585593 -0.148598 -166.935827
DOCKED: USER    NEWDPF dihe0 -179.52 0.46 121.07 167.76 40.50 -176.96 47.79 -113.55 -45.78 
DOCKED: USER  keepresnum = 1 
DOCKED: USER  
DOCKED: REMARK  Name = 
DOCKED: REMARK  9 active torsions:
DOCKED: REMARK  status: ('A' for Active; 'I' for Inactive)
DOCKED: REMARK    1  A    between atoms: O_1  and  N_2
DOCKED: REMARK    2  A    between atoms: C_3  and  C_4
DOCKED: REMARK    3  A    between atoms: C_4  and  C_5
DOCKED: REMARK    4  A    between atoms: C_5  and  C_6
DOCKED: REMARK    5  A    between atoms: C_6  and  C_7
DOCKED: REMARK    6  A    between atoms: C_7  and  C_8
DOCKED: REMARK    7  A    between atoms: C_8  and  C_9
DOCKED: REMARK    8  A    between atoms: C_9  and  C_10
DOCKED: REMARK    9  A    between atoms: N_11  and  O_12
DOCKED: REMARK                            x       y       z     vdW  Elec       q    Type
DOCKED: REMARK                         _______ _______ _______ _____ _____    ______ ____
DOCKED: USER                              x       y       z     vdW  Elec       q    Type
DOCKED: USER                           _______ _______ _______ _____ _____    ______ ____
DOCKED: ROOT
DOCKED: ATOM      1  C   UNL     1      35.719  12.784 123.824 -0.46 -0.00    +0.000 C 
DOCKED: ENDROOT
DOCKED: BRANCH   1   2
DOCKED: ATOM      2  C   UNL     1      36.806  11.875 123.239 -0.68 -0.00    +0.000 C 
DOCKED: BRANCH   2   3
DOCKED: ATOM      3  C   UNL     1      36.262  11.051 122.069 -0.62 -0.00    +0.000 C 
DOCKED: BRANCH   3   5
DOCKED: ATOM      4  N   UNL     1      36.971   8.989 123.373 -0.60 -0.00    +0.000 N 
DOCKED: ATOM      5  C   UNL     1      36.798   9.652 122.117 -0.66 -0.00    +0.000 C 
DOCKED: ATOM      6  O   UNL     1      37.059   9.046 121.044 -2.72 -0.00    +0.000 OA
DOCKED: ATOM      7  H   UNL     1      36.757   9.464 124.208 -0.50 -0.00    +0.000 HD
DOCKED: BRANCH   4   8
DOCKED: ATOM      8  O   UNL     1      37.428   7.716 123.422 -2.18 -0.00    +0.000 OA
DOCKED: ATOM      9  H   UNL     1      37.598   7.399 122.521 -0.18 -0.00    +0.000 HD
DOCKED: ENDBRANCH   4   8
DOCKED: ENDBRANCH   3   5
DOCKED: ENDBRANCH   2   3
DOCKED: ENDBRANCH   1   2
DOCKED: BRANCH   1  10
DOCKED: ATOM     10  C   UNL     1      36.238  14.218 124.006 -0.45 -0.00    +0.000 C 
DOCKED: BRANCH  10  11
DOCKED: ATOM     11  C   UNL     1      35.263  15.273 123.445 -0.49 -0.00    +0.000 C 
DOCKED: BRANCH  11  12
DOCKED: ATOM     12  C   UNL     1      35.333  16.623 124.177 -0.43 -0.00    +0.000 C 
DOCKED: BRANCH  12  13
DOCKED: ATOM     13  C   UNL     1      34.118  16.878 125.020 -0.47 -0.00    +0.000 C 
DOCKED: ATOM     14  N   UNL     1      33.856  16.072 126.172 -0.45 -0.00    +0.000 N 
DOCKED: ATOM     15  O   UNL     1      33.343  17.826 124.725 -0.43 -0.00    +0.000 OA
DOCKED: ATOM     16  H   UNL     1      34.465  15.335 126.402 -0.02 -0.00    +0.000 HD
DOCKED: BRANCH  14  17
DOCKED: ATOM     17  O   UNL     1      32.775  16.317 126.952 -1.10 -0.00    +0.000 OA
DOCKED: ATOM     18  H   UNL     1      32.277  17.066 126.588 -0.26 -0.00    +0.000 HD
DOCKED: ENDBRANCH  14  17
DOCKED: ENDBRANCH  12  13
DOCKED: ENDBRANCH  11  12
DOCKED: ENDBRANCH  10  11
DOCKED: ENDBRANCH   1  10
DOCKED: TORSDOF 9
DOCKED: TER
DOCKED: ENDMDL
________________________________________________________________________________


	BEGINNING GENETIC ALGORITHM DOCKING 52 of 100
Run: 52 Seed: 297557232 356438909 [ Run 52 of 100 GA/GALS ]
Beginning LAMARCKIAN GENETIC ALGORITHM (LGA), with a maximum of 2500000 energy evaluations.

Final-Value: -13.213


	FINAL GENETIC ALGORITHM DOCKED STATE
	_______________________________________________


Detailed state:  trans 35.305 12.232 122.299 quatxyzw 0.856288 -0.508823 0.080408 -0.037480 center 0.300 0.400 0.510 ntor 9 170.2577 1.8620 93.6040 -165.8325 -44.1060 -168.2871 -30.6487 -157.7957 153.7498
State:	 35.305  12.232 122.299   0.857 -0.509  0.080 -175.704    170.26    1.86   93.60 -165.83  -44.11 -168.29  -30.65 -157.80  153.75

DOCKED: MODEL       52
DOCKED: USER    Run = 52
DOCKED: USER    DPF = ligand_dock.biased.dpf
DOCKED: USER  
DOCKED: USER    Estimated Free Energy of Binding    =   -7.91 kcal/mol  [=(1)+(2)+(3)-(4)]
DOCKED: USER    Estimated Inhibition Constant, Ki   =    1.59 uM (micromolar)  [Temperature = 298.15 K]
DOCKED: USER    
DOCKED: USER    (1) Final Intermolecular Energy     =  -10.60 kcal/mol
DOCKED: USER        vdW + Hbond + desolv Energy     =  -10.60 kcal/mol
DOCKED: USER        Electrostatic Energy            =   +0.00 kcal/mol
DOCKED: USER    (2) Final Total Internal Energy     =   -2.62 kcal/mol
DOCKED: USER    (3) Torsional Free Energy           =   +2.68 kcal/mol
DOCKED: USER    (4) Unbound System's Energy  [=(2)] =   -2.62 kcal/mol
DOCKED: USER    
DOCKED: USER    
DOCKED: USER    NEWDPF move ligand.pdbqt
DOCKED: USER    NEWDPF about 0.300000 0.400000 0.510000
DOCKED: USER    NEWDPF tran0 35.305141 12.232110 122.299033
DOCKED: USER    NEWDPF quaternion0 0.856288 -0.508823 0.080408 -0.037480
DOCKED: USER    NEWDPF axisangle0 0.856890 -0.509181 0.080465 -175.704093
DOCKED: USER    NEWDPF quat0 0.856890 -0.509181 0.080465 -175.704093
DOCKED: USER    NEWDPF dihe0 170.26 1.86 93.60 -165.83 -44.11 -168.29 -30.65 -157.80 153.75 
DOCKED: USER  keepresnum = 1 
DOCKED: USER  
DOCKED: REMARK  Name = 
DOCKED: REMARK  9 active torsions:
DOCKED: REMARK  status: ('A' for Active; 'I' for Inactive)
DOCKED: REMARK    1  A    between atoms: O_1  and  N_2
DOCKED: REMARK    2  A    between atoms: C_3  and  C_4
DOCKED: REMARK    3  A    between atoms: C_4  and  C_5
DOCKED: REMARK    4  A    between atoms: C_5  and  C_6
DOCKED: REMARK    5  A    between atoms: C_6  and  C_7
DOCKED: REMARK    6  A    between atoms: C_7  and  C_8
DOCKED: REMARK    7  A    between atoms: C_8  and  C_9
DOCKED: REMARK    8  A    between atoms: C_9  and  C_10
DOCKED: REMARK    9  A    between atoms: N_11  and  O_12
DOCKED: REMARK                            x       y       z     vdW  Elec       q    Type
DOCKED: REMARK                         _______ _______ _______ _____ _____    ______ ____
DOCKED: USER                              x       y       z     vdW  Elec       q    Type
DOCKED: USER                           _______ _______ _______ _____ _____    ______ ____
DOCKED: ROOT
DOCKED: ATOM      1  C   UNL     1      35.696  12.974 123.795 -0.46 -0.00    +0.000 C 
DOCKED: ENDROOT
DOCKED: BRANCH   1   2
DOCKED: ATOM      2  C   UNL     1      36.740  12.110 123.079 -0.67 -0.00    +0.000 C 
DOCKED: BRANCH   2   3
DOCKED: ATOM      3  C   UNL     1      36.977  10.798 123.832 -0.32 -0.00    +0.000 C 
DOCKED: BRANCH   3   5
DOCKED: ATOM      4  N   UNL     1      37.057   9.875 121.467 -0.56 -0.00    +0.000 N 
DOCKED: ATOM      5  C   UNL     1      37.015   9.643 122.878 -0.60 -0.00    +0.000 C 
DOCKED: ATOM      6  O   UNL     1      37.050   8.465 123.323 -1.89 -0.00    +0.000 OA
DOCKED: ATOM      7  H   UNL     1      37.039  10.798 121.124 -0.02 -0.00    +0.000 HD
DOCKED: BRANCH   4   8
DOCKED: ATOM      8  O   UNL     1      37.120   8.837 120.600 -2.47 -0.00    +0.000 OA
DOCKED: ATOM      9  H   UNL     1      37.284   8.017 121.090 -0.10 -0.00    +0.000 HD
DOCKED: ENDBRANCH   4   8
DOCKED: ENDBRANCH   3   5
DOCKED: ENDBRANCH   2   3
DOCKED: ENDBRANCH   1   2
DOCKED: BRANCH   1  10
DOCKED: ATOM     10  C   UNL     1      35.968  14.469 123.567 -0.53 -0.00    +0.000 C 
DOCKED: BRANCH  10  11
DOCKED: ATOM     11  C   UNL     1      37.463  14.767 123.335 -0.41 -0.00    +0.000 C 
DOCKED: BRANCH  11  12
DOCKED: ATOM     12  C   UNL     1      37.801  15.103 121.874 -0.33 -0.00    +0.000 C 
DOCKED: BRANCH  12  13
DOCKED: ATOM     13  C   UNL     1      38.383  13.932 121.139 -0.40 -0.00    +0.000 C 
DOCKED: ATOM     14  N   UNL     1      37.539  13.060 120.382 -0.44 -0.00    +0.000 N 
DOCKED: ATOM     15  O   UNL     1      39.627  13.735 121.167 -0.69 -0.00    +0.000 OA
DOCKED: ATOM     16  H   UNL     1      36.568  13.219 120.359 -0.03 -0.00    +0.000 HD
DOCKED: BRANCH  14  17
DOCKED: ATOM     17  O   UNL     1      38.064  12.018 119.695 -0.53 -0.00    +0.000 OA
DOCKED: ATOM     18  H   UNL     1      39.022  11.983 119.844 -0.12 -0.00    +0.000 HD
DOCKED: ENDBRANCH  14  17
DOCKED: ENDBRANCH  12  13
DOCKED: ENDBRANCH  11  12
DOCKED: ENDBRANCH  10  11
DOCKED: ENDBRANCH   1  10
DOCKED: TORSDOF 9
DOCKED: TER
DOCKED: ENDMDL
________________________________________________________________________________


	BEGINNING GENETIC ALGORITHM DOCKING 53 of 100
Run: 53 Seed: 730090692 1401694701 [ Run 53 of 100 GA/GALS ]
Beginning LAMARCKIAN GENETIC ALGORITHM (LGA), with a maximum of 2500000 energy evaluations.

Final-Value: -13.394


	FINAL GENETIC ALGORITHM DOCKED STATE
	_______________________________________________


Detailed state:  trans 36.514 15.461 123.025 quatxyzw 0.385098 -0.053015 -0.187829 0.902003 center 0.300 0.400 0.510 ntor 9 180.0000 7.2729 148.2147 106.4989 -156.1023 122.1165 68.8797 45.9763 89.4891
State:	 36.514  15.461 123.025   0.892 -0.123 -0.435 51.155    180.00    7.27  148.21  106.50 -156.10  122.12   68.88   45.98   89.49

DOCKED: MODEL       53
DOCKED: USER    Run = 53
DOCKED: USER    DPF = ligand_dock.biased.dpf
DOCKED: USER  
DOCKED: USER    Estimated Free Energy of Binding    =   -9.08 kcal/mol  [=(1)+(2)+(3)-(4)]
DOCKED: USER    Estimated Inhibition Constant, Ki   =  222.81 nM (nanomolar)  [Temperature = 298.15 K]
DOCKED: USER    
DOCKED: USER    (1) Final Intermolecular Energy     =  -11.76 kcal/mol
DOCKED: USER        vdW + Hbond + desolv Energy     =  -11.76 kcal/mol
DOCKED: USER        Electrostatic Energy            =   +0.00 kcal/mol
DOCKED: USER    (2) Final Total Internal Energy     =   -1.63 kcal/mol
DOCKED: USER    (3) Torsional Free Energy           =   +2.68 kcal/mol
DOCKED: USER    (4) Unbound System's Energy  [=(2)] =   -1.63 kcal/mol
DOCKED: USER    
DOCKED: USER    
DOCKED: USER    NEWDPF move ligand.pdbqt
DOCKED: USER    NEWDPF about 0.300000 0.400000 0.510000
DOCKED: USER    NEWDPF tran0 36.513543 15.460670 123.025431
DOCKED: USER    NEWDPF quaternion0 0.385098 -0.053015 -0.187829 0.902003
DOCKED: USER    NEWDPF axisangle0 0.891989 -0.122796 -0.435060 51.154828
DOCKED: USER    NEWDPF quat0 0.891989 -0.122796 -0.435060 51.154828
DOCKED: USER    NEWDPF dihe0 180.00 7.27 148.21 106.50 -156.10 122.12 68.88 45.98 89.49 
DOCKED: USER  keepresnum = 1 
DOCKED: USER  
DOCKED: REMARK  Name = 
DOCKED: REMARK  9 active torsions:
DOCKED: REMARK  status: ('A' for Active; 'I' for Inactive)
DOCKED: REMARK    1  A    between atoms: O_1  and  N_2
DOCKED: REMARK    2  A    between atoms: C_3  and  C_4
DOCKED: REMARK    3  A    between atoms: C_4  and  C_5
DOCKED: REMARK    4  A    between atoms: C_5  and  C_6
DOCKED: REMARK    5  A    between atoms: C_6  and  C_7
DOCKED: REMARK    6  A    between atoms: C_7  and  C_8
DOCKED: REMARK    7  A    between atoms: C_8  and  C_9
DOCKED: REMARK    8  A    between atoms: C_9  and  C_10
DOCKED: REMARK    9  A    between atoms: N_11  and  O_12
DOCKED: REMARK                            x       y       z     vdW  Elec       q    Type
DOCKED: REMARK                         _______ _______ _______ _____ _____    ______ ____
DOCKED: USER                              x       y       z     vdW  Elec       q    Type
DOCKED: USER                           _______ _______ _______ _____ _____    ______ ____
DOCKED: ROOT
DOCKED: ATOM      1  C   UNL     1      36.683  13.841 122.486 -0.46 -0.00    +0.000 C 
DOCKED: ENDROOT
DOCKED: BRANCH   1   2
DOCKED: ATOM      2  C   UNL     1      37.850  14.532 123.201 -0.41 -0.00    +0.000 C 
DOCKED: BRANCH   2   3
DOCKED: ATOM      3  C   UNL     1      37.582  16.029 123.372 -0.32 -0.00    +0.000 C 
DOCKED: BRANCH   3   5
DOCKED: ATOM      4  N   UNL     1      35.253  15.790 124.359 -0.47 -0.00    +0.000 N 
DOCKED: ATOM      5  C   UNL     1      36.109  16.307 123.337 -0.37 -0.00    +0.000 C 
DOCKED: ATOM      6  O   UNL     1      35.632  17.032 122.424 -0.29 -0.00    +0.000 OA
DOCKED: ATOM      7  H   UNL     1      35.633  15.231 125.076 -0.04 -0.00    +0.000 HD
DOCKED: BRANCH   4   8
DOCKED: ATOM      8  O   UNL     1      33.927  16.060 124.349 -0.58 -0.00    +0.000 OA
DOCKED: ATOM      9  H   UNL     1      33.717  16.617 123.583 -0.03 -0.00    +0.000 HD
DOCKED: ENDBRANCH   4   8
DOCKED: ENDBRANCH   3   5
DOCKED: ENDBRANCH   2   3
DOCKED: ENDBRANCH   1   2
DOCKED: BRANCH   1  10
DOCKED: ATOM     10  C   UNL     1      35.929  12.904 123.440 -0.62 -0.00    +0.000 C 
DOCKED: BRANCH  10  11
DOCKED: ATOM     11  C   UNL     1      36.459  11.456 123.386 -0.71 -0.00    +0.000 C 
DOCKED: BRANCH  11  12
DOCKED: ATOM     12  C   UNL     1      36.580  10.902 121.957 -0.62 -0.00    +0.000 C 
DOCKED: BRANCH  12  13
DOCKED: ATOM     13  C   UNL     1      36.856   9.427 121.940 -0.66 -0.00    +0.000 C 
DOCKED: ATOM     14  N   UNL     1      36.855   8.677 123.157 -0.69 -0.00    +0.000 N 
DOCKED: ATOM     15  O   UNL     1      37.059   8.844 120.841 -2.72 -0.00    +0.000 OA
DOCKED: ATOM     16  H   UNL     1      36.692   9.134 124.013 -0.45 -0.00    +0.000 HD
DOCKED: BRANCH  14  17
DOCKED: ATOM     17  O   UNL     1      37.077   7.340 123.142 -2.15 -0.00    +0.000 OA
DOCKED: ATOM     18  H   UNL     1      37.331   7.065 122.247 -0.18 -0.00    +0.000 HD
DOCKED: ENDBRANCH  14  17
DOCKED: ENDBRANCH  12  13
DOCKED: ENDBRANCH  11  12
DOCKED: ENDBRANCH  10  11
DOCKED: ENDBRANCH   1  10
DOCKED: TORSDOF 9
DOCKED: TER
DOCKED: ENDMDL
________________________________________________________________________________


	BEGINNING GENETIC ALGORITHM DOCKING 54 of 100
Run: 54 Seed: 1850638314 1490148959 [ Run 54 of 100 GA/GALS ]
Beginning LAMARCKIAN GENETIC ALGORITHM (LGA), with a maximum of 2500000 energy evaluations.

Final-Value: -13.055


	FINAL GENETIC ALGORITHM DOCKED STATE
	_______________________________________________


Detailed state:  trans 38.377 14.517 121.509 quatxyzw 0.189550 -0.689332 0.018023 0.698976 center 0.300 0.400 0.510 ntor 9 -180.0000 34.2191 -71.0718 130.3755 -115.9533 75.3340 -41.6678 104.2908 105.4049
State:	 38.377  14.517 121.509   0.265 -0.964  0.025 91.310   -180.00   34.22  -71.07  130.38 -115.95   75.33  -41.67  104.29  105.40

DOCKED: MODEL       54
DOCKED: USER    Run = 54
DOCKED: USER    DPF = ligand_dock.biased.dpf
DOCKED: USER  
DOCKED: USER    Estimated Free Energy of Binding    =   -8.96 kcal/mol  [=(1)+(2)+(3)-(4)]
DOCKED: USER    Estimated Inhibition Constant, Ki   =  268.34 nM (nanomolar)  [Temperature = 298.15 K]
DOCKED: USER    
DOCKED: USER    (1) Final Intermolecular Energy     =  -11.65 kcal/mol
DOCKED: USER        vdW + Hbond + desolv Energy     =  -11.65 kcal/mol
DOCKED: USER        Electrostatic Energy            =   +0.00 kcal/mol
DOCKED: USER    (2) Final Total Internal Energy     =   -1.41 kcal/mol
DOCKED: USER    (3) Torsional Free Energy           =   +2.68 kcal/mol
DOCKED: USER    (4) Unbound System's Energy  [=(2)] =   -1.41 kcal/mol
DOCKED: USER    
DOCKED: USER    
DOCKED: USER    NEWDPF move ligand.pdbqt
DOCKED: USER    NEWDPF about 0.300000 0.400000 0.510000
DOCKED: USER    NEWDPF tran0 38.377247 14.517239 121.508939
DOCKED: USER    NEWDPF quaternion0 0.189550 -0.689332 0.018023 0.698976
DOCKED: USER    NEWDPF axisangle0 0.265051 -0.963905 0.025201 91.310219
DOCKED: USER    NEWDPF quat0 0.265051 -0.963905 0.025201 91.310219
DOCKED: USER    NEWDPF dihe0 -180.00 34.22 -71.07 130.38 -115.95 75.33 -41.67 104.29 105.40 
DOCKED: USER  keepresnum = 1 
DOCKED: USER  
DOCKED: REMARK  Name = 
DOCKED: REMARK  9 active torsions:
DOCKED: REMARK  status: ('A' for Active; 'I' for Inactive)
DOCKED: REMARK    1  A    between atoms: O_1  and  N_2
DOCKED: REMARK    2  A    between atoms: C_3  and  C_4
DOCKED: REMARK    3  A    between atoms: C_4  and  C_5
DOCKED: REMARK    4  A    between atoms: C_5  and  C_6
DOCKED: REMARK    5  A    between atoms: C_6  and  C_7
DOCKED: REMARK    6  A    between atoms: C_7  and  C_8
DOCKED: REMARK    7  A    between atoms: C_8  and  C_9
DOCKED: REMARK    8  A    between atoms: C_9  and  C_10
DOCKED: REMARK    9  A    between atoms: N_11  and  O_12
DOCKED: REMARK                            x       y       z     vdW  Elec       q    Type
DOCKED: REMARK                         _______ _______ _______ _____ _____    ______ ____
DOCKED: USER                              x       y       z     vdW  Elec       q    Type
DOCKED: USER                           _______ _______ _______ _____ _____    ______ ____
DOCKED: ROOT
DOCKED: ATOM      1  C   UNL     1      37.042  13.531 121.941 -0.46 -0.00    +0.000 C 
DOCKED: ENDROOT
DOCKED: BRANCH   1   2
DOCKED: ATOM      2  C   UNL     1      38.120  12.983 120.998 -0.44 -0.00    +0.000 C 
DOCKED: BRANCH   2   3
DOCKED: ATOM      3  C   UNL     1      37.517  12.583 119.648 -0.47 -0.00    +0.000 C 
DOCKED: BRANCH   3   5
DOCKED: ATOM      4  N   UNL     1      35.903  13.631 117.990 -0.38 -0.00    +0.000 N 
DOCKED: ATOM      5  C   UNL     1      36.954  13.783 118.948 -0.40 -0.00    +0.000 C 
DOCKED: ATOM      6  O   UNL     1      37.383  14.932 119.234 -0.25 -0.00    +0.000 OA
DOCKED: ATOM      7  H   UNL     1      35.565  12.731 117.776 -0.06 -0.00    +0.000 HD
DOCKED: BRANCH   4   8
DOCKED: ATOM      8  O   UNL     1      35.370  14.712 117.374 -0.31 -0.00    +0.000 OA
DOCKED: ATOM      9  H   UNL     1      35.812  15.515 117.693 -0.01 -0.00    +0.000 HD
DOCKED: ENDBRANCH   4   8
DOCKED: ENDBRANCH   3   5
DOCKED: ENDBRANCH   2   3
DOCKED: ENDBRANCH   1   2
DOCKED: BRANCH   1  10
DOCKED: ATOM     10  C   UNL     1      37.240  13.002 123.370 -0.59 -0.00    +0.000 C 
DOCKED: BRANCH  10  11
DOCKED: ATOM     11  C   UNL     1      36.769  11.542 123.528 -0.70 -0.00    +0.000 C 
DOCKED: BRANCH  11  12
DOCKED: ATOM     12  C   UNL     1      36.405  10.868 122.195 -0.65 -0.00    +0.000 C 
DOCKED: BRANCH  12  13
DOCKED: ATOM     13  C   UNL     1      36.790   9.419 122.165 -0.69 -0.00    +0.000 C 
DOCKED: ATOM     14  N   UNL     1      36.818   8.652 123.372 -0.64 -0.00    +0.000 N 
DOCKED: ATOM     15  O   UNL     1      37.063   8.869 121.064 -2.70 -0.00    +0.000 OA
DOCKED: ATOM     16  H   UNL     1      36.600   9.083 124.230 -0.42 -0.00    +0.000 HD
DOCKED: BRANCH  14  17
DOCKED: ATOM     17  O   UNL     1      37.138   7.336 123.345 -2.08 -0.00    +0.000 OA
DOCKED: ATOM     18  H   UNL     1      37.801   7.179 122.654 -0.41 -0.00    +0.000 HD
DOCKED: ENDBRANCH  14  17
DOCKED: ENDBRANCH  12  13
DOCKED: ENDBRANCH  11  12
DOCKED: ENDBRANCH  10  11
DOCKED: ENDBRANCH   1  10
DOCKED: TORSDOF 9
DOCKED: TER
DOCKED: ENDMDL
________________________________________________________________________________


	BEGINNING GENETIC ALGORITHM DOCKING 55 of 100
Run: 55 Seed: 1311798390 1707365599 [ Run 55 of 100 GA/GALS ]
Beginning LAMARCKIAN GENETIC ALGORITHM (LGA), with a maximum of 2500000 energy evaluations.

Final-Value: -14.065


	FINAL GENETIC ALGORITHM DOCKED STATE
	_______________________________________________


Detailed state:  trans 37.565 15.153 124.436 quatxyzw 0.411617 0.614323 0.633044 -0.228985 center 0.300 0.400 0.510 ntor 9 -178.5307 2.0711 -5.5922 -176.4212 -91.0194 88.2728 -69.5824 -154.4559 -10.6129
State:	 37.565  15.153 124.436   0.423  0.631  0.650 -153.525   -178.53    2.07   -5.59 -176.42  -91.02   88.27  -69.58 -154.46  -10.61

DOCKED: MODEL       55
DOCKED: USER    Run = 55
DOCKED: USER    DPF = ligand_dock.biased.dpf
DOCKED: USER  
DOCKED: USER    Estimated Free Energy of Binding    =   -9.90 kcal/mol  [=(1)+(2)+(3)-(4)]
DOCKED: USER    Estimated Inhibition Constant, Ki   =   55.30 nM (nanomolar)  [Temperature = 298.15 K]
DOCKED: USER    
DOCKED: USER    (1) Final Intermolecular Energy     =  -12.59 kcal/mol
DOCKED: USER        vdW + Hbond + desolv Energy     =  -12.59 kcal/mol
DOCKED: USER        Electrostatic Energy            =   +0.00 kcal/mol
DOCKED: USER    (2) Final Total Internal Energy     =   -1.48 kcal/mol
DOCKED: USER    (3) Torsional Free Energy           =   +2.68 kcal/mol
DOCKED: USER    (4) Unbound System's Energy  [=(2)] =   -1.48 kcal/mol
DOCKED: USER    
DOCKED: USER    
DOCKED: USER    NEWDPF move ligand.pdbqt
DOCKED: USER    NEWDPF about 0.300000 0.400000 0.510000
DOCKED: USER    NEWDPF tran0 37.565458 15.152843 124.435959
DOCKED: USER    NEWDPF quaternion0 0.411617 0.614323 0.633044 -0.228985
DOCKED: USER    NEWDPF axisangle0 0.422852 0.631091 0.650323 -153.525397
DOCKED: USER    NEWDPF quat0 0.422852 0.631091 0.650323 -153.525397
DOCKED: USER    NEWDPF dihe0 -178.53 2.07 -5.59 -176.42 -91.02 88.27 -69.58 -154.46 -10.61 
DOCKED: USER  keepresnum = 1 
DOCKED: USER  
DOCKED: REMARK  Name = 
DOCKED: REMARK  9 active torsions:
DOCKED: REMARK  status: ('A' for Active; 'I' for Inactive)
DOCKED: REMARK    1  A    between atoms: O_1  and  N_2
DOCKED: REMARK    2  A    between atoms: C_3  and  C_4
DOCKED: REMARK    3  A    between atoms: C_4  and  C_5
DOCKED: REMARK    4  A    between atoms: C_5  and  C_6
DOCKED: REMARK    5  A    between atoms: C_6  and  C_7
DOCKED: REMARK    6  A    between atoms: C_7  and  C_8
DOCKED: REMARK    7  A    between atoms: C_8  and  C_9
DOCKED: REMARK    8  A    between atoms: C_9  and  C_10
DOCKED: REMARK    9  A    between atoms: N_11  and  O_12
DOCKED: REMARK                            x       y       z     vdW  Elec       q    Type
DOCKED: REMARK                         _______ _______ _______ _____ _____    ______ ____
DOCKED: USER                              x       y       z     vdW  Elec       q    Type
DOCKED: USER                           _______ _______ _______ _____ _____    ______ ____
DOCKED: ROOT
DOCKED: ATOM      1  C   UNL     1      36.281  14.190 123.833 -0.52 -0.00    +0.000 C 
DOCKED: ENDROOT
DOCKED: BRANCH   1   2
DOCKED: ATOM      2  C   UNL     1      36.307  15.694 123.539 -0.41 -0.00    +0.000 C 
DOCKED: BRANCH   2   3
DOCKED: ATOM      3  C   UNL     1      34.887  16.258 123.430 -0.47 -0.00    +0.000 C 
DOCKED: BRANCH   3   5
DOCKED: ATOM      4  N   UNL     1      33.701  15.760 125.621 -0.46 -0.00    +0.000 N 
DOCKED: ATOM      5  C   UNL     1      34.388  16.688 124.776 -0.50 -0.00    +0.000 C 
DOCKED: ATOM      6  O   UNL     1      34.609  17.861 125.180 -0.37 -0.00    +0.000 OA
DOCKED: ATOM      7  H   UNL     1      33.538  14.842 125.305 -0.12 -0.00    +0.000 HD
DOCKED: BRANCH   4   8
DOCKED: ATOM      8  O   UNL     1      33.272  16.134 126.850 -1.15 -0.00    +0.000 OA
DOCKED: ATOM      9  H   UNL     1      33.488  17.068 126.997 -0.02 -0.00    +0.000 HD
DOCKED: ENDBRANCH   4   8
DOCKED: ENDBRANCH   3   5
DOCKED: ENDBRANCH   2   3
DOCKED: ENDBRANCH   1   2
DOCKED: BRANCH   1  10
DOCKED: ATOM     10  C   UNL     1      36.773  13.383 122.622 -0.54 -0.00    +0.000 C 
DOCKED: BRANCH  10  11
DOCKED: ATOM     11  C   UNL     1      37.060  11.909 122.973 -0.65 -0.00    +0.000 C 
DOCKED: BRANCH  11  12
DOCKED: ATOM     12  C   UNL     1      36.050  10.925 122.361 -0.66 -0.00    +0.000 C 
DOCKED: BRANCH  12  13
DOCKED: ATOM     13  C   UNL     1      36.615   9.543 122.220 -0.70 -0.00    +0.000 C 
DOCKED: ATOM     14  N   UNL     1      36.613   8.644 123.332 -0.64 -0.00    +0.000 N 
DOCKED: ATOM     15  O   UNL     1      37.066   9.164 121.105 -2.73 -0.00    +0.000 OA
DOCKED: ATOM     16  H   UNL     1      36.257   8.941 124.200 -0.31 -0.00    +0.000 HD
DOCKED: BRANCH  14  17
DOCKED: ATOM     17  O   UNL     1      37.097   7.385 123.201 -2.15 -0.00    +0.000 OA
DOCKED: ATOM     18  H   UNL     1      37.437   7.262 122.301 -0.17 -0.00    +0.000 HD
DOCKED: ENDBRANCH  14  17
DOCKED: ENDBRANCH  12  13
DOCKED: ENDBRANCH  11  12
DOCKED: ENDBRANCH  10  11
DOCKED: ENDBRANCH   1  10
DOCKED: TORSDOF 9
DOCKED: TER
DOCKED: ENDMDL
________________________________________________________________________________


	BEGINNING GENETIC ALGORITHM DOCKING 56 of 100
Run: 56 Seed: 1296598876 1479074764 [ Run 56 of 100 GA/GALS ]
Beginning LAMARCKIAN GENETIC ALGORITHM (LGA), with a maximum of 2500000 energy evaluations.

Final-Value: -13.678


	FINAL GENETIC ALGORITHM DOCKED STATE
	_______________________________________________


Detailed state:  trans 36.870 15.941 121.933 quatxyzw -0.463775 -0.638162 -0.025243 -0.614024 center 0.300 0.400 0.510 ntor 9 -178.8141 -5.2274 -27.7902 -156.1115 8.9914 71.8453 180.0000 -104.2931 74.3163
State:	 36.870  15.941 121.933  -0.588 -0.809 -0.032 -104.238   -178.81   -5.23  -27.79 -156.11    8.99   71.85  180.00 -104.29   74.32

DOCKED: MODEL       56
DOCKED: USER    Run = 56
DOCKED: USER    DPF = ligand_dock.biased.dpf
DOCKED: USER  
DOCKED: USER    Estimated Free Energy of Binding    =   -9.48 kcal/mol  [=(1)+(2)+(3)-(4)]
DOCKED: USER    Estimated Inhibition Constant, Ki   =  112.63 nM (nanomolar)  [Temperature = 298.15 K]
DOCKED: USER    
DOCKED: USER    (1) Final Intermolecular Energy     =  -12.16 kcal/mol
DOCKED: USER        vdW + Hbond + desolv Energy     =  -12.16 kcal/mol
DOCKED: USER        Electrostatic Energy            =   +0.00 kcal/mol
DOCKED: USER    (2) Final Total Internal Energy     =   -1.51 kcal/mol
DOCKED: USER    (3) Torsional Free Energy           =   +2.68 kcal/mol
DOCKED: USER    (4) Unbound System's Energy  [=(2)] =   -1.51 kcal/mol
DOCKED: USER    
DOCKED: USER    
DOCKED: USER    NEWDPF move ligand.pdbqt
DOCKED: USER    NEWDPF about 0.300000 0.400000 0.510000
DOCKED: USER    NEWDPF tran0 36.869738 15.940635 121.932777
DOCKED: USER    NEWDPF quaternion0 -0.463775 -0.638162 -0.025243 -0.614024
DOCKED: USER    NEWDPF axisangle0 -0.587587 -0.808529 -0.031982 -104.237975
DOCKED: USER    NEWDPF quat0 -0.587587 -0.808529 -0.031982 -104.237975
DOCKED: USER    NEWDPF dihe0 -178.81 -5.23 -27.79 -156.11 8.99 71.85 180.00 -104.29 74.32 
DOCKED: USER  keepresnum = 1 
DOCKED: USER  
DOCKED: REMARK  Name = 
DOCKED: REMARK  9 active torsions:
DOCKED: REMARK  status: ('A' for Active; 'I' for Inactive)
DOCKED: REMARK    1  A    between atoms: O_1  and  N_2
DOCKED: REMARK    2  A    between atoms: C_3  and  C_4
DOCKED: REMARK    3  A    between atoms: C_4  and  C_5
DOCKED: REMARK    4  A    between atoms: C_5  and  C_6
DOCKED: REMARK    5  A    between atoms: C_6  and  C_7
DOCKED: REMARK    6  A    between atoms: C_7  and  C_8
DOCKED: REMARK    7  A    between atoms: C_8  and  C_9
DOCKED: REMARK    8  A    between atoms: C_9  and  C_10
DOCKED: REMARK    9  A    between atoms: N_11  and  O_12
DOCKED: REMARK                            x       y       z     vdW  Elec       q    Type
DOCKED: REMARK                         _______ _______ _______ _____ _____    ______ ____
DOCKED: USER                              x       y       z     vdW  Elec       q    Type
DOCKED: USER                           _______ _______ _______ _____ _____    ______ ____
DOCKED: ROOT
DOCKED: ATOM      1  C   UNL     1      37.554  14.491 122.541 -0.44 -0.00    +0.000 C 
DOCKED: ENDROOT
DOCKED: BRANCH   1   2
DOCKED: ATOM      2  C   UNL     1      36.744  15.399 123.473 -0.41 -0.00    +0.000 C 
DOCKED: BRANCH   2   3
DOCKED: ATOM      3  C   UNL     1      35.327  14.856 123.674 -0.53 -0.00    +0.000 C 
DOCKED: BRANCH   3   5
DOCKED: ATOM      4  N   UNL     1      34.048  15.578 125.747 -0.46 -0.00    +0.000 N 
DOCKED: ATOM      5  C   UNL     1      34.482  15.850 124.411 -0.58 -0.00    +0.000 C 
DOCKED: ATOM      6  O   UNL     1      34.187  16.947 123.865 -0.49 -0.00    +0.000 OA
DOCKED: ATOM      7  H   UNL     1      34.289  14.724 126.173 +0.00 -0.00    +0.000 HD
DOCKED: BRANCH   4   8
DOCKED: ATOM      8  O   UNL     1      33.309  16.484 126.429 -0.90 -0.00    +0.000 OA
DOCKED: ATOM      9  H   UNL     1      33.144  17.256 125.866 -0.03 -0.00    +0.000 HD
DOCKED: ENDBRANCH   4   8
DOCKED: ENDBRANCH   3   5
DOCKED: ENDBRANCH   2   3
DOCKED: ENDBRANCH   1   2
DOCKED: BRANCH   1  10
DOCKED: ATOM     10  C   UNL     1      36.715  13.293 122.071 -0.45 -0.00    +0.000 C 
DOCKED: BRANCH  10  11
DOCKED: ATOM     11  C   UNL     1      37.157  11.969 122.728 -0.59 -0.00    +0.000 C 
DOCKED: BRANCH  11  12
DOCKED: ATOM     12  C   UNL     1      36.082  10.872 122.678 -0.68 -0.00    +0.000 C 
DOCKED: BRANCH  12  13
DOCKED: ATOM     13  C   UNL     1      36.662   9.519 122.388 -0.72 -0.00    +0.000 C 
DOCKED: ATOM     14  N   UNL     1      36.826   8.562 123.437 -0.65 -0.00    +0.000 N 
DOCKED: ATOM     15  O   UNL     1      36.978   9.217 121.205 -2.72 -0.00    +0.000 OA
DOCKED: ATOM     16  H   UNL     1      36.575   8.799 124.359 -0.35 -0.00    +0.000 HD
DOCKED: BRANCH  14  17
DOCKED: ATOM     17  O   UNL     1      37.323   7.329 123.174 -1.99 -0.00    +0.000 OA
DOCKED: ATOM     18  H   UNL     1      37.441   7.226 122.216 -0.17 -0.00    +0.000 HD
DOCKED: ENDBRANCH  14  17
DOCKED: ENDBRANCH  12  13
DOCKED: ENDBRANCH  11  12
DOCKED: ENDBRANCH  10  11
DOCKED: ENDBRANCH   1  10
DOCKED: TORSDOF 9
DOCKED: TER
DOCKED: ENDMDL
________________________________________________________________________________


	BEGINNING GENETIC ALGORITHM DOCKING 57 of 100
Run: 57 Seed: 898653915 122136493 [ Run 57 of 100 GA/GALS ]
Beginning LAMARCKIAN GENETIC ALGORITHM (LGA), with a maximum of 2500000 energy evaluations.

Final-Value: -13.528


	FINAL GENETIC ALGORITHM DOCKED STATE
	_______________________________________________


Detailed state:  trans 39.288 13.498 122.891 quatxyzw 0.749067 0.464948 0.178965 -0.436685 center 0.300 0.400 0.510 ntor 9 180.0000 12.1767 -140.4379 144.5299 -53.9239 86.6401 -3.2240 -57.3666 -60.2462
State:	 39.288  13.498 122.891   0.833  0.517  0.199 -128.215    180.00   12.18 -140.44  144.53  -53.92   86.64   -3.22  -57.37  -60.25

DOCKED: MODEL       57
DOCKED: USER    Run = 57
DOCKED: USER    DPF = ligand_dock.biased.dpf
DOCKED: USER  
DOCKED: USER    Estimated Free Energy of Binding    =   -9.40 kcal/mol  [=(1)+(2)+(3)-(4)]
DOCKED: USER    Estimated Inhibition Constant, Ki   =  127.86 nM (nanomolar)  [Temperature = 298.15 K]
DOCKED: USER    
DOCKED: USER    (1) Final Intermolecular Energy     =  -12.09 kcal/mol
DOCKED: USER        vdW + Hbond + desolv Energy     =  -12.09 kcal/mol
DOCKED: USER        Electrostatic Energy            =   +0.00 kcal/mol
DOCKED: USER    (2) Final Total Internal Energy     =   -1.44 kcal/mol
DOCKED: USER    (3) Torsional Free Energy           =   +2.68 kcal/mol
DOCKED: USER    (4) Unbound System's Energy  [=(2)] =   -1.44 kcal/mol
DOCKED: USER    
DOCKED: USER    
DOCKED: USER    NEWDPF move ligand.pdbqt
DOCKED: USER    NEWDPF about 0.300000 0.400000 0.510000
DOCKED: USER    NEWDPF tran0 39.288424 13.497553 122.891486
DOCKED: USER    NEWDPF quaternion0 0.749067 0.464948 0.178965 -0.436685
DOCKED: USER    NEWDPF axisangle0 0.832653 0.516830 0.198935 -128.214890
DOCKED: USER    NEWDPF quat0 0.832653 0.516830 0.198935 -128.214890
DOCKED: USER    NEWDPF dihe0 180.00 12.18 -140.44 144.53 -53.92 86.64 -3.22 -57.37 -60.25 
DOCKED: USER  keepresnum = 1 
DOCKED: USER  
DOCKED: REMARK  Name = 
DOCKED: REMARK  9 active torsions:
DOCKED: REMARK  status: ('A' for Active; 'I' for Inactive)
DOCKED: REMARK    1  A    between atoms: O_1  and  N_2
DOCKED: REMARK    2  A    between atoms: C_3  and  C_4
DOCKED: REMARK    3  A    between atoms: C_4  and  C_5
DOCKED: REMARK    4  A    between atoms: C_5  and  C_6
DOCKED: REMARK    5  A    between atoms: C_6  and  C_7
DOCKED: REMARK    6  A    between atoms: C_7  and  C_8
DOCKED: REMARK    7  A    between atoms: C_8  and  C_9
DOCKED: REMARK    8  A    between atoms: C_9  and  C_10
DOCKED: REMARK    9  A    between atoms: N_11  and  O_12
DOCKED: REMARK                            x       y       z     vdW  Elec       q    Type
DOCKED: REMARK                         _______ _______ _______ _____ _____    ______ ____
DOCKED: USER                              x       y       z     vdW  Elec       q    Type
DOCKED: USER                           _______ _______ _______ _____ _____    ______ ____
DOCKED: ROOT
DOCKED: ATOM      1  C   UNL     1      37.758  14.218 123.179 -0.46 -0.00    +0.000 C 
DOCKED: ENDROOT
DOCKED: BRANCH   1   2
DOCKED: ATOM      2  C   UNL     1      38.685  14.801 122.105 -0.40 -0.00    +0.000 C 
DOCKED: BRANCH   2   3
DOCKED: ATOM      3  C   UNL     1      39.733  15.727 122.728 -0.33 -0.00    +0.000 C 
DOCKED: BRANCH   3   5
DOCKED: ATOM      4  N   UNL     1      42.079  16.278 121.924 -0.30 -0.00    +0.000 N 
DOCKED: ATOM      5  C   UNL     1      41.113  15.303 122.329 -0.49 -0.00    +0.000 C 
DOCKED: ATOM      6  O   UNL     1      41.435  14.086 122.388 -1.04 +0.00    +0.000 OA
DOCKED: ATOM      7  H   UNL     1      41.825  17.229 121.888 +0.00 -0.00    +0.000 HD
DOCKED: BRANCH   4   8
DOCKED: ATOM      8  O   UNL     1      43.336  15.905 121.589 -0.37 -0.00    +0.000 OA
DOCKED: ATOM      9  H   UNL     1      43.421  14.943 121.676 -0.02 +0.00    +0.000 HD
DOCKED: ENDBRANCH   4   8
DOCKED: ENDBRANCH   3   5
DOCKED: ENDBRANCH   2   3
DOCKED: ENDBRANCH   1   2
DOCKED: BRANCH   1  10
DOCKED: ATOM     10  C   UNL     1      36.660  13.350 122.546 -0.52 -0.00    +0.000 C 
DOCKED: BRANCH  10  11
DOCKED: ATOM     11  C   UNL     1      36.740  11.877 122.997 -0.67 -0.00    +0.000 C 
DOCKED: BRANCH  11  12
DOCKED: ATOM     12  C   UNL     1      36.157  10.890 121.973 -0.58 -0.00    +0.000 C 
DOCKED: BRANCH  12  13
DOCKED: ATOM     13  C   UNL     1      36.749   9.518 122.103 -0.69 -0.00    +0.000 C 
DOCKED: ATOM     14  N   UNL     1      36.928   8.927 123.393 -0.60 -0.00    +0.000 N 
DOCKED: ATOM     15  O   UNL     1      37.061   8.872 121.067 -2.70 -0.00    +0.000 OA
DOCKED: ATOM     16  H   UNL     1      36.680   9.432 124.201 -0.48 -0.00    +0.000 HD
DOCKED: BRANCH  14  17
DOCKED: ATOM     17  O   UNL     1      37.436   7.677 123.514 -2.12 -0.00    +0.000 OA
DOCKED: ATOM     18  H   UNL     1      37.803   7.394 122.662 -0.33 -0.00    +0.000 HD
DOCKED: ENDBRANCH  14  17
DOCKED: ENDBRANCH  12  13
DOCKED: ENDBRANCH  11  12
DOCKED: ENDBRANCH  10  11
DOCKED: ENDBRANCH   1  10
DOCKED: TORSDOF 9
DOCKED: TER
DOCKED: ENDMDL
________________________________________________________________________________


	BEGINNING GENETIC ALGORITHM DOCKING 58 of 100
Run: 58 Seed: 117090420 1519679206 [ Run 58 of 100 GA/GALS ]
Beginning LAMARCKIAN GENETIC ALGORITHM (LGA), with a maximum of 2500000 energy evaluations.

Final-Value: -13.719


	FINAL GENETIC ALGORITHM DOCKED STATE
	_______________________________________________


Detailed state:  trans 38.182 12.109 123.780 quatxyzw 0.012997 0.187329 -0.755239 -0.627975 center 0.300 0.400 0.510 ntor 9 178.9767 0.6769 142.2822 -116.8003 -59.9551 -178.6149 -61.4119 93.1407 -13.7802
State:	 38.182  12.109 123.780   0.017  0.241 -0.970 -102.198    178.98    0.68  142.28 -116.80  -59.96 -178.61  -61.41   93.14  -13.78

DOCKED: MODEL       58
DOCKED: USER    Run = 58
DOCKED: USER    DPF = ligand_dock.biased.dpf
DOCKED: USER  
DOCKED: USER    Estimated Free Energy of Binding    =   -9.46 kcal/mol  [=(1)+(2)+(3)-(4)]
DOCKED: USER    Estimated Inhibition Constant, Ki   =  115.50 nM (nanomolar)  [Temperature = 298.15 K]
DOCKED: USER    
DOCKED: USER    (1) Final Intermolecular Energy     =  -12.15 kcal/mol
DOCKED: USER        vdW + Hbond + desolv Energy     =  -12.15 kcal/mol
DOCKED: USER        Electrostatic Energy            =   +0.00 kcal/mol
DOCKED: USER    (2) Final Total Internal Energy     =   -1.57 kcal/mol
DOCKED: USER    (3) Torsional Free Energy           =   +2.68 kcal/mol
DOCKED: USER    (4) Unbound System's Energy  [=(2)] =   -1.57 kcal/mol
DOCKED: USER    
DOCKED: USER    
DOCKED: USER    NEWDPF move ligand.pdbqt
DOCKED: USER    NEWDPF about 0.300000 0.400000 0.510000
DOCKED: USER    NEWDPF tran0 38.182009 12.109276 123.779732
DOCKED: USER    NEWDPF quaternion0 0.012997 0.187329 -0.755239 -0.627975
DOCKED: USER    NEWDPF axisangle0 0.016700 0.240711 -0.970453 -102.198253
DOCKED: USER    NEWDPF quat0 0.016700 0.240711 -0.970453 -102.198253
DOCKED: USER    NEWDPF dihe0 178.98 0.68 142.28 -116.80 -59.96 -178.61 -61.41 93.14 -13.78 
DOCKED: USER  keepresnum = 1 
DOCKED: USER  
DOCKED: REMARK  Name = 
DOCKED: REMARK  9 active torsions:
DOCKED: REMARK  status: ('A' for Active; 'I' for Inactive)
DOCKED: REMARK    1  A    between atoms: O_1  and  N_2
DOCKED: REMARK    2  A    between atoms: C_3  and  C_4
DOCKED: REMARK    3  A    between atoms: C_4  and  C_5
DOCKED: REMARK    4  A    between atoms: C_5  and  C_6
DOCKED: REMARK    5  A    between atoms: C_6  and  C_7
DOCKED: REMARK    6  A    between atoms: C_7  and  C_8
DOCKED: REMARK    7  A    between atoms: C_8  and  C_9
DOCKED: REMARK    8  A    between atoms: C_9  and  C_10
DOCKED: REMARK    9  A    between atoms: N_11  and  O_12
DOCKED: REMARK                            x       y       z     vdW  Elec       q    Type
DOCKED: REMARK                         _______ _______ _______ _____ _____    ______ ____
DOCKED: USER                              x       y       z     vdW  Elec       q    Type
DOCKED: USER                           _______ _______ _______ _____ _____    ______ ____
DOCKED: ROOT
DOCKED: ATOM      1  C   UNL     1      37.200  12.858 122.590 -0.57 -0.00    +0.000 C 
DOCKED: ENDROOT
DOCKED: BRANCH   1   2
DOCKED: ATOM      2  C   UNL     1      36.700  11.598 123.306 -0.70 -0.00    +0.000 C 
DOCKED: BRANCH   2   3
DOCKED: ATOM      3  C   UNL     1      35.975  10.664 122.333 -0.66 -0.00    +0.000 C 
DOCKED: BRANCH   3   5
DOCKED: ATOM      4  N   UNL     1      36.827   8.547 123.449 -0.65 -0.00    +0.000 N 
DOCKED: ATOM      5  C   UNL     1      36.665   9.335 122.267 -0.72 -0.00    +0.000 C 
DOCKED: ATOM      6  O   UNL     1      37.068   8.895 121.157 -2.70 -0.00    +0.000 OA
DOCKED: ATOM      7  H   UNL     1      36.502   8.891 124.313 -0.34 -0.00    +0.000 HD
DOCKED: BRANCH   4   8
DOCKED: ATOM      8  O   UNL     1      37.424   7.333 123.392 -1.96 -0.00    +0.000 OA
DOCKED: ATOM      9  H   UNL     1      37.670   7.137 122.474 -0.29 -0.00    +0.000 HD
DOCKED: ENDBRANCH   4   8
DOCKED: ENDBRANCH   3   5
DOCKED: ENDBRANCH   2   3
DOCKED: ENDBRANCH   1   2
DOCKED: BRANCH   1  10
DOCKED: ATOM     10  C   UNL     1      36.554  14.120 123.181 -0.52 -0.00    +0.000 C 
DOCKED: BRANCH  10  11
DOCKED: ATOM     11  C   UNL     1      37.301  15.408 122.776 -0.37 -0.00    +0.000 C 
DOCKED: BRANCH  11  12
DOCKED: ATOM     12  C   UNL     1      38.555  15.148 121.927 -0.35 -0.00    +0.000 C 
DOCKED: BRANCH  12  13
DOCKED: ATOM     13  C   UNL     1      39.821  15.451 122.672 -0.37 -0.00    +0.000 C 
DOCKED: ATOM     14  N   UNL     1      40.978  14.629 122.498 -0.51 -0.00    +0.000 N 
DOCKED: ATOM     15  O   UNL     1      39.871  16.455 123.434 -0.32 -0.00    +0.000 OA
DOCKED: ATOM     16  H   UNL     1      40.937  13.848 121.901 -0.03 +0.00    +0.000 HD
DOCKED: BRANCH  14  17
DOCKED: ATOM     17  O   UNL     1      42.131  14.917 123.148 -1.04 +0.00    +0.000 OA
DOCKED: ATOM     18  H   UNL     1      42.003  15.704 123.701 -0.05 +0.00    +0.000 HD
DOCKED: ENDBRANCH  14  17
DOCKED: ENDBRANCH  12  13
DOCKED: ENDBRANCH  11  12
DOCKED: ENDBRANCH  10  11
DOCKED: ENDBRANCH   1  10
DOCKED: TORSDOF 9
DOCKED: TER
DOCKED: ENDMDL
________________________________________________________________________________


	BEGINNING GENETIC ALGORITHM DOCKING 59 of 100
Run: 59 Seed: 1702172898 1807520380 [ Run 59 of 100 GA/GALS ]
Beginning LAMARCKIAN GENETIC ALGORITHM (LGA), with a maximum of 2500000 energy evaluations.

Final-Value: -13.306


	FINAL GENETIC ALGORITHM DOCKED STATE
	_______________________________________________


Detailed state:  trans 37.164 12.374 121.532 quatxyzw 0.506690 -0.699018 0.460935 0.205371 center 0.300 0.400 0.510 ntor 9 -179.7411 11.1272 158.2279 174.8539 -15.3474 -119.4950 -3.0146 -164.9222 -38.4933
State:	 37.164  12.374 121.532   0.518 -0.714  0.471 156.298   -179.74   11.13  158.23  174.85  -15.35 -119.49   -3.01 -164.92  -38.49

DOCKED: MODEL       59
DOCKED: USER    Run = 59
DOCKED: USER    DPF = ligand_dock.biased.dpf
DOCKED: USER  
DOCKED: USER    Estimated Free Energy of Binding    =   -9.07 kcal/mol  [=(1)+(2)+(3)-(4)]
DOCKED: USER    Estimated Inhibition Constant, Ki   =  226.05 nM (nanomolar)  [Temperature = 298.15 K]
DOCKED: USER    
DOCKED: USER    (1) Final Intermolecular Energy     =  -11.75 kcal/mol
DOCKED: USER        vdW + Hbond + desolv Energy     =  -11.75 kcal/mol
DOCKED: USER        Electrostatic Energy            =   +0.00 kcal/mol
DOCKED: USER    (2) Final Total Internal Energy     =   -1.55 kcal/mol
DOCKED: USER    (3) Torsional Free Energy           =   +2.68 kcal/mol
DOCKED: USER    (4) Unbound System's Energy  [=(2)] =   -1.55 kcal/mol
DOCKED: USER    
DOCKED: USER    
DOCKED: USER    NEWDPF move ligand.pdbqt
DOCKED: USER    NEWDPF about 0.300000 0.400000 0.510000
DOCKED: USER    NEWDPF tran0 37.163923 12.374296 121.532002
DOCKED: USER    NEWDPF quaternion0 0.506690 -0.699018 0.460935 0.205371
DOCKED: USER    NEWDPF axisangle0 0.517726 -0.714243 0.470974 156.297510
DOCKED: USER    NEWDPF quat0 0.517726 -0.714243 0.470974 156.297510
DOCKED: USER    NEWDPF dihe0 -179.74 11.13 158.23 174.85 -15.35 -119.49 -3.01 -164.92 -38.49 
DOCKED: USER  keepresnum = 1 
DOCKED: USER  
DOCKED: REMARK  Name = 
DOCKED: REMARK  9 active torsions:
DOCKED: REMARK  status: ('A' for Active; 'I' for Inactive)
DOCKED: REMARK    1  A    between atoms: O_1  and  N_2
DOCKED: REMARK    2  A    between atoms: C_3  and  C_4
DOCKED: REMARK    3  A    between atoms: C_4  and  C_5
DOCKED: REMARK    4  A    between atoms: C_5  and  C_6
DOCKED: REMARK    5  A    between atoms: C_6  and  C_7
DOCKED: REMARK    6  A    between atoms: C_7  and  C_8
DOCKED: REMARK    7  A    between atoms: C_8  and  C_9
DOCKED: REMARK    8  A    between atoms: C_9  and  C_10
DOCKED: REMARK    9  A    between atoms: N_11  and  O_12
DOCKED: REMARK                            x       y       z     vdW  Elec       q    Type
DOCKED: REMARK                         _______ _______ _______ _____ _____    ______ ____
DOCKED: USER                              x       y       z     vdW  Elec       q    Type
DOCKED: USER                           _______ _______ _______ _____ _____    ______ ____
DOCKED: ROOT
DOCKED: ATOM      1  C   UNL     1      36.456  13.178 122.871 -0.56 -0.00    +0.000 C 
DOCKED: ENDROOT
DOCKED: BRANCH   1   2
DOCKED: ATOM      2  C   UNL     1      36.968  11.742 123.030 -0.66 -0.00    +0.000 C 
DOCKED: BRANCH   2   3
DOCKED: ATOM      3  C   UNL     1      35.937  10.732 122.520 -0.67 -0.00    +0.000 C 
DOCKED: BRANCH   3   5
DOCKED: ATOM      4  N   UNL     1      36.894   8.569 123.446 -0.65 -0.00    +0.000 N 
DOCKED: ATOM      5  C   UNL     1      36.571   9.389 122.319 -0.72 -0.00    +0.000 C 
DOCKED: ATOM      6  O   UNL     1      36.782   8.965 121.152 -2.64 -0.00    +0.000 OA
DOCKED: ATOM      7  H   UNL     1      36.718   8.900 124.356 -0.39 -0.00    +0.000 HD
DOCKED: BRANCH   4   8
DOCKED: ATOM      8  O   UNL     1      37.440   7.342 123.271 -1.95 -0.00    +0.000 OA
DOCKED: ATOM      9  H   UNL     1      37.553   7.171 122.323 -0.20 -0.00    +0.000 HD
DOCKED: ENDBRANCH   4   8
DOCKED: ENDBRANCH   3   5
DOCKED: ENDBRANCH   2   3
DOCKED: ENDBRANCH   1   2
DOCKED: BRANCH   1  10
DOCKED: ATOM     10  C   UNL     1      37.460  14.188 123.449 -0.45 -0.00    +0.000 C 
DOCKED: BRANCH  10  11
DOCKED: ATOM     11  C   UNL     1      37.604  15.445 122.567 -0.35 -0.00    +0.000 C 
DOCKED: BRANCH  11  12
DOCKED: ATOM     12  C   UNL     1      36.788  16.645 123.073 -0.29 -0.00    +0.000 C 
DOCKED: BRANCH  12  13
DOCKED: ATOM     13  C   UNL     1      35.353  16.291 123.330 -0.43 -0.00    +0.000 C 
DOCKED: ATOM     14  N   UNL     1      34.993  15.515 124.476 -0.53 -0.00    +0.000 N 
DOCKED: ATOM     15  O   UNL     1      34.458  16.705 122.545 -0.44 -0.00    +0.000 OA
DOCKED: ATOM     16  H   UNL     1      35.693  15.195 125.089 -0.04 -0.00    +0.000 HD
DOCKED: BRANCH  14  17
DOCKED: ATOM     17  O   UNL     1      33.696  15.216 124.727 -0.65 -0.00    +0.000 OA
DOCKED: ATOM     18  H   UNL     1      33.156  15.445 123.953 -0.12 -0.00    +0.000 HD
DOCKED: ENDBRANCH  14  17
DOCKED: ENDBRANCH  12  13
DOCKED: ENDBRANCH  11  12
DOCKED: ENDBRANCH  10  11
DOCKED: ENDBRANCH   1  10
DOCKED: TORSDOF 9
DOCKED: TER
DOCKED: ENDMDL
________________________________________________________________________________


	BEGINNING GENETIC ALGORITHM DOCKING 60 of 100
Run: 60 Seed: 911576600 947142155 [ Run 60 of 100 GA/GALS ]
Beginning LAMARCKIAN GENETIC ALGORITHM (LGA), with a maximum of 2500000 energy evaluations.

Final-Value: -13.383


	FINAL GENETIC ALGORITHM DOCKED STATE
	_______________________________________________


Detailed state:  trans 36.129 13.079 121.705 quatxyzw 0.655566 -0.742831 -0.098637 -0.093312 center 0.300 0.400 0.510 ntor 9 -180.0000 0.5667 178.7705 -178.3978 46.6286 -168.1331 7.4866 170.3154 -64.0029
State:	 36.129  13.079 121.705   0.658 -0.746 -0.099 -169.292   -180.00    0.57  178.77 -178.40   46.63 -168.13    7.49  170.32  -64.00

DOCKED: MODEL       60
DOCKED: USER    Run = 60
DOCKED: USER    DPF = ligand_dock.biased.dpf
DOCKED: USER  
DOCKED: USER    Estimated Free Energy of Binding    =   -9.04 kcal/mol  [=(1)+(2)+(3)-(4)]
DOCKED: USER    Estimated Inhibition Constant, Ki   =  235.31 nM (nanomolar)  [Temperature = 298.15 K]
DOCKED: USER    
DOCKED: USER    (1) Final Intermolecular Energy     =  -11.73 kcal/mol
DOCKED: USER        vdW + Hbond + desolv Energy     =  -11.73 kcal/mol
DOCKED: USER        Electrostatic Energy            =   +0.00 kcal/mol
DOCKED: USER    (2) Final Total Internal Energy     =   -1.66 kcal/mol
DOCKED: USER    (3) Torsional Free Energy           =   +2.68 kcal/mol
DOCKED: USER    (4) Unbound System's Energy  [=(2)] =   -1.66 kcal/mol
DOCKED: USER    
DOCKED: USER    
DOCKED: USER    NEWDPF move ligand.pdbqt
DOCKED: USER    NEWDPF about 0.300000 0.400000 0.510000
DOCKED: USER    NEWDPF tran0 36.128771 13.078556 121.705256
DOCKED: USER    NEWDPF quaternion0 0.655566 -0.742831 -0.098637 -0.093312
DOCKED: USER    NEWDPF axisangle0 0.658438 -0.746086 -0.099069 -169.291655
DOCKED: USER    NEWDPF quat0 0.658438 -0.746086 -0.099069 -169.291655
DOCKED: USER    NEWDPF dihe0 -180.00 0.57 178.77 -178.40 46.63 -168.13 7.49 170.32 -64.00 
DOCKED: USER  keepresnum = 1 
DOCKED: USER  
DOCKED: REMARK  Name = 
DOCKED: REMARK  9 active torsions:
DOCKED: REMARK  status: ('A' for Active; 'I' for Inactive)
DOCKED: REMARK    1  A    between atoms: O_1  and  N_2
DOCKED: REMARK    2  A    between atoms: C_3  and  C_4
DOCKED: REMARK    3  A    between atoms: C_4  and  C_5
DOCKED: REMARK    4  A    between atoms: C_5  and  C_6
DOCKED: REMARK    5  A    between atoms: C_6  and  C_7
DOCKED: REMARK    6  A    between atoms: C_7  and  C_8
DOCKED: REMARK    7  A    between atoms: C_8  and  C_9
DOCKED: REMARK    8  A    between atoms: C_9  and  C_10
DOCKED: REMARK    9  A    between atoms: N_11  and  O_12
DOCKED: REMARK                            x       y       z     vdW  Elec       q    Type
DOCKED: REMARK                         _______ _______ _______ _____ _____    ______ ____
DOCKED: USER                              x       y       z     vdW  Elec       q    Type
DOCKED: USER                           _______ _______ _______ _____ _____    ______ ____
DOCKED: ROOT
DOCKED: ATOM      1  C   UNL     1      37.259  13.148 122.994 -0.58 -0.00    +0.000 C 
DOCKED: ENDROOT
DOCKED: BRANCH   1   2
DOCKED: ATOM      2  C   UNL     1      37.339  12.008 121.972 -0.48 -0.00    +0.000 C 
DOCKED: BRANCH   2   3
DOCKED: ATOM      3  C   UNL     1      36.179  11.025 122.154 -0.63 -0.00    +0.000 C 
DOCKED: BRANCH   3   5
DOCKED: ATOM      4  N   UNL     1      36.976   8.928 123.347 -0.62 -0.00    +0.000 N 
DOCKED: ATOM      5  C   UNL     1      36.679   9.612 122.126 -0.69 -0.00    +0.000 C 
DOCKED: ATOM      6  O   UNL     1      36.798   9.013 121.025 -2.64 -0.00    +0.000 OA
DOCKED: ATOM      7  H   UNL     1      36.872   9.398 124.206 -0.53 -0.00    +0.000 HD
DOCKED: BRANCH   4   8
DOCKED: ATOM      8  O   UNL     1      37.400   7.643 123.331 -2.15 -0.00    +0.000 OA
DOCKED: ATOM      9  H   UNL     1      37.450   7.331 122.415 -0.16 -0.00    +0.000 HD
DOCKED: ENDBRANCH   4   8
DOCKED: ENDBRANCH   3   5
DOCKED: ENDBRANCH   2   3
DOCKED: ENDBRANCH   1   2
DOCKED: BRANCH   1  10
DOCKED: ATOM     10  C   UNL     1      38.307  14.231 122.695 -0.47 -0.00    +0.000 C 
DOCKED: BRANCH  10  11
DOCKED: ATOM     11  C   UNL     1      37.667  15.570 122.275 -0.32 -0.00    +0.000 C 
DOCKED: BRANCH  11  12
DOCKED: ATOM     12  C   UNL     1      37.039  16.342 123.445 -0.32 -0.00    +0.000 C 
DOCKED: BRANCH  12  13
DOCKED: ATOM     13  C   UNL     1      35.551  16.165 123.511 -0.43 -0.00    +0.000 C 
DOCKED: ATOM     14  N   UNL     1      34.987  14.993 124.105 -0.56 -0.00    +0.000 N 
DOCKED: ATOM     15  O   UNL     1      34.795  17.070 123.066 -0.40 -0.00    +0.000 OA
DOCKED: ATOM     16  H   UNL     1      35.580  14.290 124.456 -0.05 -0.00    +0.000 HD
DOCKED: BRANCH  14  17
DOCKED: ATOM     17  O   UNL     1      33.644  14.842 124.192 -0.64 -0.00    +0.000 OA
DOCKED: ATOM     18  H   UNL     1      33.206  15.612 123.797 -0.05 -0.00    +0.000 HD
DOCKED: ENDBRANCH  14  17
DOCKED: ENDBRANCH  12  13
DOCKED: ENDBRANCH  11  12
DOCKED: ENDBRANCH  10  11
DOCKED: ENDBRANCH   1  10
DOCKED: TORSDOF 9
DOCKED: TER
DOCKED: ENDMDL
________________________________________________________________________________


	BEGINNING GENETIC ALGORITHM DOCKING 61 of 100
Run: 61 Seed: 315104343 1807267984 [ Run 61 of 100 GA/GALS ]
Beginning LAMARCKIAN GENETIC ALGORITHM (LGA), with a maximum of 2500000 energy evaluations.

Final-Value: -12.794


	FINAL GENETIC ALGORITHM DOCKED STATE
	_______________________________________________


Detailed state:  trans 37.136 15.523 122.256 quatxyzw 0.444091 -0.131317 -0.137738 0.875538 center 0.300 0.400 0.510 ntor 9 179.3706 -2.7290 -180.0000 -179.8609 179.6879 89.6170 98.2501 5.6095 92.8283
State:	 37.136  15.523 122.256   0.919 -0.272 -0.285 57.783    179.37   -2.73 -180.00 -179.86  179.69   89.62   98.25    5.61   92.83

DOCKED: MODEL       61
DOCKED: USER    Run = 61
DOCKED: USER    DPF = ligand_dock.biased.dpf
DOCKED: USER  
DOCKED: USER    Estimated Free Energy of Binding    =   -8.57 kcal/mol  [=(1)+(2)+(3)-(4)]
DOCKED: USER    Estimated Inhibition Constant, Ki   =  526.42 nM (nanomolar)  [Temperature = 298.15 K]
DOCKED: USER    
DOCKED: USER    (1) Final Intermolecular Energy     =  -11.25 kcal/mol
DOCKED: USER        vdW + Hbond + desolv Energy     =  -11.25 kcal/mol
DOCKED: USER        Electrostatic Energy            =   +0.00 kcal/mol
DOCKED: USER    (2) Final Total Internal Energy     =   -1.54 kcal/mol
DOCKED: USER    (3) Torsional Free Energy           =   +2.68 kcal/mol
DOCKED: USER    (4) Unbound System's Energy  [=(2)] =   -1.54 kcal/mol
DOCKED: USER    
DOCKED: USER    
DOCKED: USER    NEWDPF move ligand.pdbqt
DOCKED: USER    NEWDPF about 0.300000 0.400000 0.510000
DOCKED: USER    NEWDPF tran0 37.135686 15.523387 122.255631
DOCKED: USER    NEWDPF quaternion0 0.444091 -0.131317 -0.137738 0.875538
DOCKED: USER    NEWDPF axisangle0 0.919160 -0.271794 -0.285084 57.782549
DOCKED: USER    NEWDPF quat0 0.919160 -0.271794 -0.285084 57.782549
DOCKED: USER    NEWDPF dihe0 179.37 -2.73 -180.00 -179.86 179.69 89.62 98.25 5.61 92.83 
DOCKED: USER  keepresnum = 1 
DOCKED: USER  
DOCKED: REMARK  Name = 
DOCKED: REMARK  9 active torsions:
DOCKED: REMARK  status: ('A' for Active; 'I' for Inactive)
DOCKED: REMARK    1  A    between atoms: O_1  and  N_2
DOCKED: REMARK    2  A    between atoms: C_3  and  C_4
DOCKED: REMARK    3  A    between atoms: C_4  and  C_5
DOCKED: REMARK    4  A    between atoms: C_5  and  C_6
DOCKED: REMARK    5  A    between atoms: C_6  and  C_7
DOCKED: REMARK    6  A    between atoms: C_7  and  C_8
DOCKED: REMARK    7  A    between atoms: C_8  and  C_9
DOCKED: REMARK    8  A    between atoms: C_9  and  C_10
DOCKED: REMARK    9  A    between atoms: N_11  and  O_12
DOCKED: REMARK                            x       y       z     vdW  Elec       q    Type
DOCKED: REMARK                         _______ _______ _______ _____ _____    ______ ____
DOCKED: USER                              x       y       z     vdW  Elec       q    Type
DOCKED: USER                           _______ _______ _______ _____ _____    ______ ____
DOCKED: ROOT
DOCKED: ATOM      1  C   UNL     1      37.047  13.833 121.982 -0.43 -0.00    +0.000 C 
DOCKED: ENDROOT
DOCKED: BRANCH   1   2
DOCKED: ATOM      2  C   UNL     1      38.354  14.454 122.486 -0.45 -0.00    +0.000 C 
DOCKED: BRANCH   2   3
DOCKED: ATOM      3  C   UNL     1      38.104  15.831 123.108 -0.32 -0.00    +0.000 C 
DOCKED: BRANCH   3   5
DOCKED: ATOM      4  N   UNL     1      35.789  15.953 124.147 -0.41 -0.00    +0.000 N 
DOCKED: ATOM      5  C   UNL     1      36.650  16.187 123.029 -0.33 -0.00    +0.000 C 
DOCKED: ATOM      6  O   UNL     1      36.195  16.731 121.988 -0.25 -0.00    +0.000 OA
DOCKED: ATOM      7  H   UNL     1      36.151  15.536 124.962 -0.04 -0.00    +0.000 HD
DOCKED: BRANCH   4   8
DOCKED: ATOM      8  O   UNL     1      34.481  16.298 124.093 -0.53 -0.00    +0.000 OA
DOCKED: ATOM      9  H   UNL     1      34.289  16.701 123.233 -0.02 -0.00    +0.000 HD
DOCKED: ENDBRANCH   4   8
DOCKED: ENDBRANCH   3   5
DOCKED: ENDBRANCH   2   3
DOCKED: ENDBRANCH   1   2
DOCKED: BRANCH   1  10
DOCKED: ATOM     10  C   UNL     1      36.273  13.169 123.130 -0.59 -0.00    +0.000 C 
DOCKED: BRANCH  10  11
DOCKED: ATOM     11  C   UNL     1      36.668  11.692 123.332 -0.70 -0.00    +0.000 C 
DOCKED: BRANCH  11  12
DOCKED: ATOM     12  C   UNL     1      35.817  10.712 122.508 -0.66 -0.00    +0.000 C 
DOCKED: BRANCH  12  13
DOCKED: ATOM     13  C   UNL     1      36.510   9.400 122.290 -0.71 -0.00    +0.000 C 
DOCKED: ATOM     14  N   UNL     1      36.530   8.411 123.323 -0.67 -0.00    +0.000 N 
DOCKED: ATOM     15  O   UNL     1      37.052   9.159 121.177 -2.73 -0.00    +0.000 OA
DOCKED: ATOM     16  H   UNL     1      36.103   8.601 124.189 -0.24 -0.00    +0.000 HD
DOCKED: BRANCH  14  17
DOCKED: ATOM     17  O   UNL     1      37.131   7.214 123.119 -1.99 -0.00    +0.000 OA
DOCKED: ATOM     18  H   UNL     1      37.462   7.170 122.208 -0.18 -0.00    +0.000 HD
DOCKED: ENDBRANCH  14  17
DOCKED: ENDBRANCH  12  13
DOCKED: ENDBRANCH  11  12
DOCKED: ENDBRANCH  10  11
DOCKED: ENDBRANCH   1  10
DOCKED: TORSDOF 9
DOCKED: TER
DOCKED: ENDMDL
________________________________________________________________________________


	BEGINNING GENETIC ALGORITHM DOCKING 62 of 100
Run: 62 Seed: 556346439 1883443343 [ Run 62 of 100 GA/GALS ]
Beginning LAMARCKIAN GENETIC ALGORITHM (LGA), with a maximum of 2500000 energy evaluations.

Final-Value: -13.641


	FINAL GENETIC ALGORITHM DOCKED STATE
	_______________________________________________


Detailed state:  trans 35.854 14.632 122.372 quatxyzw -0.262494 -0.669385 0.098882 -0.687927 center 0.300 0.400 0.510 ntor 9 -177.9766 -11.7898 -175.3678 -154.1364 -18.9848 24.1121 52.0460 -106.3748 148.8321
State:	 35.854  14.632 122.372  -0.362 -0.922  0.136 -93.068   -177.98  -11.79 -175.37 -154.14  -18.98   24.11   52.05 -106.37  148.83

DOCKED: MODEL       62
DOCKED: USER    Run = 62
DOCKED: USER    DPF = ligand_dock.biased.dpf
DOCKED: USER  
DOCKED: USER    Estimated Free Energy of Binding    =   -9.46 kcal/mol  [=(1)+(2)+(3)-(4)]
DOCKED: USER    Estimated Inhibition Constant, Ki   =  116.30 nM (nanomolar)  [Temperature = 298.15 K]
DOCKED: USER    
DOCKED: USER    (1) Final Intermolecular Energy     =  -12.14 kcal/mol
DOCKED: USER        vdW + Hbond + desolv Energy     =  -12.14 kcal/mol
DOCKED: USER        Electrostatic Energy            =   +0.00 kcal/mol
DOCKED: USER    (2) Final Total Internal Energy     =   -1.50 kcal/mol
DOCKED: USER    (3) Torsional Free Energy           =   +2.68 kcal/mol
DOCKED: USER    (4) Unbound System's Energy  [=(2)] =   -1.50 kcal/mol
DOCKED: USER    
DOCKED: USER    
DOCKED: USER    NEWDPF move ligand.pdbqt
DOCKED: USER    NEWDPF about 0.300000 0.400000 0.510000
DOCKED: USER    NEWDPF tran0 35.854116 14.632283 122.372069
DOCKED: USER    NEWDPF quaternion0 -0.262494 -0.669385 0.098882 -0.687927
DOCKED: USER    NEWDPF axisangle0 -0.361672 -0.922297 0.136242 -93.067583
DOCKED: USER    NEWDPF quat0 -0.361672 -0.922297 0.136242 -93.067583
DOCKED: USER    NEWDPF dihe0 -177.98 -11.79 -175.37 -154.14 -18.98 24.11 52.05 -106.37 148.83 
DOCKED: USER  keepresnum = 1 
DOCKED: USER  
DOCKED: REMARK  Name = 
DOCKED: REMARK  9 active torsions:
DOCKED: REMARK  status: ('A' for Active; 'I' for Inactive)
DOCKED: REMARK    1  A    between atoms: O_1  and  N_2
DOCKED: REMARK    2  A    between atoms: C_3  and  C_4
DOCKED: REMARK    3  A    between atoms: C_4  and  C_5
DOCKED: REMARK    4  A    between atoms: C_5  and  C_6
DOCKED: REMARK    5  A    between atoms: C_6  and  C_7
DOCKED: REMARK    6  A    between atoms: C_7  and  C_8
DOCKED: REMARK    7  A    between atoms: C_8  and  C_9
DOCKED: REMARK    8  A    between atoms: C_9  and  C_10
DOCKED: REMARK    9  A    between atoms: N_11  and  O_12
DOCKED: REMARK                            x       y       z     vdW  Elec       q    Type
DOCKED: REMARK                         _______ _______ _______ _____ _____    ______ ____
DOCKED: USER                              x       y       z     vdW  Elec       q    Type
DOCKED: USER                           _______ _______ _______ _____ _____    ______ ____
DOCKED: ROOT
DOCKED: ATOM      1  C   UNL     1      37.182  13.573 122.612 -0.52 -0.00    +0.000 C 
DOCKED: ENDROOT
DOCKED: BRANCH   1   2
DOCKED: ATOM      2  C   UNL     1      36.260  13.917 123.788 -0.54 -0.00    +0.000 C 
DOCKED: BRANCH   2   3
DOCKED: ATOM      3  C   UNL     1      35.608  15.288 123.592 -0.50 -0.00    +0.000 C 
DOCKED: BRANCH   3   5
DOCKED: ATOM      4  N   UNL     1      34.454  16.156 125.682 -0.39 -0.00    +0.000 N 
DOCKED: ATOM      5  C   UNL     1      34.391  15.420 124.457 -0.57 -0.00    +0.000 C 
DOCKED: ATOM      6  O   UNL     1      33.300  14.914 124.083 -0.53 -0.00    +0.000 OA
DOCKED: ATOM      7  H   UNL     1      35.306  16.558 125.966 +0.03 -0.00    +0.000 HD
DOCKED: BRANCH   4   8
DOCKED: ATOM      8  O   UNL     1      33.351  16.303 126.454 -1.03 -0.00    +0.000 OA
DOCKED: ATOM      9  H   UNL     1      32.610  15.824 126.053 -0.18 -0.00    +0.000 HD
DOCKED: ENDBRANCH   4   8
DOCKED: ENDBRANCH   3   5
DOCKED: ENDBRANCH   2   3
DOCKED: ENDBRANCH   1   2
DOCKED: BRANCH   1  10
DOCKED: ATOM     10  C   UNL     1      36.843  12.191 122.032 -0.58 -0.00    +0.000 C 
DOCKED: BRANCH  10  11
DOCKED: ATOM     11  C   UNL     1      36.353  11.204 123.111 -0.71 -0.00    +0.000 C 
DOCKED: BRANCH  11  12
DOCKED: ATOM     12  C   UNL     1      35.519  10.043 122.546 -0.66 -0.00    +0.000 C 
DOCKED: BRANCH  12  13
DOCKED: ATOM     13  C   UNL     1      36.358   8.841 122.226 -0.73 -0.00    +0.000 C 
DOCKED: ATOM     14  N   UNL     1      36.328   7.691 123.075 -0.72 -0.00    +0.000 N 
DOCKED: ATOM     15  O   UNL     1      37.071   8.837 121.187 -2.68 -0.00    +0.000 OA
DOCKED: ATOM     16  H   UNL     1      35.768   7.695 123.884 -0.06 -0.00    +0.000 HD
DOCKED: BRANCH  14  17
DOCKED: ATOM     17  O   UNL     1      37.063   6.593 122.775 -1.32 -0.00    +0.000 OA
DOCKED: ATOM     18  H   UNL     1      37.405   6.671 121.870 -0.44 -0.00    +0.000 HD
DOCKED: ENDBRANCH  14  17
DOCKED: ENDBRANCH  12  13
DOCKED: ENDBRANCH  11  12
DOCKED: ENDBRANCH  10  11
DOCKED: ENDBRANCH   1  10
DOCKED: TORSDOF 9
DOCKED: TER
DOCKED: ENDMDL
________________________________________________________________________________


	BEGINNING GENETIC ALGORITHM DOCKING 63 of 100
Run: 63 Seed: 543735153 494606095 [ Run 63 of 100 GA/GALS ]
Beginning LAMARCKIAN GENETIC ALGORITHM (LGA), with a maximum of 2500000 energy evaluations.

Final-Value: -13.925


	FINAL GENETIC ALGORITHM DOCKED STATE
	_______________________________________________


Detailed state:  trans 35.229 14.131 122.309 quatxyzw 0.184422 0.543830 -0.561467 0.595813 center 0.300 0.400 0.510 ntor 9 -180.0000 27.9798 75.6297 160.3962 -8.5516 35.5270 -9.5477 -169.5820 -132.6132
State:	 35.229  14.131 122.309   0.230  0.677 -0.699 106.859   -180.00   27.98   75.63  160.40   -8.55   35.53   -9.55 -169.58 -132.61

DOCKED: MODEL       63
DOCKED: USER    Run = 63
DOCKED: USER    DPF = ligand_dock.biased.dpf
DOCKED: USER  
DOCKED: USER    Estimated Free Energy of Binding    =   -9.82 kcal/mol  [=(1)+(2)+(3)-(4)]
DOCKED: USER    Estimated Inhibition Constant, Ki   =   63.06 nM (nanomolar)  [Temperature = 298.15 K]
DOCKED: USER    
DOCKED: USER    (1) Final Intermolecular Energy     =  -12.51 kcal/mol
DOCKED: USER        vdW + Hbond + desolv Energy     =  -12.51 kcal/mol
DOCKED: USER        Electrostatic Energy            =   +0.00 kcal/mol
DOCKED: USER    (2) Final Total Internal Energy     =   -1.42 kcal/mol
DOCKED: USER    (3) Torsional Free Energy           =   +2.68 kcal/mol
DOCKED: USER    (4) Unbound System's Energy  [=(2)] =   -1.42 kcal/mol
DOCKED: USER    
DOCKED: USER    
DOCKED: USER    NEWDPF move ligand.pdbqt
DOCKED: USER    NEWDPF about 0.300000 0.400000 0.510000
DOCKED: USER    NEWDPF tran0 35.228811 14.131079 122.308821
DOCKED: USER    NEWDPF quaternion0 0.184422 0.543830 -0.561467 0.595813
DOCKED: USER    NEWDPF axisangle0 0.229630 0.677143 -0.699104 106.858757
DOCKED: USER    NEWDPF quat0 0.229630 0.677143 -0.699104 106.858757
DOCKED: USER    NEWDPF dihe0 -180.00 27.98 75.63 160.40 -8.55 35.53 -9.55 -169.58 -132.61 
DOCKED: USER  keepresnum = 1 
DOCKED: USER  
DOCKED: REMARK  Name = 
DOCKED: REMARK  9 active torsions:
DOCKED: REMARK  status: ('A' for Active; 'I' for Inactive)
DOCKED: REMARK    1  A    between atoms: O_1  and  N_2
DOCKED: REMARK    2  A    between atoms: C_3  and  C_4
DOCKED: REMARK    3  A    between atoms: C_4  and  C_5
DOCKED: REMARK    4  A    between atoms: C_5  and  C_6
DOCKED: REMARK    5  A    between atoms: C_6  and  C_7
DOCKED: REMARK    6  A    between atoms: C_7  and  C_8
DOCKED: REMARK    7  A    between atoms: C_8  and  C_9
DOCKED: REMARK    8  A    between atoms: C_9  and  C_10
DOCKED: REMARK    9  A    between atoms: N_11  and  O_12
DOCKED: REMARK                            x       y       z     vdW  Elec       q    Type
DOCKED: REMARK                         _______ _______ _______ _____ _____    ______ ____
DOCKED: USER                              x       y       z     vdW  Elec       q    Type
DOCKED: USER                           _______ _______ _______ _____ _____    ______ ____
DOCKED: ROOT
DOCKED: ATOM      1  C   UNL     1      36.931  14.345 122.299 -0.41 -0.00    +0.000 C 
DOCKED: ENDROOT
DOCKED: BRANCH   1   2
DOCKED: ATOM      2  C   UNL     1      36.113  14.799 123.514 -0.50 -0.00    +0.000 C 
DOCKED: BRANCH   2   3
DOCKED: ATOM      3  C   UNL     1      35.624  16.239 123.340 -0.41 -0.00    +0.000 C 
DOCKED: BRANCH   3   5
DOCKED: ATOM      4  N   UNL     1      34.177  15.597 125.327 -0.54 -0.00    +0.000 N 
DOCKED: ATOM      5  C   UNL     1      34.652  16.599 124.423 -0.50 -0.00    +0.000 C 
DOCKED: ATOM      6  O   UNL     1      34.284  17.796 124.560 -0.41 -0.00    +0.000 OA
DOCKED: ATOM      7  H   UNL     1      34.474  14.665 125.221 -0.04 -0.00    +0.000 HD
DOCKED: BRANCH   4   8
DOCKED: ATOM      8  O   UNL     1      33.321  15.920 126.325 -1.01 -0.00    +0.000 OA
DOCKED: ATOM      9  H   UNL     1      33.128  16.870 126.290 -0.04 -0.00    +0.000 HD
DOCKED: ENDBRANCH   4   8
DOCKED: ENDBRANCH   3   5
DOCKED: ENDBRANCH   2   3
DOCKED: ENDBRANCH   1   2
DOCKED: BRANCH   1  10
DOCKED: ATOM     10  C   UNL     1      37.616  12.996 122.569 -0.51 -0.00    +0.000 C 
DOCKED: BRANCH  10  11
DOCKED: ATOM     11  C   UNL     1      36.666  11.975 123.228 -0.69 -0.00    +0.000 C 
DOCKED: BRANCH  11  12
DOCKED: ATOM     12  C   UNL     1      35.981  11.037 122.221 -0.62 -0.00    +0.000 C 
DOCKED: BRANCH  12  13
DOCKED: ATOM     13  C   UNL     1      36.590   9.666 122.213 -0.69 -0.00    +0.000 C 
DOCKED: ATOM     14  N   UNL     1      36.602   8.873 123.403 -0.58 -0.00    +0.000 N 
DOCKED: ATOM     15  O   UNL     1      37.066   9.202 121.143 -2.74 -0.00    +0.000 OA
DOCKED: ATOM     16  H   UNL     1      36.225   9.237 124.237 -0.28 -0.00    +0.000 HD
DOCKED: BRANCH  14  17
DOCKED: ATOM     17  O   UNL     1      37.125   7.624 123.393 -2.23 -0.00    +0.000 OA
DOCKED: ATOM     18  H   UNL     1      37.812   7.567 122.710 -0.29 -0.00    +0.000 HD
DOCKED: ENDBRANCH  14  17
DOCKED: ENDBRANCH  12  13
DOCKED: ENDBRANCH  11  12
DOCKED: ENDBRANCH  10  11
DOCKED: ENDBRANCH   1  10
DOCKED: TORSDOF 9
DOCKED: TER
DOCKED: ENDMDL
________________________________________________________________________________


	BEGINNING GENETIC ALGORITHM DOCKING 64 of 100
Run: 64 Seed: 1094383020 2048277499 [ Run 64 of 100 GA/GALS ]
Beginning LAMARCKIAN GENETIC ALGORITHM (LGA), with a maximum of 2500000 energy evaluations.

Final-Value: -12.724


	FINAL GENETIC ALGORITHM DOCKED STATE
	_______________________________________________


Detailed state:  trans 37.087 14.998 121.334 quatxyzw -0.662007 -0.423091 0.166909 -0.595720 center 0.300 0.400 0.510 ntor 9 -179.4952 -9.2375 -172.4226 -124.2761 39.1285 178.9484 -177.8980 -104.3318 -32.5904
State:	 37.087  14.998 121.334  -0.824 -0.527  0.208 -106.872   -179.50   -9.24 -172.42 -124.28   39.13  178.95 -177.90 -104.33  -32.59

DOCKED: MODEL       64
DOCKED: USER    Run = 64
DOCKED: USER    DPF = ligand_dock.biased.dpf
DOCKED: USER  
DOCKED: USER    Estimated Free Energy of Binding    =   -8.52 kcal/mol  [=(1)+(2)+(3)-(4)]
DOCKED: USER    Estimated Inhibition Constant, Ki   =  569.19 nM (nanomolar)  [Temperature = 298.15 K]
DOCKED: USER    
DOCKED: USER    (1) Final Intermolecular Energy     =  -11.20 kcal/mol
DOCKED: USER        vdW + Hbond + desolv Energy     =  -11.20 kcal/mol
DOCKED: USER        Electrostatic Energy            =   +0.00 kcal/mol
DOCKED: USER    (2) Final Total Internal Energy     =   -1.52 kcal/mol
DOCKED: USER    (3) Torsional Free Energy           =   +2.68 kcal/mol
DOCKED: USER    (4) Unbound System's Energy  [=(2)] =   -1.52 kcal/mol
DOCKED: USER    
DOCKED: USER    
DOCKED: USER    NEWDPF move ligand.pdbqt
DOCKED: USER    NEWDPF about 0.300000 0.400000 0.510000
DOCKED: USER    NEWDPF tran0 37.087453 14.997563 121.334327
DOCKED: USER    NEWDPF quaternion0 -0.662007 -0.423091 0.166909 -0.595720
DOCKED: USER    NEWDPF axisangle0 -0.824220 -0.526762 0.207807 -106.872070
DOCKED: USER    NEWDPF quat0 -0.824220 -0.526762 0.207807 -106.872070
DOCKED: USER    NEWDPF dihe0 -179.50 -9.24 -172.42 -124.28 39.13 178.95 -177.90 -104.33 -32.59 
DOCKED: USER  keepresnum = 1 
DOCKED: USER  
DOCKED: REMARK  Name = 
DOCKED: REMARK  9 active torsions:
DOCKED: REMARK  status: ('A' for Active; 'I' for Inactive)
DOCKED: REMARK    1  A    between atoms: O_1  and  N_2
DOCKED: REMARK    2  A    between atoms: C_3  and  C_4
DOCKED: REMARK    3  A    between atoms: C_4  and  C_5
DOCKED: REMARK    4  A    between atoms: C_5  and  C_6
DOCKED: REMARK    5  A    between atoms: C_6  and  C_7
DOCKED: REMARK    6  A    between atoms: C_7  and  C_8
DOCKED: REMARK    7  A    between atoms: C_8  and  C_9
DOCKED: REMARK    8  A    between atoms: C_9  and  C_10
DOCKED: REMARK    9  A    between atoms: N_11  and  O_12
DOCKED: REMARK                            x       y       z     vdW  Elec       q    Type
DOCKED: REMARK                         _______ _______ _______ _____ _____    ______ ____
DOCKED: USER                              x       y       z     vdW  Elec       q    Type
DOCKED: USER                           _______ _______ _______ _____ _____    ______ ____
DOCKED: ROOT
DOCKED: ATOM      1  C   UNL     1      37.829  13.801 122.315 -0.49 -0.00    +0.000 C 
DOCKED: ENDROOT
DOCKED: BRANCH   1   2
DOCKED: ATOM      2  C   UNL     1      37.626  15.218 122.865 -0.39 -0.00    +0.000 C 
DOCKED: BRANCH   2   3
DOCKED: ATOM      3  C   UNL     1      36.443  15.266 123.835 -0.42 -0.00    +0.000 C 
DOCKED: BRANCH   3   5
DOCKED: ATOM      4  N   UNL     1      34.412  16.522 122.968 -0.42 -0.00    +0.000 N 
DOCKED: ATOM      5  C   UNL     1      35.666  16.536 123.655 -0.40 -0.00    +0.000 C 
DOCKED: ATOM      6  O   UNL     1      36.103  17.610 124.146 -0.28 -0.00    +0.000 OA
DOCKED: ATOM      7  H   UNL     1      34.070  15.678 122.595 -0.02 -0.00    +0.000 HD
DOCKED: BRANCH   4   8
DOCKED: ATOM      8  O   UNL     1      33.692  17.660 122.827 -0.46 -0.00    +0.000 OA
DOCKED: ATOM      9  H   UNL     1      34.168  18.397 123.240 -0.02 -0.00    +0.000 HD
DOCKED: ENDBRANCH   4   8
DOCKED: ENDBRANCH   3   5
DOCKED: ENDBRANCH   2   3
DOCKED: ENDBRANCH   1   2
DOCKED: BRANCH   1  10
DOCKED: ATOM     10  C   UNL     1      36.754  12.843 122.850 -0.60 -0.00    +0.000 C 
DOCKED: BRANCH  10  11
DOCKED: ATOM     11  C   UNL     1      36.348  11.775 121.813 -0.55 -0.00    +0.000 C 
DOCKED: BRANCH  11  12
DOCKED: ATOM     12  C   UNL     1      35.674  10.542 122.436 -0.65 -0.00    +0.000 C 
DOCKED: BRANCH  12  13
DOCKED: ATOM     13  C   UNL     1      36.515   9.307 122.306 -0.72 -0.00    +0.000 C 
DOCKED: ATOM     14  N   UNL     1      36.686   8.428 123.421 -0.67 -0.00    +0.000 N 
DOCKED: ATOM     15  O   UNL     1      37.049   9.029 121.199 -2.71 -0.00    +0.000 OA
DOCKED: ATOM     16  H   UNL     1      36.265   8.645 124.284 -0.26 -0.00    +0.000 HD
DOCKED: BRANCH  14  17
DOCKED: ATOM     17  O   UNL     1      37.422   7.297 123.301 -1.91 -0.00    +0.000 OA
DOCKED: ATOM     18  H   UNL     1      37.642   7.153 122.367 -0.24 -0.00    +0.000 HD
DOCKED: ENDBRANCH  14  17
DOCKED: ENDBRANCH  12  13
DOCKED: ENDBRANCH  11  12
DOCKED: ENDBRANCH  10  11
DOCKED: ENDBRANCH   1  10
DOCKED: TORSDOF 9
DOCKED: TER
DOCKED: ENDMDL
________________________________________________________________________________


	BEGINNING GENETIC ALGORITHM DOCKING 65 of 100
Run: 65 Seed: 775628019 467449635 [ Run 65 of 100 GA/GALS ]
Beginning LAMARCKIAN GENETIC ALGORITHM (LGA), with a maximum of 2500000 energy evaluations.

Final-Value: -13.923


	FINAL GENETIC ALGORITHM DOCKED STATE
	_______________________________________________


Detailed state:  trans 38.680 12.745 122.809 quatxyzw -0.129960 0.263480 -0.684393 -0.667304 center 0.300 0.400 0.510 ntor 9 179.2280 11.5068 173.8728 -30.4201 -47.4878 -178.9675 -81.4990 154.1058 -80.6911
State:	 38.680  12.745 122.809  -0.174  0.354 -0.919 -96.281    179.23   11.51  173.87  -30.42  -47.49 -178.97  -81.50  154.11  -80.69

DOCKED: MODEL       65
DOCKED: USER    Run = 65
DOCKED: USER    DPF = ligand_dock.biased.dpf
DOCKED: USER  
DOCKED: USER    Estimated Free Energy of Binding    =   -9.67 kcal/mol  [=(1)+(2)+(3)-(4)]
DOCKED: USER    Estimated Inhibition Constant, Ki   =   81.63 nM (nanomolar)  [Temperature = 298.15 K]
DOCKED: USER    
DOCKED: USER    (1) Final Intermolecular Energy     =  -12.35 kcal/mol
DOCKED: USER        vdW + Hbond + desolv Energy     =  -12.35 kcal/mol
DOCKED: USER        Electrostatic Energy            =   +0.00 kcal/mol
DOCKED: USER    (2) Final Total Internal Energy     =   -1.57 kcal/mol
DOCKED: USER    (3) Torsional Free Energy           =   +2.68 kcal/mol
DOCKED: USER    (4) Unbound System's Energy  [=(2)] =   -1.57 kcal/mol
DOCKED: USER    
DOCKED: USER    
DOCKED: USER    NEWDPF move ligand.pdbqt
DOCKED: USER    NEWDPF about 0.300000 0.400000 0.510000
DOCKED: USER    NEWDPF tran0 38.680345 12.745187 122.808739
DOCKED: USER    NEWDPF quaternion0 -0.129960 0.263480 -0.684393 -0.667304
DOCKED: USER    NEWDPF axisangle0 -0.174493 0.353767 -0.918913 -96.281282
DOCKED: USER    NEWDPF quat0 -0.174493 0.353767 -0.918913 -96.281282
DOCKED: USER    NEWDPF dihe0 179.23 11.51 173.87 -30.42 -47.49 -178.97 -81.50 154.11 -80.69 
DOCKED: USER  keepresnum = 1 
DOCKED: USER  
DOCKED: REMARK  Name = 
DOCKED: REMARK  9 active torsions:
DOCKED: REMARK  status: ('A' for Active; 'I' for Inactive)
DOCKED: REMARK    1  A    between atoms: O_1  and  N_2
DOCKED: REMARK    2  A    between atoms: C_3  and  C_4
DOCKED: REMARK    3  A    between atoms: C_4  and  C_5
DOCKED: REMARK    4  A    between atoms: C_5  and  C_6
DOCKED: REMARK    5  A    between atoms: C_6  and  C_7
DOCKED: REMARK    6  A    between atoms: C_7  and  C_8
DOCKED: REMARK    7  A    between atoms: C_8  and  C_9
DOCKED: REMARK    8  A    between atoms: C_9  and  C_10
DOCKED: REMARK    9  A    between atoms: N_11  and  O_12
DOCKED: REMARK                            x       y       z     vdW  Elec       q    Type
DOCKED: REMARK                         _______ _______ _______ _____ _____    ______ ____
DOCKED: USER                              x       y       z     vdW  Elec       q    Type
DOCKED: USER                           _______ _______ _______ _____ _____    ______ ____
DOCKED: ROOT
DOCKED: ATOM      1  C   UNL     1      37.266  13.205 121.954 -0.50 -0.00    +0.000 C 
DOCKED: ENDROOT
DOCKED: BRANCH   1   2
DOCKED: ATOM      2  C   UNL     1      37.264  11.924 122.796 -0.54 -0.00    +0.000 C 
DOCKED: BRANCH   2   3
DOCKED: ATOM      3  C   UNL     1      36.131  10.987 122.368 -0.66 -0.00    +0.000 C 
DOCKED: BRANCH   3   5
DOCKED: ATOM      4  N   UNL     1      36.637   8.672 123.283 -0.65 -0.00    +0.000 N 
DOCKED: ATOM      5  C   UNL     1      36.644   9.590 122.186 -0.70 -0.00    +0.000 C 
DOCKED: ATOM      6  O   UNL     1      37.045   9.214 121.053 -2.73 -0.00    +0.000 OA
DOCKED: ATOM      7  H   UNL     1      36.314   8.968 124.165 -0.33 -0.00    +0.000 HD
DOCKED: BRANCH   4   8
DOCKED: ATOM      8  O   UNL     1      37.072   7.400 123.119 -2.18 -0.00    +0.000 OA
DOCKED: ATOM      9  H   UNL     1      37.344   7.268 122.197 -0.14 -0.00    +0.000 HD
DOCKED: ENDBRANCH   4   8
DOCKED: ENDBRANCH   3   5
DOCKED: ENDBRANCH   2   3
DOCKED: ENDBRANCH   1   2
DOCKED: BRANCH   1  10
DOCKED: ATOM     10  C   UNL     1      36.571  14.355 122.699 -0.44 -0.00    +0.000 C 
DOCKED: BRANCH  10  11
DOCKED: ATOM     11  C   UNL     1      37.573  15.279 123.422 -0.35 -0.00    +0.000 C 
DOCKED: BRANCH  11  12
DOCKED: ATOM     12  C   UNL     1      38.609  15.914 122.480 -0.30 -0.00    +0.000 C 
DOCKED: BRANCH  12  13
DOCKED: ATOM     13  C   UNL     1      39.990  15.373 122.704 -0.38 -0.00    +0.000 C 
DOCKED: ATOM     14  N   UNL     1      41.101  16.261 122.851 -0.35 -0.00    +0.000 N 
DOCKED: ATOM     15  O   UNL     1      40.165  14.128 122.792 -0.91 +0.00    +0.000 OA
DOCKED: ATOM     16  H   UNL     1      40.961  17.234 122.786 -0.00 -0.00    +0.000 HD
DOCKED: BRANCH  14  17
DOCKED: ATOM     17  O   UNL     1      42.345  15.777 123.081 -1.12 +0.00    +0.000 OA
DOCKED: ATOM     18  H   UNL     1      42.349  14.818 122.938 -0.06 +0.00    +0.000 HD
DOCKED: ENDBRANCH  14  17
DOCKED: ENDBRANCH  12  13
DOCKED: ENDBRANCH  11  12
DOCKED: ENDBRANCH  10  11
DOCKED: ENDBRANCH   1  10
DOCKED: TORSDOF 9
DOCKED: TER
DOCKED: ENDMDL
________________________________________________________________________________


	BEGINNING GENETIC ALGORITHM DOCKING 66 of 100
Run: 66 Seed: 181458835 1091585308 [ Run 66 of 100 GA/GALS ]
Beginning LAMARCKIAN GENETIC ALGORITHM (LGA), with a maximum of 2500000 energy evaluations.

Final-Value: -13.789


	FINAL GENETIC ALGORITHM DOCKED STATE
	_______________________________________________


Detailed state:  trans 35.901 11.891 122.967 quatxyzw 0.793195 -0.387459 -0.422027 -0.206421 center 0.300 0.400 0.510 ntor 9 -163.9437 3.5269 172.3150 -123.7514 82.5865 -111.5264 51.1167 11.0223 174.2840
State:	 35.901  11.891 122.967   0.811 -0.396 -0.431 -156.175   -163.94    3.53  172.31 -123.75   82.59 -111.53   51.12   11.02  174.28

DOCKED: MODEL       66
DOCKED: USER    Run = 66
DOCKED: USER    DPF = ligand_dock.biased.dpf
DOCKED: USER  
DOCKED: USER    Estimated Free Energy of Binding    =   -9.51 kcal/mol  [=(1)+(2)+(3)-(4)]
DOCKED: USER    Estimated Inhibition Constant, Ki   =  107.63 nM (nanomolar)  [Temperature = 298.15 K]
DOCKED: USER    
DOCKED: USER    (1) Final Intermolecular Energy     =  -12.19 kcal/mol
DOCKED: USER        vdW + Hbond + desolv Energy     =  -12.19 kcal/mol
DOCKED: USER        Electrostatic Energy            =   +0.00 kcal/mol
DOCKED: USER    (2) Final Total Internal Energy     =   -1.60 kcal/mol
DOCKED: USER    (3) Torsional Free Energy           =   +2.68 kcal/mol
DOCKED: USER    (4) Unbound System's Energy  [=(2)] =   -1.60 kcal/mol
DOCKED: USER    
DOCKED: USER    
DOCKED: USER    NEWDPF move ligand.pdbqt
DOCKED: USER    NEWDPF about 0.300000 0.400000 0.510000
DOCKED: USER    NEWDPF tran0 35.900993 11.890919 122.966529
DOCKED: USER    NEWDPF quaternion0 0.793195 -0.387459 -0.422027 -0.206421
DOCKED: USER    NEWDPF axisangle0 0.810654 -0.395987 -0.431316 -156.174658
DOCKED: USER    NEWDPF quat0 0.810654 -0.395987 -0.431316 -156.174658
DOCKED: USER    NEWDPF dihe0 -163.94 3.53 172.31 -123.75 82.59 -111.53 51.12 11.02 174.28 
DOCKED: USER  keepresnum = 1 
DOCKED: USER  
DOCKED: REMARK  Name = 
DOCKED: REMARK  9 active torsions:
DOCKED: REMARK  status: ('A' for Active; 'I' for Inactive)
DOCKED: REMARK    1  A    between atoms: O_1  and  N_2
DOCKED: REMARK    2  A    between atoms: C_3  and  C_4
DOCKED: REMARK    3  A    between atoms: C_4  and  C_5
DOCKED: REMARK    4  A    between atoms: C_5  and  C_6
DOCKED: REMARK    5  A    between atoms: C_6  and  C_7
DOCKED: REMARK    6  A    between atoms: C_7  and  C_8
DOCKED: REMARK    7  A    between atoms: C_8  and  C_9
DOCKED: REMARK    8  A    between atoms: C_9  and  C_10
DOCKED: REMARK    9  A    between atoms: N_11  and  O_12
DOCKED: REMARK                            x       y       z     vdW  Elec       q    Type
DOCKED: REMARK                         _______ _______ _______ _____ _____    ______ ____
DOCKED: USER                              x       y       z     vdW  Elec       q    Type
DOCKED: USER                           _______ _______ _______ _____ _____    ______ ____
DOCKED: ROOT
DOCKED: ATOM      1  C   UNL     1      37.432  12.492 123.453 -0.58 -0.00    +0.000 C 
DOCKED: ENDROOT
DOCKED: BRANCH   1   2
DOCKED: ATOM      2  C   UNL     1      37.254  11.915 122.044 -0.50 -0.00    +0.000 C 
DOCKED: BRANCH   2   3
DOCKED: ATOM      3  C   UNL     1      36.140  10.865 122.017 -0.58 -0.00    +0.000 C 
DOCKED: BRANCH   3   5
DOCKED: ATOM      4  N   UNL     1      36.939   8.881 123.388 -0.61 -0.00    +0.000 N 
DOCKED: ATOM      5  C   UNL     1      36.716   9.484 122.111 -0.70 -0.00    +0.000 C 
DOCKED: ATOM      6  O   UNL     1      36.967   8.839 121.058 -2.67 -0.00    +0.000 OA
DOCKED: ATOM      7  H   UNL     1      36.733   9.385 124.208 -0.49 -0.00    +0.000 HD
DOCKED: BRANCH   4   8
DOCKED: ATOM      8  O   UNL     1      37.433   7.623 123.480 -2.12 -0.00    +0.000 OA
DOCKED: ATOM      9  H   UNL     1      37.816   7.364 122.627 -0.32 -0.00    +0.000 HD
DOCKED: ENDBRANCH   4   8
DOCKED: ENDBRANCH   3   5
DOCKED: ENDBRANCH   2   3
DOCKED: ENDBRANCH   1   2
DOCKED: BRANCH   1  10
DOCKED: ATOM     10  C   UNL     1      37.409  14.028 123.427 -0.48 -0.00    +0.000 C 
DOCKED: BRANCH  10  11
DOCKED: ATOM     11  C   UNL     1      37.410  14.592 121.991 -0.39 -0.00    +0.000 C 
DOCKED: BRANCH  11  12
DOCKED: ATOM     12  C   UNL     1      38.816  14.716 121.383 -0.35 -0.00    +0.000 C 
DOCKED: BRANCH  12  13
DOCKED: ATOM     13  C   UNL     1      39.811  15.276 122.356 -0.40 -0.00    +0.000 C 
DOCKED: ATOM     14  N   UNL     1      41.108  14.689 122.484 -0.52 -0.00    +0.000 N 
DOCKED: ATOM     15  O   UNL     1      39.508  16.290 123.042 -0.32 -0.00    +0.000 OA
DOCKED: ATOM     16  H   UNL     1      41.343  13.900 121.944 -0.04 +0.00    +0.000 HD
DOCKED: BRANCH  14  17
DOCKED: ATOM     17  O   UNL     1      42.019  15.210 123.342 -1.07 +0.00    +0.000 OA
DOCKED: ATOM     18  H   UNL     1      41.617  15.943 123.834 -0.05 +0.00    +0.000 HD
DOCKED: ENDBRANCH  14  17
DOCKED: ENDBRANCH  12  13
DOCKED: ENDBRANCH  11  12
DOCKED: ENDBRANCH  10  11
DOCKED: ENDBRANCH   1  10
DOCKED: TORSDOF 9
DOCKED: TER
DOCKED: ENDMDL
________________________________________________________________________________


	BEGINNING GENETIC ALGORITHM DOCKING 67 of 100
Run: 67 Seed: 140656337 586287385 [ Run 67 of 100 GA/GALS ]
Beginning LAMARCKIAN GENETIC ALGORITHM (LGA), with a maximum of 2500000 energy evaluations.

Final-Value: -13.783


	FINAL GENETIC ALGORITHM DOCKED STATE
	_______________________________________________


Detailed state:  trans 35.937 11.455 123.241 quatxyzw 0.804848 -0.247191 -0.441911 -0.309565 center 0.300 0.400 0.510 ntor 9 179.9223 4.9063 176.1850 179.8965 73.5019 138.3887 69.6380 129.5598 92.2800
State:	 35.937  11.455 123.241   0.846 -0.260 -0.465 -143.934    179.92    4.91  176.19  179.90   73.50  138.39   69.64  129.56   92.28

DOCKED: MODEL       67
DOCKED: USER    Run = 67
DOCKED: USER    DPF = ligand_dock.biased.dpf
DOCKED: USER  
DOCKED: USER    Estimated Free Energy of Binding    =   -9.58 kcal/mol  [=(1)+(2)+(3)-(4)]
DOCKED: USER    Estimated Inhibition Constant, Ki   =   94.78 nM (nanomolar)  [Temperature = 298.15 K]
DOCKED: USER    
DOCKED: USER    (1) Final Intermolecular Energy     =  -12.27 kcal/mol
DOCKED: USER        vdW + Hbond + desolv Energy     =  -12.27 kcal/mol
DOCKED: USER        Electrostatic Energy            =   +0.00 kcal/mol
DOCKED: USER    (2) Final Total Internal Energy     =   -1.52 kcal/mol
DOCKED: USER    (3) Torsional Free Energy           =   +2.68 kcal/mol
DOCKED: USER    (4) Unbound System's Energy  [=(2)] =   -1.52 kcal/mol
DOCKED: USER    
DOCKED: USER    
DOCKED: USER    NEWDPF move ligand.pdbqt
DOCKED: USER    NEWDPF about 0.300000 0.400000 0.510000
DOCKED: USER    NEWDPF tran0 35.936877 11.455283 123.240872
DOCKED: USER    NEWDPF quaternion0 0.804848 -0.247191 -0.441911 -0.309565
DOCKED: USER    NEWDPF axisangle0 0.846426 -0.259961 -0.464740 -143.933907
DOCKED: USER    NEWDPF quat0 0.846426 -0.259961 -0.464740 -143.933907
DOCKED: USER    NEWDPF dihe0 179.92 4.91 176.19 179.90 73.50 138.39 69.64 129.56 92.28 
DOCKED: USER  keepresnum = 1 
DOCKED: USER  
DOCKED: REMARK  Name = 
DOCKED: REMARK  9 active torsions:
DOCKED: REMARK  status: ('A' for Active; 'I' for Inactive)
DOCKED: REMARK    1  A    between atoms: O_1  and  N_2
DOCKED: REMARK    2  A    between atoms: C_3  and  C_4
DOCKED: REMARK    3  A    between atoms: C_4  and  C_5
DOCKED: REMARK    4  A    between atoms: C_5  and  C_6
DOCKED: REMARK    5  A    between atoms: C_6  and  C_7
DOCKED: REMARK    6  A    between atoms: C_7  and  C_8
DOCKED: REMARK    7  A    between atoms: C_8  and  C_9
DOCKED: REMARK    8  A    between atoms: C_9  and  C_10
DOCKED: REMARK    9  A    between atoms: N_11  and  O_12
DOCKED: REMARK                            x       y       z     vdW  Elec       q    Type
DOCKED: REMARK                         _______ _______ _______ _____ _____    ______ ____
DOCKED: USER                              x       y       z     vdW  Elec       q    Type
DOCKED: USER                           _______ _______ _______ _____ _____    ______ ____
DOCKED: ROOT
DOCKED: ATOM      1  C   UNL     1      37.264  12.516 123.475 -0.61 -0.00    +0.000 C 
DOCKED: ENDROOT
DOCKED: BRANCH   1   2
DOCKED: ATOM      2  C   UNL     1      37.059  11.843 122.113 -0.59 -0.00    +0.000 C 
DOCKED: BRANCH   2   3
DOCKED: ATOM      3  C   UNL     1      35.966  10.773 122.188 -0.61 -0.00    +0.000 C 
DOCKED: BRANCH   3   5
DOCKED: ATOM      4  N   UNL     1      36.899   8.710 123.341 -0.65 -0.00    +0.000 N 
DOCKED: ATOM      5  C   UNL     1      36.569   9.402 122.133 -0.70 -0.00    +0.000 C 
DOCKED: ATOM      6  O   UNL     1      36.748   8.841 121.019 -2.63 -0.00    +0.000 OA
DOCKED: ATOM      7  H   UNL     1      36.748   9.149 124.210 -0.48 -0.00    +0.000 HD
DOCKED: BRANCH   4   8
DOCKED: ATOM      8  O   UNL     1      37.416   7.460 123.300 -2.04 -0.00    +0.000 OA
DOCKED: ATOM      9  H   UNL     1      37.501   7.176 122.377 -0.21 -0.00    +0.000 HD
DOCKED: ENDBRANCH   4   8
DOCKED: ENDBRANCH   3   5
DOCKED: ENDBRANCH   2   3
DOCKED: ENDBRANCH   1   2
DOCKED: BRANCH   1  10
DOCKED: ATOM     10  C   UNL     1      36.766  13.969 123.453 -0.53 -0.00    +0.000 C 
DOCKED: BRANCH  10  11
DOCKED: ATOM     11  C   UNL     1      37.868  14.963 123.030 -0.41 -0.00    +0.000 C 
DOCKED: BRANCH  11  12
DOCKED: ATOM     12  C   UNL     1      38.849  14.386 121.997 -0.41 -0.00    +0.000 C 
DOCKED: BRANCH  12  13
DOCKED: ATOM     13  C   UNL     1      40.198  15.039 122.066 -0.42 -0.00    +0.000 C 
DOCKED: ATOM     14  N   UNL     1      41.135  14.658 123.078 -0.55 -0.00    +0.000 N 
DOCKED: ATOM     15  O   UNL     1      40.517  15.906 121.209 -0.25 -0.00    +0.000 OA
DOCKED: ATOM     16  H   UNL     1      40.885  13.978 123.744 -0.08 -0.00    +0.000 HD
DOCKED: BRANCH  14  17
DOCKED: ATOM     17  O   UNL     1      42.364  15.225 123.127 -1.08 +0.00    +0.000 OA
DOCKED: ATOM     18  H   UNL     1      42.425  15.924 122.457 -0.02 -0.00    +0.000 HD
DOCKED: ENDBRANCH  14  17
DOCKED: ENDBRANCH  12  13
DOCKED: ENDBRANCH  11  12
DOCKED: ENDBRANCH  10  11
DOCKED: ENDBRANCH   1  10
DOCKED: TORSDOF 9
DOCKED: TER
DOCKED: ENDMDL
________________________________________________________________________________


	BEGINNING GENETIC ALGORITHM DOCKING 68 of 100
Run: 68 Seed: 368957452 2048634232 [ Run 68 of 100 GA/GALS ]
Beginning LAMARCKIAN GENETIC ALGORITHM (LGA), with a maximum of 2500000 energy evaluations.

Final-Value: -13.397


	FINAL GENETIC ALGORITHM DOCKED STATE
	_______________________________________________


Detailed state:  trans 38.153 12.144 121.477 quatxyzw -0.387058 0.500767 -0.656248 -0.410800 center 0.300 0.400 0.510 ntor 9 -170.9949 6.0825 -179.9756 160.3983 -38.6017 85.7117 -40.4661 -174.6737 -115.2066
State:	 38.153  12.144 121.477  -0.425  0.549 -0.720 -131.490   -170.99    6.08 -179.98  160.40  -38.60   85.71  -40.47 -174.67 -115.21

DOCKED: MODEL       68
DOCKED: USER    Run = 68
DOCKED: USER    DPF = ligand_dock.biased.dpf
DOCKED: USER  
DOCKED: USER    Estimated Free Energy of Binding    =   -9.27 kcal/mol  [=(1)+(2)+(3)-(4)]
DOCKED: USER    Estimated Inhibition Constant, Ki   =  161.33 nM (nanomolar)  [Temperature = 298.15 K]
DOCKED: USER    
DOCKED: USER    (1) Final Intermolecular Energy     =  -11.95 kcal/mol
DOCKED: USER        vdW + Hbond + desolv Energy     =  -11.95 kcal/mol
DOCKED: USER        Electrostatic Energy            =   +0.00 kcal/mol
DOCKED: USER    (2) Final Total Internal Energy     =   -1.45 kcal/mol
DOCKED: USER    (3) Torsional Free Energy           =   +2.68 kcal/mol
DOCKED: USER    (4) Unbound System's Energy  [=(2)] =   -1.45 kcal/mol
DOCKED: USER    
DOCKED: USER    
DOCKED: USER    NEWDPF move ligand.pdbqt
DOCKED: USER    NEWDPF about 0.300000 0.400000 0.510000
DOCKED: USER    NEWDPF tran0 38.153467 12.143858 121.476591
DOCKED: USER    NEWDPF quaternion0 -0.387058 0.500767 -0.656248 -0.410800
DOCKED: USER    NEWDPF axisangle0 -0.424533 0.549252 -0.719787 -131.489814
DOCKED: USER    NEWDPF quat0 -0.424533 0.549252 -0.719787 -131.489814
DOCKED: USER    NEWDPF dihe0 -170.99 6.08 -179.98 160.40 -38.60 85.71 -40.47 -174.67 -115.21 
DOCKED: USER  keepresnum = 1 
DOCKED: USER  
DOCKED: REMARK  Name = 
DOCKED: REMARK  9 active torsions:
DOCKED: REMARK  status: ('A' for Active; 'I' for Inactive)
DOCKED: REMARK    1  A    between atoms: O_1  and  N_2
DOCKED: REMARK    2  A    between atoms: C_3  and  C_4
DOCKED: REMARK    3  A    between atoms: C_4  and  C_5
DOCKED: REMARK    4  A    between atoms: C_5  and  C_6
DOCKED: REMARK    5  A    between atoms: C_6  and  C_7
DOCKED: REMARK    6  A    between atoms: C_7  and  C_8
DOCKED: REMARK    7  A    between atoms: C_8  and  C_9
DOCKED: REMARK    8  A    between atoms: C_9  and  C_10
DOCKED: REMARK    9  A    between atoms: N_11  and  O_12
DOCKED: REMARK                            x       y       z     vdW  Elec       q    Type
DOCKED: REMARK                         _______ _______ _______ _____ _____    ______ ____
DOCKED: USER                              x       y       z     vdW  Elec       q    Type
DOCKED: USER                           _______ _______ _______ _____ _____    ______ ____
DOCKED: ROOT
DOCKED: ATOM      1  C   UNL     1      36.697  12.965 121.858 -0.47 -0.00    +0.000 C 
DOCKED: ENDROOT
DOCKED: BRANCH   1   2
DOCKED: ATOM      2  C   UNL     1      37.079  11.696 122.628 -0.61 -0.00    +0.000 C 
DOCKED: BRANCH   2   3
DOCKED: ATOM      3  C   UNL     1      36.020  10.605 122.449 -0.67 -0.00    +0.000 C 
DOCKED: BRANCH   3   5
DOCKED: ATOM      4  N   UNL     1      36.801   8.406 123.453 -0.67 -0.00    +0.000 N 
DOCKED: ATOM      5  C   UNL     1      36.669   9.260 122.314 -0.73 -0.00    +0.000 C 
DOCKED: ATOM      6  O   UNL     1      37.062   8.867 121.183 -2.69 -0.00    +0.000 OA
DOCKED: ATOM      7  H   UNL     1      36.484   8.714 124.333 -0.32 -0.00    +0.000 HD
DOCKED: BRANCH   4   8
DOCKED: ATOM      8  O   UNL     1      37.360   7.178 123.332 -1.80 -0.00    +0.000 OA
DOCKED: ATOM      9  H   UNL     1      37.745   7.085 122.447 -0.34 -0.00    +0.000 HD
DOCKED: ENDBRANCH   4   8
DOCKED: ENDBRANCH   3   5
DOCKED: ENDBRANCH   2   3
DOCKED: ENDBRANCH   1   2
DOCKED: BRANCH   1  10
DOCKED: ATOM     10  C   UNL     1      37.021  14.225 122.676 -0.47 -0.00    +0.000 C 
DOCKED: BRANCH  10  11
DOCKED: ATOM     11  C   UNL     1      38.530  14.369 122.962 -0.41 -0.00    +0.000 C 
DOCKED: BRANCH  11  12
DOCKED: ATOM     12  C   UNL     1      39.287  15.153 121.878 -0.36 -0.00    +0.000 C 
DOCKED: BRANCH  12  13
DOCKED: ATOM     13  C   UNL     1      40.523  15.814 122.411 -0.39 -0.00    +0.000 C 
DOCKED: ATOM     14  N   UNL     1      41.565  15.031 122.999 -0.56 -0.00    +0.000 N 
DOCKED: ATOM     15  O   UNL     1      40.655  17.063 122.311 -0.21 -0.00    +0.000 OA
DOCKED: ATOM     16  H   UNL     1      41.462  14.055 123.073 -0.08 -0.00    +0.000 HD
DOCKED: BRANCH  14  17
DOCKED: ATOM     17  O   UNL     1      42.696  15.621 123.457 -1.08 +0.00    +0.000 OA
DOCKED: ATOM     18  H   UNL     1      42.603  16.585 123.400 -0.07 -0.00    +0.000 HD
DOCKED: ENDBRANCH  14  17
DOCKED: ENDBRANCH  12  13
DOCKED: ENDBRANCH  11  12
DOCKED: ENDBRANCH  10  11
DOCKED: ENDBRANCH   1  10
DOCKED: TORSDOF 9
DOCKED: TER
DOCKED: ENDMDL
________________________________________________________________________________


	BEGINNING GENETIC ALGORITHM DOCKING 69 of 100
Run: 69 Seed: 497902428 132384160 [ Run 69 of 100 GA/GALS ]
Beginning LAMARCKIAN GENETIC ALGORITHM (LGA), with a maximum of 2500000 energy evaluations.

Final-Value: -14.066


	FINAL GENETIC ALGORITHM DOCKED STATE
	_______________________________________________


Detailed state:  trans 37.876 12.092 123.911 quatxyzw -0.036741 -0.056009 0.823620 0.563172 center 0.300 0.400 0.510 ntor 9 -154.2314 -16.2626 158.1860 -16.2225 -81.8831 -179.2444 -59.9580 -167.8370 -66.8182
State:	 37.876  12.092 123.911  -0.044 -0.068  0.997 111.449   -154.23  -16.26  158.19  -16.22  -81.88 -179.24  -59.96 -167.84  -66.82

DOCKED: MODEL       69
DOCKED: USER    Run = 69
DOCKED: USER    DPF = ligand_dock.biased.dpf
DOCKED: USER  
DOCKED: USER    Estimated Free Energy of Binding    =   -9.99 kcal/mol  [=(1)+(2)+(3)-(4)]
DOCKED: USER    Estimated Inhibition Constant, Ki   =   47.34 nM (nanomolar)  [Temperature = 298.15 K]
DOCKED: USER    
DOCKED: USER    (1) Final Intermolecular Energy     =  -12.68 kcal/mol
DOCKED: USER        vdW + Hbond + desolv Energy     =  -12.68 kcal/mol
DOCKED: USER        Electrostatic Energy            =   +0.00 kcal/mol
DOCKED: USER    (2) Final Total Internal Energy     =   -1.39 kcal/mol
DOCKED: USER    (3) Torsional Free Energy           =   +2.68 kcal/mol
DOCKED: USER    (4) Unbound System's Energy  [=(2)] =   -1.39 kcal/mol
DOCKED: USER    
DOCKED: USER    
DOCKED: USER    NEWDPF move ligand.pdbqt
DOCKED: USER    NEWDPF about 0.300000 0.400000 0.510000
DOCKED: USER    NEWDPF tran0 37.875961 12.092080 123.910817
DOCKED: USER    NEWDPF quaternion0 -0.036741 -0.056009 0.823620 0.563172
DOCKED: USER    NEWDPF axisangle0 -0.044463 -0.067780 0.996709 111.449120
DOCKED: USER    NEWDPF quat0 -0.044463 -0.067780 0.996709 111.449120
DOCKED: USER    NEWDPF dihe0 -154.23 -16.26 158.19 -16.22 -81.88 -179.24 -59.96 -167.84 -66.82 
DOCKED: USER  keepresnum = 1 
DOCKED: USER  
DOCKED: REMARK  Name = 
DOCKED: REMARK  9 active torsions:
DOCKED: REMARK  status: ('A' for Active; 'I' for Inactive)
DOCKED: REMARK    1  A    between atoms: O_1  and  N_2
DOCKED: REMARK    2  A    between atoms: C_3  and  C_4
DOCKED: REMARK    3  A    between atoms: C_4  and  C_5
DOCKED: REMARK    4  A    between atoms: C_5  and  C_6
DOCKED: REMARK    5  A    between atoms: C_6  and  C_7
DOCKED: REMARK    6  A    between atoms: C_7  and  C_8
DOCKED: REMARK    7  A    between atoms: C_8  and  C_9
DOCKED: REMARK    8  A    between atoms: C_9  and  C_10
DOCKED: REMARK    9  A    between atoms: N_11  and  O_12
DOCKED: REMARK                            x       y       z     vdW  Elec       q    Type
DOCKED: REMARK                         _______ _______ _______ _____ _____    ______ ____
DOCKED: USER                              x       y       z     vdW  Elec       q    Type
DOCKED: USER                           _______ _______ _______ _____ _____    ______ ____
DOCKED: ROOT
DOCKED: ATOM      1  C   UNL     1      37.268  12.740 122.444 -0.56 -0.00    +0.000 C 
DOCKED: ENDROOT
DOCKED: BRANCH   1   2
DOCKED: ATOM      2  C   UNL     1      36.411  11.764 123.258 -0.70 -0.00    +0.000 C 
DOCKED: BRANCH   2   3
DOCKED: ATOM      3  C   UNL     1      35.692  10.769 122.343 -0.64 -0.00    +0.000 C 
DOCKED: BRANCH   3   5
DOCKED: ATOM      4  N   UNL     1      36.418   8.565 123.376 -0.63 -0.00    +0.000 N 
DOCKED: ATOM      5  C   UNL     1      36.447   9.476 122.274 -0.70 -0.00    +0.000 C 
DOCKED: ATOM      6  O   UNL     1      37.077   9.175 121.226 -2.70 -0.00    +0.000 OA
DOCKED: ATOM      7  H   UNL     1      35.916   8.800 124.190 -0.19 -0.00    +0.000 HD
DOCKED: BRANCH   4   8
DOCKED: ATOM      8  O   UNL     1      37.074   7.383 123.310 -2.14 -0.00    +0.000 OA
DOCKED: ATOM      9  H   UNL     1      37.812   7.457 122.685 -0.32 -0.00    +0.000 HD
DOCKED: ENDBRANCH   4   8
DOCKED: ENDBRANCH   3   5
DOCKED: ENDBRANCH   2   3
DOCKED: ENDBRANCH   1   2
DOCKED: BRANCH   1  10
DOCKED: ATOM     10  C   UNL     1      36.819  14.191 122.674 -0.47 -0.00    +0.000 C 
DOCKED: BRANCH  10  11
DOCKED: ATOM     11  C   UNL     1      37.863  15.012 123.460 -0.28 -0.00    +0.000 C 
DOCKED: BRANCH  11  12
DOCKED: ATOM     12  C   UNL     1      38.791  15.844 122.560 -0.31 -0.00    +0.000 C 
DOCKED: BRANCH  12  13
DOCKED: ATOM     13  C   UNL     1      40.200  15.330 122.566 -0.41 -0.00    +0.000 C 
DOCKED: ATOM     14  N   UNL     1      41.265  16.145 123.065 -0.40 -0.00    +0.000 N 
DOCKED: ATOM     15  O   UNL     1      40.440  14.163 122.156 -1.05 +0.00    +0.000 OA
DOCKED: ATOM     16  H   UNL     1      41.074  17.055 123.388 -0.02 -0.00    +0.000 HD
DOCKED: BRANCH  14  17
DOCKED: ATOM     17  O   UNL     1      42.535  15.674 123.098 -1.10 +0.00    +0.000 OA
DOCKED: ATOM     18  H   UNL     1      42.525  14.709 122.998 -0.07 +0.00    +0.000 HD
DOCKED: ENDBRANCH  14  17
DOCKED: ENDBRANCH  12  13
DOCKED: ENDBRANCH  11  12
DOCKED: ENDBRANCH  10  11
DOCKED: ENDBRANCH   1  10
DOCKED: TORSDOF 9
DOCKED: TER
DOCKED: ENDMDL
________________________________________________________________________________


	BEGINNING GENETIC ALGORITHM DOCKING 70 of 100
Run: 70 Seed: 651910374 2013689722 [ Run 70 of 100 GA/GALS ]
Beginning LAMARCKIAN GENETIC ALGORITHM (LGA), with a maximum of 2500000 energy evaluations.

Final-Value: -13.787


	FINAL GENETIC ALGORITHM DOCKED STATE
	_______________________________________________


Detailed state:  trans 38.798 11.894 121.389 quatxyzw 0.317852 -0.249791 0.830858 0.382427 center 0.300 0.400 0.510 ntor 9 -179.8308 -126.4009 173.3018 -144.2744 -66.1280 113.0275 -45.0212 0.8143 -90.3009
State:	 38.798  11.894 121.389   0.344 -0.270  0.899 135.032   -179.83 -126.40  173.30 -144.27  -66.13  113.03  -45.02    0.81  -90.30

DOCKED: MODEL       70
DOCKED: USER    Run = 70
DOCKED: USER    DPF = ligand_dock.biased.dpf
DOCKED: USER  
DOCKED: USER    Estimated Free Energy of Binding    =  -10.10 kcal/mol  [=(1)+(2)+(3)-(4)]
DOCKED: USER    Estimated Inhibition Constant, Ki   =   39.63 nM (nanomolar)  [Temperature = 298.15 K]
DOCKED: USER    
DOCKED: USER    (1) Final Intermolecular Energy     =  -12.78 kcal/mol
DOCKED: USER        vdW + Hbond + desolv Energy     =  -12.78 kcal/mol
DOCKED: USER        Electrostatic Energy            =   +0.00 kcal/mol
DOCKED: USER    (2) Final Total Internal Energy     =   -1.00 kcal/mol
DOCKED: USER    (3) Torsional Free Energy           =   +2.68 kcal/mol
DOCKED: USER    (4) Unbound System's Energy  [=(2)] =   -1.00 kcal/mol
DOCKED: USER    
DOCKED: USER    
DOCKED: USER    NEWDPF move ligand.pdbqt
DOCKED: USER    NEWDPF about 0.300000 0.400000 0.510000
DOCKED: USER    NEWDPF tran0 38.797785 11.894096 121.389059
DOCKED: USER    NEWDPF quaternion0 0.317852 -0.249791 0.830858 0.382427
DOCKED: USER    NEWDPF axisangle0 0.344001 -0.270341 0.899210 135.031846
DOCKED: USER    NEWDPF quat0 0.344001 -0.270341 0.899210 135.031846
DOCKED: USER    NEWDPF dihe0 -179.83 -126.40 173.30 -144.27 -66.13 113.03 -45.02 0.81 -90.30 
DOCKED: USER  keepresnum = 1 
DOCKED: USER  
DOCKED: REMARK  Name = 
DOCKED: REMARK  9 active torsions:
DOCKED: REMARK  status: ('A' for Active; 'I' for Inactive)
DOCKED: REMARK    1  A    between atoms: O_1  and  N_2
DOCKED: REMARK    2  A    between atoms: C_3  and  C_4
DOCKED: REMARK    3  A    between atoms: C_4  and  C_5
DOCKED: REMARK    4  A    between atoms: C_5  and  C_6
DOCKED: REMARK    5  A    between atoms: C_6  and  C_7
DOCKED: REMARK    6  A    between atoms: C_7  and  C_8
DOCKED: REMARK    7  A    between atoms: C_8  and  C_9
DOCKED: REMARK    8  A    between atoms: C_9  and  C_10
DOCKED: REMARK    9  A    between atoms: N_11  and  O_12
DOCKED: REMARK                            x       y       z     vdW  Elec       q    Type
DOCKED: REMARK                         _______ _______ _______ _____ _____    ______ ____
DOCKED: USER                              x       y       z     vdW  Elec       q    Type
DOCKED: USER                           _______ _______ _______ _____ _____    ______ ____
DOCKED: ROOT
DOCKED: ATOM      1  C   UNL     1      37.442  12.737 120.762 -0.51 -0.00    +0.000 C 
DOCKED: ENDROOT
DOCKED: BRANCH   1   2
DOCKED: ATOM      2  C   UNL     1      37.320  11.978 122.088 -0.49 -0.00    +0.000 C 
DOCKED: BRANCH   2   3
DOCKED: ATOM      3  C   UNL     1      36.178  10.959 122.035 -0.60 -0.00    +0.000 C 
DOCKED: BRANCH   3   5
DOCKED: ATOM      4  N   UNL     1      36.895   8.922 123.373 -0.61 -0.00    +0.000 N 
DOCKED: ATOM      5  C   UNL     1      36.717   9.562 122.106 -0.69 -0.00    +0.000 C 
DOCKED: ATOM      6  O   UNL     1      36.976   8.937 121.043 -2.69 -0.00    +0.000 OA
DOCKED: ATOM      7  H   UNL     1      36.683   9.412 124.200 -0.48 -0.00    +0.000 HD
DOCKED: BRANCH   4   8
DOCKED: ATOM      8  O   UNL     1      37.354   7.650 123.444 -2.17 -0.00    +0.000 OA
DOCKED: ATOM      9  H   UNL     1      37.517   7.316 122.548 -0.20 -0.00    +0.000 HD
DOCKED: ENDBRANCH   4   8
DOCKED: ENDBRANCH   3   5
DOCKED: ENDBRANCH   2   3
DOCKED: ENDBRANCH   1   2
DOCKED: BRANCH   1  10
DOCKED: ATOM     10  C   UNL     1      37.622  14.244 121.004 -0.37 -0.00    +0.000 C 
DOCKED: BRANCH  10  11
DOCKED: ATOM     11  C   UNL     1      39.102  14.638 121.188 -0.34 -0.00    +0.000 C 
DOCKED: BRANCH  11  12
DOCKED: ATOM     12  C   UNL     1      39.540  14.701 122.660 -0.39 -0.00    +0.000 C 
DOCKED: BRANCH  12  13
DOCKED: ATOM     13  C   UNL     1      40.974  15.117 122.810 -0.46 -0.00    +0.000 C 
DOCKED: ATOM     14  N   UNL     1      41.307  16.352 123.449 -0.37 -0.00    +0.000 N 
DOCKED: ATOM     15  O   UNL     1      41.890  14.356 122.397 -0.83 -0.00    +0.000 OA
DOCKED: ATOM     16  H   UNL     1      40.589  16.943 123.774 -0.02 -0.00    +0.000 HD
DOCKED: BRANCH  14  17
DOCKED: ATOM     17  O   UNL     1      42.601  16.717 123.611 -1.01 -0.00    +0.000 OA
DOCKED: ATOM     18  H   UNL     1      42.764  16.921 124.545 -0.55 -0.00    +0.000 HD
DOCKED: ENDBRANCH  14  17
DOCKED: ENDBRANCH  12  13
DOCKED: ENDBRANCH  11  12
DOCKED: ENDBRANCH  10  11
DOCKED: ENDBRANCH   1  10
DOCKED: TORSDOF 9
DOCKED: TER
DOCKED: ENDMDL
________________________________________________________________________________


	BEGINNING GENETIC ALGORITHM DOCKING 71 of 100
Run: 71 Seed: 872253967 1492002182 [ Run 71 of 100 GA/GALS ]
Beginning LAMARCKIAN GENETIC ALGORITHM (LGA), with a maximum of 2500000 energy evaluations.

Final-Value: -13.438


	FINAL GENETIC ALGORITHM DOCKED STATE
	_______________________________________________


Detailed state:  trans 34.821 12.715 122.660 quatxyzw 0.550889 -0.808881 -0.021288 -0.204398 center 0.300 0.400 0.510 ntor 9 -179.3200 7.1613 14.4776 -153.3044 -18.7958 47.4506 -162.1043 -46.5244 -99.0739
State:	 34.821  12.715 122.660   0.563 -0.826 -0.022 -156.411   -179.32    7.16   14.48 -153.30  -18.80   47.45 -162.10  -46.52  -99.07

DOCKED: MODEL       71
DOCKED: USER    Run = 71
DOCKED: USER    DPF = ligand_dock.biased.dpf
DOCKED: USER  
DOCKED: USER    Estimated Free Energy of Binding    =   -8.92 kcal/mol  [=(1)+(2)+(3)-(4)]
DOCKED: USER    Estimated Inhibition Constant, Ki   =  288.93 nM (nanomolar)  [Temperature = 298.15 K]
DOCKED: USER    
DOCKED: USER    (1) Final Intermolecular Energy     =  -11.61 kcal/mol
DOCKED: USER        vdW + Hbond + desolv Energy     =  -11.61 kcal/mol
DOCKED: USER        Electrostatic Energy            =   +0.00 kcal/mol
DOCKED: USER    (2) Final Total Internal Energy     =   -1.83 kcal/mol
DOCKED: USER    (3) Torsional Free Energy           =   +2.68 kcal/mol
DOCKED: USER    (4) Unbound System's Energy  [=(2)] =   -1.83 kcal/mol
DOCKED: USER    
DOCKED: USER    
DOCKED: USER    NEWDPF move ligand.pdbqt
DOCKED: USER    NEWDPF about 0.300000 0.400000 0.510000
DOCKED: USER    NEWDPF tran0 34.821420 12.715432 122.660140
DOCKED: USER    NEWDPF quaternion0 0.550889 -0.808881 -0.021288 -0.204398
DOCKED: USER    NEWDPF axisangle0 0.562771 -0.826327 -0.021747 -156.411449
DOCKED: USER    NEWDPF quat0 0.562771 -0.826327 -0.021747 -156.411449
DOCKED: USER    NEWDPF dihe0 -179.32 7.16 14.48 -153.30 -18.80 47.45 -162.10 -46.52 -99.07 
DOCKED: USER  keepresnum = 1 
DOCKED: USER  
DOCKED: REMARK  Name = 
DOCKED: REMARK  9 active torsions:
DOCKED: REMARK  status: ('A' for Active; 'I' for Inactive)
DOCKED: REMARK    1  A    between atoms: O_1  and  N_2
DOCKED: REMARK    2  A    between atoms: C_3  and  C_4
DOCKED: REMARK    3  A    between atoms: C_4  and  C_5
DOCKED: REMARK    4  A    between atoms: C_5  and  C_6
DOCKED: REMARK    5  A    between atoms: C_6  and  C_7
DOCKED: REMARK    6  A    between atoms: C_7  and  C_8
DOCKED: REMARK    7  A    between atoms: C_8  and  C_9
DOCKED: REMARK    8  A    between atoms: C_9  and  C_10
DOCKED: REMARK    9  A    between atoms: N_11  and  O_12
DOCKED: REMARK                            x       y       z     vdW  Elec       q    Type
DOCKED: REMARK                         _______ _______ _______ _____ _____    ______ ____
DOCKED: USER                              x       y       z     vdW  Elec       q    Type
DOCKED: USER                           _______ _______ _______ _____ _____    ______ ____
DOCKED: ROOT
DOCKED: ATOM      1  C   UNL     1      36.068  12.902 123.823 -0.61 -0.00    +0.000 C 
DOCKED: ENDROOT
DOCKED: BRANCH   1   2
DOCKED: ATOM      2  C   UNL     1      35.824  11.531 123.182 -0.66 -0.00    +0.000 C 
DOCKED: BRANCH   2   3
DOCKED: ATOM      3  C   UNL     1      37.061  11.055 122.416 -0.57 -0.00    +0.000 C 
DOCKED: BRANCH   3   5
DOCKED: ATOM      4  N   UNL     1      37.144   8.675 123.299 -0.65 -0.00    +0.000 N 
DOCKED: ATOM      5  C   UNL     1      37.006   9.573 122.195 -0.62 -0.00    +0.000 C 
DOCKED: ATOM      6  O   UNL     1      36.796   9.121 121.038 -2.64 -0.00    +0.000 OA
DOCKED: ATOM      7  H   UNL     1      37.299   9.033 124.203 -0.59 -0.00    +0.000 HD
DOCKED: BRANCH   4   8
DOCKED: ATOM      8  O   UNL     1      37.067   7.336 123.112 -2.15 -0.00    +0.000 OA
DOCKED: ATOM      9  H   UNL     1      36.925   7.150 122.171 -0.09 -0.00    +0.000 HD
DOCKED: ENDBRANCH   4   8
DOCKED: ENDBRANCH   3   5
DOCKED: ENDBRANCH   2   3
DOCKED: ENDBRANCH   1   2
DOCKED: BRANCH   1  10
DOCKED: ATOM     10  C   UNL     1      37.269  13.608 123.176 -0.55 -0.00    +0.000 C 
DOCKED: BRANCH  10  11
DOCKED: ATOM     11  C   UNL     1      36.912  14.252 121.820 -0.32 -0.00    +0.000 C 
DOCKED: BRANCH  11  12
DOCKED: ATOM     12  C   UNL     1      38.033  14.137 120.774 -0.37 -0.00    +0.000 C 
DOCKED: BRANCH  12  13
DOCKED: ATOM     13  C   UNL     1      37.629  13.300 119.596 -0.42 -0.00    +0.000 C 
DOCKED: ATOM     14  N   UNL     1      37.328  13.915 118.341 -0.34 -0.00    +0.000 N 
DOCKED: ATOM     15  O   UNL     1      37.584  12.045 119.709 -0.54 -0.00    +0.000 OA
DOCKED: ATOM     16  H   UNL     1      37.367  14.895 118.255 -0.00 -0.00    +0.000 HD
DOCKED: BRANCH  14  17
DOCKED: ATOM     17  O   UNL     1      36.990  13.161 117.268 -0.46 -0.00    +0.000 OA
DOCKED: ATOM     18  H   UNL     1      36.886  12.236 117.542 -0.02 -0.00    +0.000 HD
DOCKED: ENDBRANCH  14  17
DOCKED: ENDBRANCH  12  13
DOCKED: ENDBRANCH  11  12
DOCKED: ENDBRANCH  10  11
DOCKED: ENDBRANCH   1  10
DOCKED: TORSDOF 9
DOCKED: TER
DOCKED: ENDMDL
________________________________________________________________________________


	BEGINNING GENETIC ALGORITHM DOCKING 72 of 100
Run: 72 Seed: 189256065 1907895531 [ Run 72 of 100 GA/GALS ]
Beginning LAMARCKIAN GENETIC ALGORITHM (LGA), with a maximum of 2500000 energy evaluations.

Final-Value: -13.197


	FINAL GENETIC ALGORITHM DOCKED STATE
	_______________________________________________


Detailed state:  trans 35.921 11.828 124.457 quatxyzw -0.314095 0.427843 0.806705 0.259848 center 0.300 0.400 0.510 ntor 9 143.7345 -4.1641 169.2234 -45.9548 -174.8553 -152.3140 -44.5493 -140.6294 -179.8428
State:	 35.921  11.828 124.457  -0.325  0.443  0.835 149.878    143.73   -4.16  169.22  -45.95 -174.86 -152.31  -44.55 -140.63 -179.84

DOCKED: MODEL       72
DOCKED: USER    Run = 72
DOCKED: USER    DPF = ligand_dock.biased.dpf
DOCKED: USER  
DOCKED: USER    Estimated Free Energy of Binding    =   -8.93 kcal/mol  [=(1)+(2)+(3)-(4)]
DOCKED: USER    Estimated Inhibition Constant, Ki   =  283.78 nM (nanomolar)  [Temperature = 298.15 K]
DOCKED: USER    
DOCKED: USER    (1) Final Intermolecular Energy     =  -11.62 kcal/mol
DOCKED: USER        vdW + Hbond + desolv Energy     =  -11.62 kcal/mol
DOCKED: USER        Electrostatic Energy            =   +0.00 kcal/mol
DOCKED: USER    (2) Final Total Internal Energy     =   -1.58 kcal/mol
DOCKED: USER    (3) Torsional Free Energy           =   +2.68 kcal/mol
DOCKED: USER    (4) Unbound System's Energy  [=(2)] =   -1.58 kcal/mol
DOCKED: USER    
DOCKED: USER    
DOCKED: USER    NEWDPF move ligand.pdbqt
DOCKED: USER    NEWDPF about 0.300000 0.400000 0.510000
DOCKED: USER    NEWDPF tran0 35.920781 11.827715 124.457002
DOCKED: USER    NEWDPF quaternion0 -0.314095 0.427843 0.806705 0.259848
DOCKED: USER    NEWDPF axisangle0 -0.325268 0.443062 0.835402 149.877880
DOCKED: USER    NEWDPF quat0 -0.325268 0.443062 0.835402 149.877880
DOCKED: USER    NEWDPF dihe0 143.73 -4.16 169.22 -45.95 -174.86 -152.31 -44.55 -140.63 -179.84 
DOCKED: USER  keepresnum = 1 
DOCKED: USER  
DOCKED: REMARK  Name = 
DOCKED: REMARK  9 active torsions:
DOCKED: REMARK  status: ('A' for Active; 'I' for Inactive)
DOCKED: REMARK    1  A    between atoms: O_1  and  N_2
DOCKED: REMARK    2  A    between atoms: C_3  and  C_4
DOCKED: REMARK    3  A    between atoms: C_4  and  C_5
DOCKED: REMARK    4  A    between atoms: C_5  and  C_6
DOCKED: REMARK    5  A    between atoms: C_6  and  C_7
DOCKED: REMARK    6  A    between atoms: C_7  and  C_8
DOCKED: REMARK    7  A    between atoms: C_8  and  C_9
DOCKED: REMARK    8  A    between atoms: C_9  and  C_10
DOCKED: REMARK    9  A    between atoms: N_11  and  O_12
DOCKED: REMARK                            x       y       z     vdW  Elec       q    Type
DOCKED: REMARK                         _______ _______ _______ _____ _____    ______ ____
DOCKED: USER                              x       y       z     vdW  Elec       q    Type
DOCKED: USER                           _______ _______ _______ _____ _____    ______ ____
DOCKED: ROOT
DOCKED: ATOM      1  C   UNL     1      37.067  11.512 123.221 -0.66 -0.00    +0.000 C 
DOCKED: ENDROOT
DOCKED: BRANCH   1   2
DOCKED: ATOM      2  C   UNL     1      35.569  11.483 122.895 -0.58 -0.00    +0.000 C 
DOCKED: BRANCH   2   3
DOCKED: ATOM      3  C   UNL     1      35.163  10.136 122.292 -0.59 -0.00    +0.000 C 
DOCKED: BRANCH   3   5
DOCKED: ATOM      4  N   UNL     1      36.601   8.395 123.456 -0.66 -0.00    +0.000 N 
DOCKED: ATOM      5  C   UNL     1      36.323   9.186 122.297 -0.72 -0.00    +0.000 C 
DOCKED: ATOM      6  O   UNL     1      37.030   9.058 121.262 -2.64 -0.00    +0.000 OA
DOCKED: ATOM      7  H   UNL     1      36.040   8.492 124.259 -0.19 -0.00    +0.000 HD
DOCKED: BRANCH   4   8
DOCKED: ATOM      8  O   UNL     1      37.630   7.514 123.457 -1.81 -0.00    +0.000 OA
DOCKED: ATOM      9  H   UNL     1      37.709   7.109 122.580 -0.36 -0.00    +0.000 HD
DOCKED: ENDBRANCH   4   8
DOCKED: ENDBRANCH   3   5
DOCKED: ENDBRANCH   2   3
DOCKED: ENDBRANCH   1   2
DOCKED: BRANCH   1  10
DOCKED: ATOM     10  C   UNL     1      37.705  12.833 122.766 -0.45 -0.00    +0.000 C 
DOCKED: BRANCH  10  11
DOCKED: ATOM     11  C   UNL     1      36.695  13.763 122.062 -0.37 -0.00    +0.000 C 
DOCKED: BRANCH  11  12
DOCKED: ATOM     12  C   UNL     1      36.584  15.151 122.712 -0.39 -0.00    +0.000 C 
DOCKED: BRANCH  12  13
DOCKED: ATOM     13  C   UNL     1      35.637  15.161 123.875 -0.52 -0.00    +0.000 C 
DOCKED: ATOM     14  N   UNL     1      34.856  16.325 124.161 -0.46 -0.00    +0.000 N 
DOCKED: ATOM     15  O   UNL     1      35.508  14.127 124.584 -0.56 -0.00    +0.000 OA
DOCKED: ATOM     16  H   UNL     1      34.955  17.130 123.604 -0.01 -0.00    +0.000 HD
DOCKED: BRANCH  14  17
DOCKED: ATOM     17  O   UNL     1      33.978  16.328 125.193 -0.59 -0.00    +0.000 OA
DOCKED: ATOM     18  H   UNL     1      33.951  15.447 125.598 -0.06 -0.00    +0.000 HD
DOCKED: ENDBRANCH  14  17
DOCKED: ENDBRANCH  12  13
DOCKED: ENDBRANCH  11  12
DOCKED: ENDBRANCH  10  11
DOCKED: ENDBRANCH   1  10
DOCKED: TORSDOF 9
DOCKED: TER
DOCKED: ENDMDL
________________________________________________________________________________


	BEGINNING GENETIC ALGORITHM DOCKING 73 of 100
Run: 73 Seed: 619931325 255789429 [ Run 73 of 100 GA/GALS ]
Beginning LAMARCKIAN GENETIC ALGORITHM (LGA), with a maximum of 2500000 energy evaluations.

Final-Value: -13.401


	FINAL GENETIC ALGORITHM DOCKED STATE
	_______________________________________________


Detailed state:  trans 35.387 12.700 124.471 quatxyzw -0.521215 0.511874 0.325559 0.600277 center 0.300 0.400 0.510 ntor 9 -173.8060 -10.3285 78.7541 101.4750 -33.3361 167.1281 -143.6257 171.4805 -66.7543
State:	 35.387  12.700 124.471  -0.652  0.640  0.407 106.221   -173.81  -10.33   78.75  101.47  -33.34  167.13 -143.63  171.48  -66.75

DOCKED: MODEL       73
DOCKED: USER    Run = 73
DOCKED: USER    DPF = ligand_dock.biased.dpf
DOCKED: USER  
DOCKED: USER    Estimated Free Energy of Binding    =   -9.14 kcal/mol  [=(1)+(2)+(3)-(4)]
DOCKED: USER    Estimated Inhibition Constant, Ki   =  198.74 nM (nanomolar)  [Temperature = 298.15 K]
DOCKED: USER    
DOCKED: USER    (1) Final Intermolecular Energy     =  -11.83 kcal/mol
DOCKED: USER        vdW + Hbond + desolv Energy     =  -11.83 kcal/mol
DOCKED: USER        Electrostatic Energy            =   +0.00 kcal/mol
DOCKED: USER    (2) Final Total Internal Energy     =   -1.57 kcal/mol
DOCKED: USER    (3) Torsional Free Energy           =   +2.68 kcal/mol
DOCKED: USER    (4) Unbound System's Energy  [=(2)] =   -1.57 kcal/mol
DOCKED: USER    
DOCKED: USER    
DOCKED: USER    NEWDPF move ligand.pdbqt
DOCKED: USER    NEWDPF about 0.300000 0.400000 0.510000
DOCKED: USER    NEWDPF tran0 35.387240 12.699784 124.470907
DOCKED: USER    NEWDPF quaternion0 -0.521215 0.511874 0.325559 0.600277
DOCKED: USER    NEWDPF axisangle0 -0.651687 0.640008 0.407054 106.220580
DOCKED: USER    NEWDPF quat0 -0.651687 0.640008 0.407054 106.220580
DOCKED: USER    NEWDPF dihe0 -173.81 -10.33 78.75 101.47 -33.34 167.13 -143.63 171.48 -66.75 
DOCKED: USER  keepresnum = 1 
DOCKED: USER  
DOCKED: REMARK  Name = 
DOCKED: REMARK  9 active torsions:
DOCKED: REMARK  status: ('A' for Active; 'I' for Inactive)
DOCKED: REMARK    1  A    between atoms: O_1  and  N_2
DOCKED: REMARK    2  A    between atoms: C_3  and  C_4
DOCKED: REMARK    3  A    between atoms: C_4  and  C_5
DOCKED: REMARK    4  A    between atoms: C_5  and  C_6
DOCKED: REMARK    5  A    between atoms: C_6  and  C_7
DOCKED: REMARK    6  A    between atoms: C_7  and  C_8
DOCKED: REMARK    7  A    between atoms: C_8  and  C_9
DOCKED: REMARK    8  A    between atoms: C_9  and  C_10
DOCKED: REMARK    9  A    between atoms: N_11  and  O_12
DOCKED: REMARK                            x       y       z     vdW  Elec       q    Type
DOCKED: REMARK                         _______ _______ _______ _____ _____    ______ ____
DOCKED: USER                              x       y       z     vdW  Elec       q    Type
DOCKED: USER                           _______ _______ _______ _____ _____    ______ ____
DOCKED: ROOT
DOCKED: ATOM      1  C   UNL     1      36.910  13.155 123.826 -0.46 -0.00    +0.000 C 
DOCKED: ENDROOT
DOCKED: BRANCH   1   2
DOCKED: ATOM      2  C   UNL     1      36.381  11.733 123.600 -0.71 -0.00    +0.000 C 
DOCKED: BRANCH   2   3
DOCKED: ATOM      3  C   UNL     1      36.628  11.278 122.159 -0.63 -0.00    +0.000 C 
DOCKED: BRANCH   3   5
DOCKED: ATOM      4  N   UNL     1      37.005   9.052 123.325 -0.61 -0.00    +0.000 N 
DOCKED: ATOM      5  C   UNL     1      36.902   9.805 122.113 -0.63 -0.00    +0.000 C 
DOCKED: ATOM      6  O   UNL     1      37.001   9.222 121.000 -2.71 -0.00    +0.000 OA
DOCKED: ATOM      7  H   UNL     1      36.918   9.511 124.192 -0.54 -0.00    +0.000 HD
DOCKED: BRANCH   4   8
DOCKED: ATOM      8  O   UNL     1      37.223   7.717 123.290 -2.26 -0.00    +0.000 OA
DOCKED: ATOM      9  H   UNL     1      37.383   7.439 122.375 -0.13 -0.00    +0.000 HD
DOCKED: ENDBRANCH   4   8
DOCKED: ENDBRANCH   3   5
DOCKED: ENDBRANCH   2   3
DOCKED: ENDBRANCH   1   2
DOCKED: BRANCH   1  10
DOCKED: ATOM     10  C   UNL     1      36.696  14.027 122.579 -0.46 -0.00    +0.000 C 
DOCKED: BRANCH  10  11
DOCKED: ATOM     11  C   UNL     1      35.640  15.128 122.806 -0.08 -0.00    +0.000 C 
DOCKED: BRANCH  11  12
DOCKED: ATOM     12  C   UNL     1      36.154  16.306 123.649 -0.38 -0.00    +0.000 C 
DOCKED: BRANCH  12  13
DOCKED: ATOM     13  C   UNL     1      35.294  16.565 124.851 -0.32 -0.00    +0.000 C 
DOCKED: ATOM     14  N   UNL     1      34.152  15.746 125.113 -0.55 -0.00    +0.000 N 
DOCKED: ATOM     15  O   UNL     1      35.600  17.493 125.648 -0.26 -0.00    +0.000 OA
DOCKED: ATOM     16  H   UNL     1      33.918  15.020 124.491 -0.08 -0.00    +0.000 HD
DOCKED: BRANCH  14  17
DOCKED: ATOM     17  O   UNL     1      33.389  15.959 126.212 -1.00 -0.00    +0.000 OA
DOCKED: ATOM     18  H   UNL     1      33.836  16.589 126.799 -0.03 -0.00    +0.000 HD
DOCKED: ENDBRANCH  14  17
DOCKED: ENDBRANCH  12  13
DOCKED: ENDBRANCH  11  12
DOCKED: ENDBRANCH  10  11
DOCKED: ENDBRANCH   1  10
DOCKED: TORSDOF 9
DOCKED: TER
DOCKED: ENDMDL
________________________________________________________________________________


	BEGINNING GENETIC ALGORITHM DOCKING 74 of 100
Run: 74 Seed: 1248916491 567393981 [ Run 74 of 100 GA/GALS ]
Beginning LAMARCKIAN GENETIC ALGORITHM (LGA), with a maximum of 2500000 energy evaluations.

Final-Value: -13.577


	FINAL GENETIC ALGORITHM DOCKED STATE
	_______________________________________________


Detailed state:  trans 35.206 12.018 122.473 quatxyzw -0.695237 0.633408 -0.230439 0.249677 center 0.300 0.400 0.510 ntor 9 -179.8038 -7.2327 137.3802 170.3009 -1.5961 -180.0000 91.2827 176.2114 -3.0058
State:	 35.206  12.018 122.473  -0.718  0.654 -0.238 151.083   -179.80   -7.23  137.38  170.30   -1.60 -180.00   91.28  176.21   -3.01

DOCKED: MODEL       74
DOCKED: USER    Run = 74
DOCKED: USER    DPF = ligand_dock.biased.dpf
DOCKED: USER  
DOCKED: USER    Estimated Free Energy of Binding    =   -9.31 kcal/mol  [=(1)+(2)+(3)-(4)]
DOCKED: USER    Estimated Inhibition Constant, Ki   =  149.05 nM (nanomolar)  [Temperature = 298.15 K]
DOCKED: USER    
DOCKED: USER    (1) Final Intermolecular Energy     =  -12.00 kcal/mol
DOCKED: USER        vdW + Hbond + desolv Energy     =  -12.00 kcal/mol
DOCKED: USER        Electrostatic Energy            =   +0.00 kcal/mol
DOCKED: USER    (2) Final Total Internal Energy     =   -1.58 kcal/mol
DOCKED: USER    (3) Torsional Free Energy           =   +2.68 kcal/mol
DOCKED: USER    (4) Unbound System's Energy  [=(2)] =   -1.58 kcal/mol
DOCKED: USER    
DOCKED: USER    
DOCKED: USER    NEWDPF move ligand.pdbqt
DOCKED: USER    NEWDPF about 0.300000 0.400000 0.510000
DOCKED: USER    NEWDPF tran0 35.206387 12.018152 122.473457
DOCKED: USER    NEWDPF quaternion0 -0.695237 0.633408 -0.230439 0.249677
DOCKED: USER    NEWDPF axisangle0 -0.717976 0.654124 -0.237976 151.083202
DOCKED: USER    NEWDPF quat0 -0.717976 0.654124 -0.237976 151.083202
DOCKED: USER    NEWDPF dihe0 -179.80 -7.23 137.38 170.30 -1.60 -180.00 91.28 176.21 -3.01 
DOCKED: USER  keepresnum = 1 
DOCKED: USER  
DOCKED: REMARK  Name = 
DOCKED: REMARK  9 active torsions:
DOCKED: REMARK  status: ('A' for Active; 'I' for Inactive)
DOCKED: REMARK    1  A    between atoms: O_1  and  N_2
DOCKED: REMARK    2  A    between atoms: C_3  and  C_4
DOCKED: REMARK    3  A    between atoms: C_4  and  C_5
DOCKED: REMARK    4  A    between atoms: C_5  and  C_6
DOCKED: REMARK    5  A    between atoms: C_6  and  C_7
DOCKED: REMARK    6  A    between atoms: C_7  and  C_8
DOCKED: REMARK    7  A    between atoms: C_8  and  C_9
DOCKED: REMARK    8  A    between atoms: C_9  and  C_10
DOCKED: REMARK    9  A    between atoms: N_11  and  O_12
DOCKED: REMARK                            x       y       z     vdW  Elec       q    Type
DOCKED: REMARK                         _______ _______ _______ _____ _____    ______ ____
DOCKED: USER                              x       y       z     vdW  Elec       q    Type
DOCKED: USER                           _______ _______ _______ _____ _____    ______ ____
DOCKED: ROOT
DOCKED: ATOM      1  C   UNL     1      35.904  13.207 123.495 -0.59 -0.00    +0.000 C 
DOCKED: ENDROOT
DOCKED: BRANCH   1   2
DOCKED: ATOM      2  C   UNL     1      36.497  11.793 123.456 -0.70 -0.00    +0.000 C 
DOCKED: BRANCH   2   3
DOCKED: ATOM      3  C   UNL     1      35.933  10.993 122.279 -0.63 -0.00    +0.000 C 
DOCKED: BRANCH   3   5
DOCKED: ATOM      4  N   UNL     1      36.530   8.779 123.373 -0.60 -0.00    +0.000 N 
DOCKED: ATOM      5  C   UNL     1      36.556   9.630 122.224 -0.69 -0.00    +0.000 C 
DOCKED: ATOM      6  O   UNL     1      37.067   9.220 121.148 -2.74 -0.00    +0.000 OA
DOCKED: ATOM      7  H   UNL     1      36.121   9.101 124.209 -0.27 -0.00    +0.000 HD
DOCKED: BRANCH   4   8
DOCKED: ATOM      8  O   UNL     1      37.065   7.536 123.322 -2.22 -0.00    +0.000 OA
DOCKED: ATOM      9  H   UNL     1      37.428   7.377 122.436 -0.15 -0.00    +0.000 HD
DOCKED: ENDBRANCH   4   8
DOCKED: ENDBRANCH   3   5
DOCKED: ENDBRANCH   2   3
DOCKED: ENDBRANCH   1   2
DOCKED: BRANCH   1  10
DOCKED: ATOM     10  C   UNL     1      36.741  14.178 122.649 -0.46 -0.00    +0.000 C 
DOCKED: BRANCH  10  11
DOCKED: ATOM     11  C   UNL     1      36.104  15.581 122.560 -0.29 -0.00    +0.000 C 
DOCKED: BRANCH  11  12
DOCKED: ATOM     12  C   UNL     1      36.373  16.454 123.796 -0.35 -0.00    +0.000 C 
DOCKED: BRANCH  12  13
DOCKED: ATOM     13  C   UNL     1      35.130  16.709 124.595 -0.43 -0.00    +0.000 C 
DOCKED: ATOM     14  N   UNL     1      34.510  15.648 125.327 -0.47 -0.00    +0.000 N 
DOCKED: ATOM     15  O   UNL     1      34.647  17.872 124.644 -0.38 -0.00    +0.000 OA
DOCKED: ATOM     16  H   UNL     1      34.891  14.741 125.290 -0.05 -0.00    +0.000 HD
DOCKED: BRANCH  14  17
DOCKED: ATOM     17  O   UNL     1      33.403  15.880 126.072 -0.93 -0.00    +0.000 OA
DOCKED: ATOM     18  H   UNL     1      33.223  16.833 126.096 -0.03 -0.00    +0.000 HD
DOCKED: ENDBRANCH  14  17
DOCKED: ENDBRANCH  12  13
DOCKED: ENDBRANCH  11  12
DOCKED: ENDBRANCH  10  11
DOCKED: ENDBRANCH   1  10
DOCKED: TORSDOF 9
DOCKED: TER
DOCKED: ENDMDL
________________________________________________________________________________


	BEGINNING GENETIC ALGORITHM DOCKING 75 of 100
Run: 75 Seed: 521319226 2043983676 [ Run 75 of 100 GA/GALS ]
Beginning LAMARCKIAN GENETIC ALGORITHM (LGA), with a maximum of 2500000 energy evaluations.

Final-Value: -14.084


	FINAL GENETIC ALGORITHM DOCKED STATE
	_______________________________________________


Detailed state:  trans 39.536 13.924 122.158 quatxyzw -0.569297 -0.735738 -0.011104 0.366698 center 0.300 0.400 0.510 ntor 9 -179.1027 70.2656 -45.3756 -164.5771 -142.6912 -169.9876 17.3670 -64.1870 -168.3522
State:	 39.536  13.924 122.158  -0.612 -0.791 -0.012 136.976   -179.10   70.27  -45.38 -164.58 -142.69 -169.99   17.37  -64.19 -168.35

DOCKED: MODEL       75
DOCKED: USER    Run = 75
DOCKED: USER    DPF = ligand_dock.biased.dpf
DOCKED: USER  
DOCKED: USER    Estimated Free Energy of Binding    =  -10.21 kcal/mol  [=(1)+(2)+(3)-(4)]
DOCKED: USER    Estimated Inhibition Constant, Ki   =   32.92 nM (nanomolar)  [Temperature = 298.15 K]
DOCKED: USER    
DOCKED: USER    (1) Final Intermolecular Energy     =  -12.89 kcal/mol
DOCKED: USER        vdW + Hbond + desolv Energy     =  -12.89 kcal/mol
DOCKED: USER        Electrostatic Energy            =   +0.00 kcal/mol
DOCKED: USER    (2) Final Total Internal Energy     =   -1.19 kcal/mol
DOCKED: USER    (3) Torsional Free Energy           =   +2.68 kcal/mol
DOCKED: USER    (4) Unbound System's Energy  [=(2)] =   -1.19 kcal/mol
DOCKED: USER    
DOCKED: USER    
DOCKED: USER    NEWDPF move ligand.pdbqt
DOCKED: USER    NEWDPF about 0.300000 0.400000 0.510000
DOCKED: USER    NEWDPF tran0 39.535844 13.923531 122.158347
DOCKED: USER    NEWDPF quaternion0 -0.569297 -0.735738 -0.011104 0.366698
DOCKED: USER    NEWDPF axisangle0 -0.611924 -0.790827 -0.011935 136.975724
DOCKED: USER    NEWDPF quat0 -0.611924 -0.790827 -0.011935 136.975724
DOCKED: USER    NEWDPF dihe0 -179.10 70.27 -45.38 -164.58 -142.69 -169.99 17.37 -64.19 -168.35 
DOCKED: USER  keepresnum = 1 
DOCKED: USER  
DOCKED: REMARK  Name = 
DOCKED: REMARK  9 active torsions:
DOCKED: REMARK  status: ('A' for Active; 'I' for Inactive)
DOCKED: REMARK    1  A    between atoms: O_1  and  N_2
DOCKED: REMARK    2  A    between atoms: C_3  and  C_4
DOCKED: REMARK    3  A    between atoms: C_4  and  C_5
DOCKED: REMARK    4  A    between atoms: C_5  and  C_6
DOCKED: REMARK    5  A    between atoms: C_6  and  C_7
DOCKED: REMARK    6  A    between atoms: C_7  and  C_8
DOCKED: REMARK    7  A    between atoms: C_8  and  C_9
DOCKED: REMARK    8  A    between atoms: C_9  and  C_10
DOCKED: REMARK    9  A    between atoms: N_11  and  O_12
DOCKED: REMARK                            x       y       z     vdW  Elec       q    Type
DOCKED: REMARK                         _______ _______ _______ _____ _____    ______ ____
DOCKED: USER                              x       y       z     vdW  Elec       q    Type
DOCKED: USER                           _______ _______ _______ _____ _____    ______ ____
DOCKED: ROOT
DOCKED: ATOM      1  C   UNL     1      38.099  14.121 123.074 -0.48 -0.00    +0.000 C 
DOCKED: ENDROOT
DOCKED: BRANCH   1   2
DOCKED: ATOM      2  C   UNL     1      38.118  14.515 121.593 -0.39 -0.00    +0.000 C 
DOCKED: BRANCH   2   3
DOCKED: ATOM      3  C   UNL     1      39.136  15.629 121.332 -0.26 -0.00    +0.000 C 
DOCKED: BRANCH   3   5
DOCKED: ATOM      4  N   UNL     1      40.850  16.516 122.984 -0.32 -0.00    +0.000 N 
DOCKED: ATOM      5  C   UNL     1      40.353  15.438 122.186 -0.40 -0.00    +0.000 C 
DOCKED: ATOM      6  O   UNL     1      40.916  14.312 122.230 -1.08 +0.00    +0.000 OA
DOCKED: ATOM      7  H   UNL     1      40.402  17.392 122.953 -0.00 -0.00    +0.000 HD
DOCKED: BRANCH   4   8
DOCKED: ATOM      8  O   UNL     1      41.932  16.343 123.779 -1.05 +0.00    +0.000 OA
DOCKED: ATOM      9  H   UNL     1      42.262  15.436 123.682 -0.05 +0.00    +0.000 HD
DOCKED: ENDBRANCH   4   8
DOCKED: ENDBRANCH   3   5
DOCKED: ENDBRANCH   2   3
DOCKED: ENDBRANCH   1   2
DOCKED: BRANCH   1  10
DOCKED: ATOM     10  C   UNL     1      37.428  12.754 123.273 -0.59 -0.00    +0.000 C 
DOCKED: BRANCH  10  11
DOCKED: ATOM     11  C   UNL     1      37.162  12.029 121.937 -0.54 -0.00    +0.000 C 
DOCKED: BRANCH  11  12
DOCKED: ATOM     12  C   UNL     1      36.089  10.933 122.039 -0.58 -0.00    +0.000 C 
DOCKED: BRANCH  12  13
DOCKED: ATOM     13  C   UNL     1      36.684   9.558 122.105 -0.70 -0.00    +0.000 C 
DOCKED: ATOM     14  N   UNL     1      36.918   8.930 123.369 -0.61 -0.00    +0.000 N 
DOCKED: ATOM     15  O   UNL     1      36.952   8.942 121.039 -2.68 -0.00    +0.000 OA
DOCKED: ATOM     16  H   UNL     1      36.704   9.412 124.201 -0.48 -0.00    +0.000 HD
DOCKED: BRANCH  14  17
DOCKED: ATOM     17  O   UNL     1      37.429   7.677 123.432 -2.16 -0.00    +0.000 OA
DOCKED: ATOM     18  H   UNL     1      38.359   7.693 123.155 -0.52 -0.00    +0.000 HD
DOCKED: ENDBRANCH  14  17
DOCKED: ENDBRANCH  12  13
DOCKED: ENDBRANCH  11  12
DOCKED: ENDBRANCH  10  11
DOCKED: ENDBRANCH   1  10
DOCKED: TORSDOF 9
DOCKED: TER
DOCKED: ENDMDL
________________________________________________________________________________


	BEGINNING GENETIC ALGORITHM DOCKING 76 of 100
Run: 76 Seed: 167542889 1737413821 [ Run 76 of 100 GA/GALS ]
Beginning LAMARCKIAN GENETIC ALGORITHM (LGA), with a maximum of 2500000 energy evaluations.

Final-Value: -13.637


	FINAL GENETIC ALGORITHM DOCKED STATE
	_______________________________________________


Detailed state:  trans 36.352 15.388 124.600 quatxyzw 0.039612 0.664275 0.679426 -0.309111 center 0.300 0.400 0.510 ntor 9 180.0000 15.3728 -41.0592 172.1080 -110.7550 85.0056 -0.2395 152.3533 29.1582
State:	 36.352  15.388 124.600   0.042  0.698  0.714 -143.989    180.00   15.37  -41.06  172.11 -110.75   85.01   -0.24  152.35   29.16

DOCKED: MODEL       76
DOCKED: USER    Run = 76
DOCKED: USER    DPF = ligand_dock.biased.dpf
DOCKED: USER  
DOCKED: USER    Estimated Free Energy of Binding    =   -9.46 kcal/mol  [=(1)+(2)+(3)-(4)]
DOCKED: USER    Estimated Inhibition Constant, Ki   =  115.86 nM (nanomolar)  [Temperature = 298.15 K]
DOCKED: USER    
DOCKED: USER    (1) Final Intermolecular Energy     =  -12.15 kcal/mol
DOCKED: USER        vdW + Hbond + desolv Energy     =  -12.15 kcal/mol
DOCKED: USER        Electrostatic Energy            =   +0.00 kcal/mol
DOCKED: USER    (2) Final Total Internal Energy     =   -1.49 kcal/mol
DOCKED: USER    (3) Torsional Free Energy           =   +2.68 kcal/mol
DOCKED: USER    (4) Unbound System's Energy  [=(2)] =   -1.49 kcal/mol
DOCKED: USER    
DOCKED: USER    
DOCKED: USER    NEWDPF move ligand.pdbqt
DOCKED: USER    NEWDPF about 0.300000 0.400000 0.510000
DOCKED: USER    NEWDPF tran0 36.351712 15.387826 124.599881
DOCKED: USER    NEWDPF quaternion0 0.039612 0.664275 0.679426 -0.309111
DOCKED: USER    NEWDPF axisangle0 0.041652 0.698483 0.714414 -143.988632
DOCKED: USER    NEWDPF quat0 0.041652 0.698483 0.714414 -143.988632
DOCKED: USER    NEWDPF dihe0 180.00 15.37 -41.06 172.11 -110.75 85.01 -0.24 152.35 29.16 
DOCKED: USER  keepresnum = 1 
DOCKED: USER  
DOCKED: REMARK  Name = 
DOCKED: REMARK  9 active torsions:
DOCKED: REMARK  status: ('A' for Active; 'I' for Inactive)
DOCKED: REMARK    1  A    between atoms: O_1  and  N_2
DOCKED: REMARK    2  A    between atoms: C_3  and  C_4
DOCKED: REMARK    3  A    between atoms: C_4  and  C_5
DOCKED: REMARK    4  A    between atoms: C_5  and  C_6
DOCKED: REMARK    5  A    between atoms: C_6  and  C_7
DOCKED: REMARK    6  A    between atoms: C_7  and  C_8
DOCKED: REMARK    7  A    between atoms: C_8  and  C_9
DOCKED: REMARK    8  A    between atoms: C_9  and  C_10
DOCKED: REMARK    9  A    between atoms: N_11  and  O_12
DOCKED: REMARK                            x       y       z     vdW  Elec       q    Type
DOCKED: REMARK                         _______ _______ _______ _____ _____    ______ ____
DOCKED: USER                              x       y       z     vdW  Elec       q    Type
DOCKED: USER                           _______ _______ _______ _____ _____    ______ ____
DOCKED: ROOT
DOCKED: ATOM      1  C   UNL     1      36.060  13.888 123.821 -0.56 -0.00    +0.000 C 
DOCKED: ENDROOT
DOCKED: BRANCH   1   2
DOCKED: ATOM      2  C   UNL     1      35.778  15.198 123.078 -0.40 -0.00    +0.000 C 
DOCKED: BRANCH   2   3
DOCKED: ATOM      3  C   UNL     1      34.444  15.806 123.522 -0.52 -0.00    +0.000 C 
DOCKED: BRANCH   3   5
DOCKED: ATOM      4  N   UNL     1      33.604  15.829 125.919 -0.35 -0.00    +0.000 N 
DOCKED: ATOM      5  C   UNL     1      34.533  16.294 124.936 -0.51 -0.00    +0.000 C 
DOCKED: ATOM      6  O   UNL     1      35.455  17.087 125.266 -0.33 -0.00    +0.000 OA
DOCKED: ATOM      7  H   UNL     1      32.891  15.202 125.658 -0.16 -0.00    +0.000 HD
DOCKED: BRANCH   4   8
DOCKED: ATOM      8  O   UNL     1      33.696  16.244 127.204 -0.97 -0.00    +0.000 OA
DOCKED: ATOM      9  H   UNL     1      34.445  16.854 127.294 -0.02 -0.00    +0.000 HD
DOCKED: ENDBRANCH   4   8
DOCKED: ENDBRANCH   3   5
DOCKED: ENDBRANCH   2   3
DOCKED: ENDBRANCH   1   2
DOCKED: BRANCH   1  10
DOCKED: ATOM     10  C   UNL     1      37.396  13.277 123.374 -0.55 -0.00    +0.000 C 
DOCKED: BRANCH  10  11
DOCKED: ATOM     11  C   UNL     1      37.428  11.743 123.539 -0.48 -0.00    +0.000 C 
DOCKED: BRANCH  11  12
DOCKED: ATOM     12  C   UNL     1      36.293  11.023 122.792 -0.69 -0.00    +0.000 C 
DOCKED: BRANCH  12  13
DOCKED: ATOM     13  C   UNL     1      36.661   9.618 122.416 -0.71 -0.00    +0.000 C 
DOCKED: ATOM     14  N   UNL     1      36.765   8.604 123.419 -0.64 -0.00    +0.000 N 
DOCKED: ATOM     15  O   UNL     1      36.850   9.326 121.205 -2.58 -0.00    +0.000 OA
DOCKED: ATOM     16  H   UNL     1      36.613   8.834 124.364 -0.37 -0.00    +0.000 HD
DOCKED: BRANCH  14  17
DOCKED: ATOM     17  O   UNL     1      37.069   7.328 123.080 -2.15 -0.00    +0.000 OA
DOCKED: ATOM     18  H   UNL     1      37.421   7.309 122.176 -0.14 -0.00    +0.000 HD
DOCKED: ENDBRANCH  14  17
DOCKED: ENDBRANCH  12  13
DOCKED: ENDBRANCH  11  12
DOCKED: ENDBRANCH  10  11
DOCKED: ENDBRANCH   1  10
DOCKED: TORSDOF 9
DOCKED: TER
DOCKED: ENDMDL
________________________________________________________________________________


	BEGINNING GENETIC ALGORITHM DOCKING 77 of 100
Run: 77 Seed: 1618904099 94389417 [ Run 77 of 100 GA/GALS ]
Beginning LAMARCKIAN GENETIC ALGORITHM (LGA), with a maximum of 2500000 energy evaluations.

Final-Value: -15.065


	FINAL GENETIC ALGORITHM DOCKED STATE
	_______________________________________________


Detailed state:  trans 30.120 5.819 115.782 quatxyzw 0.113386 0.531760 -0.472595 -0.693563 center 0.300 0.400 0.510 ntor 9 178.0537 26.6250 -155.7412 162.6410 87.8904 -32.8172 -135.5389 156.3422 -16.1726
State:	 30.120   5.819 115.782   0.157  0.738 -0.656 -92.174    178.05   26.63 -155.74  162.64   87.89  -32.82 -135.54  156.34  -16.17

DOCKED: MODEL       77
DOCKED: USER    Run = 77
DOCKED: USER    DPF = ligand_dock.biased.dpf
DOCKED: USER  
DOCKED: USER    Estimated Free Energy of Binding    =  -10.66 kcal/mol  [=(1)+(2)+(3)-(4)]
DOCKED: USER    Estimated Inhibition Constant, Ki   =   15.28 nM (nanomolar)  [Temperature = 298.15 K]
DOCKED: USER    
DOCKED: USER    (1) Final Intermolecular Energy     =  -13.35 kcal/mol
DOCKED: USER        vdW + Hbond + desolv Energy     =  -13.35 kcal/mol
DOCKED: USER        Electrostatic Energy            =   +0.00 kcal/mol
DOCKED: USER    (2) Final Total Internal Energy     =   -1.72 kcal/mol
DOCKED: USER    (3) Torsional Free Energy           =   +2.68 kcal/mol
DOCKED: USER    (4) Unbound System's Energy  [=(2)] =   -1.72 kcal/mol
DOCKED: USER    
DOCKED: USER    
DOCKED: USER    NEWDPF move ligand.pdbqt
DOCKED: USER    NEWDPF about 0.300000 0.400000 0.510000
DOCKED: USER    NEWDPF tran0 30.119572 5.819127 115.782135
DOCKED: USER    NEWDPF quaternion0 0.113386 0.531760 -0.472595 -0.693563
DOCKED: USER    NEWDPF axisangle0 0.157394 0.738149 -0.656020 -92.174387
DOCKED: USER    NEWDPF quat0 0.157394 0.738149 -0.656020 -92.174387
DOCKED: USER    NEWDPF dihe0 178.05 26.63 -155.74 162.64 87.89 -32.82 -135.54 156.34 -16.17 
DOCKED: USER  keepresnum = 1 
DOCKED: USER  
DOCKED: REMARK  Name = 
DOCKED: REMARK  9 active torsions:
DOCKED: REMARK  status: ('A' for Active; 'I' for Inactive)
DOCKED: REMARK    1  A    between atoms: O_1  and  N_2
DOCKED: REMARK    2  A    between atoms: C_3  and  C_4
DOCKED: REMARK    3  A    between atoms: C_4  and  C_5
DOCKED: REMARK    4  A    between atoms: C_5  and  C_6
DOCKED: REMARK    5  A    between atoms: C_6  and  C_7
DOCKED: REMARK    6  A    between atoms: C_7  and  C_8
DOCKED: REMARK    7  A    between atoms: C_8  and  C_9
DOCKED: REMARK    8  A    between atoms: C_9  and  C_10
DOCKED: REMARK    9  A    between atoms: N_11  and  O_12
DOCKED: REMARK                            x       y       z     vdW  Elec       q    Type
DOCKED: REMARK                         _______ _______ _______ _____ _____    ______ ____
DOCKED: USER                              x       y       z     vdW  Elec       q    Type
DOCKED: USER                           _______ _______ _______ _____ _____    ______ ____
DOCKED: ROOT
DOCKED: ATOM      1  C   UNL     1      28.587   6.559 115.568 -0.54 -0.00    +0.000 C 
DOCKED: ENDROOT
DOCKED: BRANCH   1   2
DOCKED: ATOM      2  C   UNL     1      28.783   5.089 115.179 -0.71 +0.00    +0.000 C 
DOCKED: BRANCH   2   3
DOCKED: ATOM      3  C   UNL     1      27.514   4.276 115.447 -0.67 -0.00    +0.000 C 
DOCKED: BRANCH   3   5
DOCKED: ATOM      4  N   UNL     1      26.547   3.971 117.777 -0.66 -0.00    +0.000 N 
DOCKED: ATOM      5  C   UNL     1      27.561   3.664 116.815 -0.68 -0.00    +0.000 C 
DOCKED: ATOM      6  O   UNL     1      28.474   2.845 117.102 -1.21 +0.00    +0.000 OA
DOCKED: ATOM      7  H   UNL     1      25.831   4.605 117.544 -0.46 -0.00    +0.000 HD
DOCKED: BRANCH   4   8
DOCKED: ATOM      8  O   UNL     1      26.567   3.400 119.004 -0.87 -0.00    +0.000 OA
DOCKED: ATOM      9  H   UNL     1      27.314   2.784 119.061 -0.62 -0.00    +0.000 HD
DOCKED: ENDBRANCH   4   8
DOCKED: ENDBRANCH   3   5
DOCKED: ENDBRANCH   2   3
DOCKED: ENDBRANCH   1   2
DOCKED: BRANCH   1  10
DOCKED: ATOM     10  C   UNL     1      27.885   6.681 116.929 -0.62 -0.00    +0.000 C 
DOCKED: BRANCH  10  11
DOCKED: ATOM     11  C   UNL     1      28.066   8.075 117.562 -0.61 -0.00    +0.000 C 
DOCKED: BRANCH  11  12
DOCKED: ATOM     12  C   UNL     1      27.492   9.216 116.707 -0.69 +0.00    +0.000 C 
DOCKED: BRANCH  12  13
DOCKED: ATOM     13  C   UNL     1      26.243   8.812 115.982 -0.88 -0.00    +0.000 C 
DOCKED: ATOM     14  N   UNL     1      25.077   8.420 116.712 -0.74 -0.00    +0.000 N 
DOCKED: ATOM     15  O   UNL     1      26.213   8.847 114.722 -1.53 -0.00    +0.000 OA
DOCKED: ATOM     16  H   UNL     1      25.102   8.397 117.696 -0.06 -0.00    +0.000 HD
DOCKED: BRANCH  14  17
DOCKED: ATOM     17  O   UNL     1      23.938   8.081 116.062 -1.39 -0.00    +0.000 OA
DOCKED: ATOM     18  H   UNL     1      24.158   7.748 115.178 -0.41 -0.00    +0.000 HD
DOCKED: ENDBRANCH  14  17
DOCKED: ENDBRANCH  12  13
DOCKED: ENDBRANCH  11  12
DOCKED: ENDBRANCH  10  11
DOCKED: ENDBRANCH   1  10
DOCKED: TORSDOF 9
DOCKED: TER
DOCKED: ENDMDL
________________________________________________________________________________


	BEGINNING GENETIC ALGORITHM DOCKING 78 of 100
Run: 78 Seed: 1965852497 1293626969 [ Run 78 of 100 GA/GALS ]
Beginning LAMARCKIAN GENETIC ALGORITHM (LGA), with a maximum of 2500000 energy evaluations.

Final-Value: -14.283


	FINAL GENETIC ALGORITHM DOCKED STATE
	_______________________________________________


Detailed state:  trans 35.194 14.932 123.972 quatxyzw 0.200010 0.055534 -0.624066 0.753295 center 0.300 0.400 0.510 ntor 9 -176.7242 3.1754 -163.3989 175.3082 -111.1486 165.1313 36.8191 2.2973 37.7996
State:	 35.194  14.932 123.972   0.304  0.084 -0.949 82.247   -176.72    3.18 -163.40  175.31 -111.15  165.13   36.82    2.30   37.80

DOCKED: MODEL       78
DOCKED: USER    Run = 78
DOCKED: USER    DPF = ligand_dock.biased.dpf
DOCKED: USER  
DOCKED: USER    Estimated Free Energy of Binding    =  -10.10 kcal/mol  [=(1)+(2)+(3)-(4)]
DOCKED: USER    Estimated Inhibition Constant, Ki   =   39.33 nM (nanomolar)  [Temperature = 298.15 K]
DOCKED: USER    
DOCKED: USER    (1) Final Intermolecular Energy     =  -12.79 kcal/mol
DOCKED: USER        vdW + Hbond + desolv Energy     =  -12.79 kcal/mol
DOCKED: USER        Electrostatic Energy            =   +0.00 kcal/mol
DOCKED: USER    (2) Final Total Internal Energy     =   -1.50 kcal/mol
DOCKED: USER    (3) Torsional Free Energy           =   +2.68 kcal/mol
DOCKED: USER    (4) Unbound System's Energy  [=(2)] =   -1.50 kcal/mol
DOCKED: USER    
DOCKED: USER    
DOCKED: USER    NEWDPF move ligand.pdbqt
DOCKED: USER    NEWDPF about 0.300000 0.400000 0.510000
DOCKED: USER    NEWDPF tran0 35.194033 14.931717 123.971919
DOCKED: USER    NEWDPF quaternion0 0.200010 0.055534 -0.624066 0.753295
DOCKED: USER    NEWDPF axisangle0 0.304113 0.084439 -0.948886 82.246751
DOCKED: USER    NEWDPF quat0 0.304113 0.084439 -0.948886 82.246751
DOCKED: USER    NEWDPF dihe0 -176.72 3.18 -163.40 175.31 -111.15 165.13 36.82 2.30 37.80 
DOCKED: USER  keepresnum = 1 
DOCKED: USER  
DOCKED: REMARK  Name = 
DOCKED: REMARK  9 active torsions:
DOCKED: REMARK  status: ('A' for Active; 'I' for Inactive)
DOCKED: REMARK    1  A    between atoms: O_1  and  N_2
DOCKED: REMARK    2  A    between atoms: C_3  and  C_4
DOCKED: REMARK    3  A    between atoms: C_4  and  C_5
DOCKED: REMARK    4  A    between atoms: C_5  and  C_6
DOCKED: REMARK    5  A    between atoms: C_6  and  C_7
DOCKED: REMARK    6  A    between atoms: C_7  and  C_8
DOCKED: REMARK    7  A    between atoms: C_8  and  C_9
DOCKED: REMARK    8  A    between atoms: C_9  and  C_10
DOCKED: REMARK    9  A    between atoms: N_11  and  O_12
DOCKED: REMARK                            x       y       z     vdW  Elec       q    Type
DOCKED: REMARK                         _______ _______ _______ _____ _____    ______ ____
DOCKED: USER                              x       y       z     vdW  Elec       q    Type
DOCKED: USER                           _______ _______ _______ _____ _____    ______ ____
DOCKED: ROOT
DOCKED: ATOM      1  C   UNL     1      36.331  14.283 122.864 -0.44 -0.00    +0.000 C 
DOCKED: ENDROOT
DOCKED: BRANCH   1   2
DOCKED: ATOM      2  C   UNL     1      36.708  15.501 123.715 -0.37 -0.00    +0.000 C 
DOCKED: BRANCH   2   3
DOCKED: ATOM      3  C   UNL     1      35.549  16.500 123.788 -0.41 -0.00    +0.000 C 
DOCKED: BRANCH   3   5
DOCKED: ATOM      4  N   UNL     1      34.052  16.503 125.840 -0.47 -0.00    +0.000 N 
DOCKED: ATOM      5  C   UNL     1      34.412  15.929 124.580 -0.58 -0.00    +0.000 C 
DOCKED: ATOM      6  O   UNL     1      33.747  14.966 124.115 -0.68 -0.00    +0.000 OA
DOCKED: ATOM      7  H   UNL     1      34.569  17.262 126.196 -0.01 -0.00    +0.000 HD
DOCKED: BRANCH   4   8
DOCKED: ATOM      8  O   UNL     1      33.008  16.011 126.548 -1.02 -0.00    +0.000 OA
DOCKED: ATOM      9  H   UNL     1      32.642  15.239 126.089 -0.22 -0.00    +0.000 HD
DOCKED: ENDBRANCH   4   8
DOCKED: ENDBRANCH   3   5
DOCKED: ENDBRANCH   2   3
DOCKED: ENDBRANCH   1   2
DOCKED: BRANCH   1  10
DOCKED: ATOM     10  C   UNL     1      36.934  12.996 123.447 -0.62 -0.00    +0.000 C 
DOCKED: BRANCH  10  11
DOCKED: ATOM     11  C   UNL     1      37.368  12.000 122.351 -0.48 -0.00    +0.000 C 
DOCKED: BRANCH  11  12
DOCKED: ATOM     12  C   UNL     1      36.288  10.964 122.002 -0.61 -0.00    +0.000 C 
DOCKED: BRANCH  12  13
DOCKED: ATOM     13  C   UNL     1      36.797   9.556 122.095 -0.67 -0.00    +0.000 C 
DOCKED: ATOM     14  N   UNL     1      37.010   8.946 123.371 -0.61 -0.00    +0.000 N 
DOCKED: ATOM     15  O   UNL     1      37.009   8.899 121.040 -2.69 -0.00    +0.000 OA
DOCKED: ATOM     16  H   UNL     1      36.840   9.460 124.193 -0.52 -0.00    +0.000 HD
DOCKED: BRANCH  14  17
DOCKED: ATOM     17  O   UNL     1      37.443   7.666 123.458 -2.15 -0.00    +0.000 OA
DOCKED: ATOM     18  H   UNL     1      37.610   7.319 122.568 -0.23 -0.00    +0.000 HD
DOCKED: ENDBRANCH  14  17
DOCKED: ENDBRANCH  12  13
DOCKED: ENDBRANCH  11  12
DOCKED: ENDBRANCH  10  11
DOCKED: ENDBRANCH   1  10
DOCKED: TORSDOF 9
DOCKED: TER
DOCKED: ENDMDL
________________________________________________________________________________


	BEGINNING GENETIC ALGORITHM DOCKING 79 of 100
Run: 79 Seed: 479077703 2028507899 [ Run 79 of 100 GA/GALS ]
Beginning LAMARCKIAN GENETIC ALGORITHM (LGA), with a maximum of 2500000 energy evaluations.

Final-Value: -13.775


	FINAL GENETIC ALGORITHM DOCKED STATE
	_______________________________________________


Detailed state:  trans 37.999 14.545 121.876 quatxyzw -0.711149 -0.702360 0.012532 -0.028301 center 0.300 0.400 0.510 ntor 9 -179.1690 -8.9633 -169.7311 179.9903 -172.0764 125.9537 88.1987 -59.5530 -56.5121
State:	 37.999  14.545 121.876  -0.711 -0.703  0.013 -176.757   -179.17   -8.96 -169.73  179.99 -172.08  125.95   88.20  -59.55  -56.51

DOCKED: MODEL       79
DOCKED: USER    Run = 79
DOCKED: USER    DPF = ligand_dock.biased.dpf
DOCKED: USER  
DOCKED: USER    Estimated Free Energy of Binding    =   -9.28 kcal/mol  [=(1)+(2)+(3)-(4)]
DOCKED: USER    Estimated Inhibition Constant, Ki   =  157.92 nM (nanomolar)  [Temperature = 298.15 K]
DOCKED: USER    
DOCKED: USER    (1) Final Intermolecular Energy     =  -11.96 kcal/mol
DOCKED: USER        vdW + Hbond + desolv Energy     =  -11.96 kcal/mol
DOCKED: USER        Electrostatic Energy            =   +0.00 kcal/mol
DOCKED: USER    (2) Final Total Internal Energy     =   -1.81 kcal/mol
DOCKED: USER    (3) Torsional Free Energy           =   +2.68 kcal/mol
DOCKED: USER    (4) Unbound System's Energy  [=(2)] =   -1.81 kcal/mol
DOCKED: USER    
DOCKED: USER    
DOCKED: USER    NEWDPF move ligand.pdbqt
DOCKED: USER    NEWDPF about 0.300000 0.400000 0.510000
DOCKED: USER    NEWDPF tran0 37.999323 14.544602 121.876363
DOCKED: USER    NEWDPF quaternion0 -0.711149 -0.702360 0.012532 -0.028301
DOCKED: USER    NEWDPF axisangle0 -0.711434 -0.702642 0.012538 -176.756506
DOCKED: USER    NEWDPF quat0 -0.711434 -0.702642 0.012538 -176.756506
DOCKED: USER    NEWDPF dihe0 -179.17 -8.96 -169.73 179.99 -172.08 125.95 88.20 -59.55 -56.51 
DOCKED: USER  keepresnum = 1 
DOCKED: USER  
DOCKED: REMARK  Name = 
DOCKED: REMARK  9 active torsions:
DOCKED: REMARK  status: ('A' for Active; 'I' for Inactive)
DOCKED: REMARK    1  A    between atoms: O_1  and  N_2
DOCKED: REMARK    2  A    between atoms: C_3  and  C_4
DOCKED: REMARK    3  A    between atoms: C_4  and  C_5
DOCKED: REMARK    4  A    between atoms: C_5  and  C_6
DOCKED: REMARK    5  A    between atoms: C_6  and  C_7
DOCKED: REMARK    6  A    between atoms: C_7  and  C_8
DOCKED: REMARK    7  A    between atoms: C_8  and  C_9
DOCKED: REMARK    8  A    between atoms: C_9  and  C_10
DOCKED: REMARK    9  A    between atoms: N_11  and  O_12
DOCKED: REMARK                            x       y       z     vdW  Elec       q    Type
DOCKED: REMARK                         _______ _______ _______ _____ _____    ______ ____
DOCKED: USER                              x       y       z     vdW  Elec       q    Type
DOCKED: USER                           _______ _______ _______ _____ _____    ______ ____
DOCKED: ROOT
DOCKED: ATOM      1  C   UNL     1      37.362  14.322 123.453 -0.45 -0.00    +0.000 C 
DOCKED: ENDROOT
DOCKED: BRANCH   1   2
DOCKED: ATOM      2  C   UNL     1      36.834  15.461 122.573 -0.36 -0.00    +0.000 C 
DOCKED: BRANCH   2   3
DOCKED: ATOM      3  C   UNL     1      37.366  15.340 121.142 -0.26 -0.00    +0.000 C 
DOCKED: BRANCH   3   5
DOCKED: ATOM      4  N   UNL     1      37.515  12.984 120.205 -0.44 -0.00    +0.000 N 
DOCKED: ATOM      5  C   UNL     1      38.102  14.047 120.961 -0.39 -0.00    +0.000 C 
DOCKED: ATOM      6  O   UNL     1      39.258  13.913 121.444 -0.73 -0.00    +0.000 OA
DOCKED: ATOM      7  H   UNL     1      36.616  13.097 119.822 -0.05 -0.00    +0.000 HD
DOCKED: BRANCH   4   8
DOCKED: ATOM      8  O   UNL     1      38.186  11.824 120.014 -0.56 -0.00    +0.000 OA
DOCKED: ATOM      9  H   UNL     1      39.044  11.868 120.464 -0.11 -0.00    +0.000 HD
DOCKED: ENDBRANCH   4   8
DOCKED: ENDBRANCH   3   5
DOCKED: ENDBRANCH   2   3
DOCKED: ENDBRANCH   1   2
DOCKED: BRANCH   1  10
DOCKED: ATOM     10  C   UNL     1      36.395  13.129 123.449 -0.63 -0.00    +0.000 C 
DOCKED: BRANCH  10  11
DOCKED: ATOM     11  C   UNL     1      37.062  11.832 122.945 -0.65 -0.00    +0.000 C 
DOCKED: BRANCH  11  12
DOCKED: ATOM     12  C   UNL     1      36.066  10.817 122.362 -0.67 -0.00    +0.000 C 
DOCKED: BRANCH  12  13
DOCKED: ATOM     13  C   UNL     1      36.671   9.455 122.197 -0.71 -0.00    +0.000 C 
DOCKED: ATOM     14  N   UNL     1      36.806   8.582 123.321 -0.67 -0.00    +0.000 N 
DOCKED: ATOM     15  O   UNL     1      37.035   9.068 121.054 -2.72 -0.00    +0.000 OA
DOCKED: ATOM     16  H   UNL     1      36.517   8.884 124.212 -0.39 -0.00    +0.000 HD
DOCKED: BRANCH  14  17
DOCKED: ATOM     17  O   UNL     1      37.326   7.340 123.171 -2.00 -0.00    +0.000 OA
DOCKED: ATOM     18  H   UNL     1      37.427   7.144 122.227 -0.19 -0.00    +0.000 HD
DOCKED: ENDBRANCH  14  17
DOCKED: ENDBRANCH  12  13
DOCKED: ENDBRANCH  11  12
DOCKED: ENDBRANCH  10  11
DOCKED: ENDBRANCH   1  10
DOCKED: TORSDOF 9
DOCKED: TER
DOCKED: ENDMDL
________________________________________________________________________________


	BEGINNING GENETIC ALGORITHM DOCKING 80 of 100
Run: 80 Seed: 279344114 743861735 [ Run 80 of 100 GA/GALS ]
Beginning LAMARCKIAN GENETIC ALGORITHM (LGA), with a maximum of 2500000 energy evaluations.

Final-Value: -13.625


	FINAL GENETIC ALGORITHM DOCKED STATE
	_______________________________________________


Detailed state:  trans 35.329 12.674 122.219 quatxyzw -0.825112 0.540233 0.163607 -0.023912 center 0.300 0.400 0.510 ntor 9 -179.4920 -4.7279 147.9201 170.4903 73.5447 166.5024 27.4746 -117.3148 -72.3552
State:	 35.329  12.674 122.219  -0.825  0.540  0.164 -177.260   -179.49   -4.73  147.92  170.49   73.54  166.50   27.47 -117.31  -72.36

DOCKED: MODEL       80
DOCKED: USER    Run = 80
DOCKED: USER    DPF = ligand_dock.biased.dpf
DOCKED: USER  
DOCKED: USER    Estimated Free Energy of Binding    =   -9.44 kcal/mol  [=(1)+(2)+(3)-(4)]
DOCKED: USER    Estimated Inhibition Constant, Ki   =  120.75 nM (nanomolar)  [Temperature = 298.15 K]
DOCKED: USER    
DOCKED: USER    (1) Final Intermolecular Energy     =  -12.12 kcal/mol
DOCKED: USER        vdW + Hbond + desolv Energy     =  -12.12 kcal/mol
DOCKED: USER        Electrostatic Energy            =   +0.00 kcal/mol
DOCKED: USER    (2) Final Total Internal Energy     =   -1.50 kcal/mol
DOCKED: USER    (3) Torsional Free Energy           =   +2.68 kcal/mol
DOCKED: USER    (4) Unbound System's Energy  [=(2)] =   -1.50 kcal/mol
DOCKED: USER    
DOCKED: USER    
DOCKED: USER    NEWDPF move ligand.pdbqt
DOCKED: USER    NEWDPF about 0.300000 0.400000 0.510000
DOCKED: USER    NEWDPF tran0 35.329149 12.673590 122.219201
DOCKED: USER    NEWDPF quaternion0 -0.825112 0.540233 0.163607 -0.023912
DOCKED: USER    NEWDPF axisangle0 -0.825348 0.540388 0.163654 -177.259569
DOCKED: USER    NEWDPF quat0 -0.825348 0.540388 0.163654 -177.259569
DOCKED: USER    NEWDPF dihe0 -179.49 -4.73 147.92 170.49 73.54 166.50 27.47 -117.31 -72.36 
DOCKED: USER  keepresnum = 1 
DOCKED: USER  
DOCKED: REMARK  Name = 
DOCKED: REMARK  9 active torsions:
DOCKED: REMARK  status: ('A' for Active; 'I' for Inactive)
DOCKED: REMARK    1  A    between atoms: O_1  and  N_2
DOCKED: REMARK    2  A    between atoms: C_3  and  C_4
DOCKED: REMARK    3  A    between atoms: C_4  and  C_5
DOCKED: REMARK    4  A    between atoms: C_5  and  C_6
DOCKED: REMARK    5  A    between atoms: C_6  and  C_7
DOCKED: REMARK    6  A    between atoms: C_7  and  C_8
DOCKED: REMARK    7  A    between atoms: C_8  and  C_9
DOCKED: REMARK    8  A    between atoms: C_9  and  C_10
DOCKED: REMARK    9  A    between atoms: N_11  and  O_12
DOCKED: REMARK                            x       y       z     vdW  Elec       q    Type
DOCKED: REMARK                         _______ _______ _______ _____ _____    ______ ____
DOCKED: USER                              x       y       z     vdW  Elec       q    Type
DOCKED: USER                           _______ _______ _______ _____ _____    ______ ____
DOCKED: ROOT
DOCKED: ATOM      1  C   UNL     1      36.287  12.814 123.635 -0.64 -0.00    +0.000 C 
DOCKED: ENDROOT
DOCKED: BRANCH   1   2
DOCKED: ATOM      2  C   UNL     1      36.901  12.237 122.355 -0.60 -0.00    +0.000 C 
DOCKED: BRANCH   2   3
DOCKED: ATOM      3  C   UNL     1      36.033  11.111 121.788 -0.38 -0.00    +0.000 C 
DOCKED: BRANCH   3   5
DOCKED: ATOM      4  N   UNL     1      36.877   9.294 123.351 -0.57 -0.00    +0.000 N 
DOCKED: ATOM      5  C   UNL     1      36.682   9.779 122.019 -0.67 -0.00    +0.000 C 
DOCKED: ATOM      6  O   UNL     1      37.019   9.069 121.035 -2.71 -0.00    +0.000 OA
DOCKED: ATOM      7  H   UNL     1      36.603   9.848 124.117 -0.42 -0.00    +0.000 HD
DOCKED: BRANCH   4   8
DOCKED: ATOM      8  O   UNL     1      37.436   8.080 123.566 -2.02 -0.00    +0.000 OA
DOCKED: ATOM      9  H   UNL     1      37.655   7.670 122.715 -0.19 -0.00    +0.000 HD
DOCKED: ENDBRANCH   4   8
DOCKED: ENDBRANCH   3   5
DOCKED: ENDBRANCH   2   3
DOCKED: ENDBRANCH   1   2
DOCKED: BRANCH   1  10
DOCKED: ATOM     10  C   UNL     1      36.696  14.282 123.830 -0.44 -0.00    +0.000 C 
DOCKED: BRANCH  10  11
DOCKED: ATOM     11  C   UNL     1      35.547  15.261 123.515 -0.50 -0.00    +0.000 C 
DOCKED: BRANCH  11  12
DOCKED: ATOM     12  C   UNL     1      35.566  16.529 124.385 -0.39 -0.00    +0.000 C 
DOCKED: BRANCH  12  13
DOCKED: ATOM     13  C   UNL     1      34.266  16.748 125.101 -0.47 -0.00    +0.000 C 
DOCKED: ATOM     14  N   UNL     1      33.870  15.879 126.165 -0.40 -0.00    +0.000 N 
DOCKED: ATOM     15  O   UNL     1      33.534  17.723 124.780 -0.43 -0.00    +0.000 OA
DOCKED: ATOM     16  H   UNL     1      34.445  15.120 126.416 -0.01 -0.00    +0.000 HD
DOCKED: BRANCH  14  17
DOCKED: ATOM     17  O   UNL     1      32.711  16.090 126.832 -1.04 -0.00    +0.000 OA
DOCKED: ATOM     18  H   UNL     1      32.302  16.912 126.518 -0.24 -0.00    +0.000 HD
DOCKED: ENDBRANCH  14  17
DOCKED: ENDBRANCH  12  13
DOCKED: ENDBRANCH  11  12
DOCKED: ENDBRANCH  10  11
DOCKED: ENDBRANCH   1  10
DOCKED: TORSDOF 9
DOCKED: TER
DOCKED: ENDMDL
________________________________________________________________________________


	BEGINNING GENETIC ALGORITHM DOCKING 81 of 100
Run: 81 Seed: 515695838 1537360936 [ Run 81 of 100 GA/GALS ]
Beginning LAMARCKIAN GENETIC ALGORITHM (LGA), with a maximum of 2500000 energy evaluations.

Final-Value: -13.310


	FINAL GENETIC ALGORITHM DOCKED STATE
	_______________________________________________


Detailed state:  trans 38.458 12.479 122.970 quatxyzw 0.769540 0.430337 -0.059516 -0.468056 center 0.300 0.400 0.510 ntor 9 178.9414 -1.3688 154.7864 18.8943 -110.9403 127.8278 -55.5887 71.0245 -95.9597
State:	 38.458  12.479 122.970   0.871  0.487 -0.067 -124.184    178.94   -1.37  154.79   18.89 -110.94  127.83  -55.59   71.02  -95.96

DOCKED: MODEL       81
DOCKED: USER    Run = 81
DOCKED: USER    DPF = ligand_dock.biased.dpf
DOCKED: USER  
DOCKED: USER    Estimated Free Energy of Binding    =   -9.16 kcal/mol  [=(1)+(2)+(3)-(4)]
DOCKED: USER    Estimated Inhibition Constant, Ki   =  193.37 nM (nanomolar)  [Temperature = 298.15 K]
DOCKED: USER    
DOCKED: USER    (1) Final Intermolecular Energy     =  -11.84 kcal/mol
DOCKED: USER        vdW + Hbond + desolv Energy     =  -11.84 kcal/mol
DOCKED: USER        Electrostatic Energy            =   +0.00 kcal/mol
DOCKED: USER    (2) Final Total Internal Energy     =   -1.47 kcal/mol
DOCKED: USER    (3) Torsional Free Energy           =   +2.68 kcal/mol
DOCKED: USER    (4) Unbound System's Energy  [=(2)] =   -1.47 kcal/mol
DOCKED: USER    
DOCKED: USER    
DOCKED: USER    NEWDPF move ligand.pdbqt
DOCKED: USER    NEWDPF about 0.300000 0.400000 0.510000
DOCKED: USER    NEWDPF tran0 38.458009 12.478961 122.969726
DOCKED: USER    NEWDPF quaternion0 0.769540 0.430337 -0.059516 -0.468056
DOCKED: USER    NEWDPF axisangle0 0.870817 0.486972 -0.067349 -124.183647
DOCKED: USER    NEWDPF quat0 0.870817 0.486972 -0.067349 -124.183647
DOCKED: USER    NEWDPF dihe0 178.94 -1.37 154.79 18.89 -110.94 127.83 -55.59 71.02 -95.96 
DOCKED: USER  keepresnum = 1 
DOCKED: USER  
DOCKED: REMARK  Name = 
DOCKED: REMARK  9 active torsions:
DOCKED: REMARK  status: ('A' for Active; 'I' for Inactive)
DOCKED: REMARK    1  A    between atoms: O_1  and  N_2
DOCKED: REMARK    2  A    between atoms: C_3  and  C_4
DOCKED: REMARK    3  A    between atoms: C_4  and  C_5
DOCKED: REMARK    4  A    between atoms: C_5  and  C_6
DOCKED: REMARK    5  A    between atoms: C_6  and  C_7
DOCKED: REMARK    6  A    between atoms: C_7  and  C_8
DOCKED: REMARK    7  A    between atoms: C_8  and  C_9
DOCKED: REMARK    8  A    between atoms: C_9  and  C_10
DOCKED: REMARK    9  A    between atoms: N_11  and  O_12
DOCKED: REMARK                            x       y       z     vdW  Elec       q    Type
DOCKED: REMARK                         _______ _______ _______ _____ _____    ______ ____
DOCKED: USER                              x       y       z     vdW  Elec       q    Type
DOCKED: USER                           _______ _______ _______ _____ _____    ______ ____
DOCKED: ROOT
DOCKED: ATOM      1  C   UNL     1      37.335  13.689 123.437 -0.51 -0.00    +0.000 C 
DOCKED: ENDROOT
DOCKED: BRANCH   1   2
DOCKED: ATOM      2  C   UNL     1      37.968  13.735 122.041 -0.47 -0.00    +0.000 C 
DOCKED: BRANCH   2   3
DOCKED: ATOM      3  C   UNL     1      38.438  15.151 121.698 -0.33 -0.00    +0.000 C 
DOCKED: BRANCH   3   5
DOCKED: ATOM      4  N   UNL     1      40.885  14.937 122.349 -0.47 -0.00    +0.000 N 
DOCKED: ATOM      5  C   UNL     1      39.604  15.540 122.556 -0.36 -0.00    +0.000 C 
DOCKED: ATOM      6  O   UNL     1      39.464  16.431 123.435 -0.30 -0.00    +0.000 OA
DOCKED: ATOM      7  H   UNL     1      40.992  14.247 121.654 -0.03 +0.00    +0.000 HD
DOCKED: BRANCH   4   8
DOCKED: ATOM      8  O   UNL     1      41.949  15.304 123.100 -1.10 +0.00    +0.000 OA
DOCKED: ATOM      9  H   UNL     1      41.681  15.998 123.722 -0.04 +0.00    +0.000 HD
DOCKED: ENDBRANCH   4   8
DOCKED: ENDBRANCH   3   5
DOCKED: ENDBRANCH   2   3
DOCKED: ENDBRANCH   1   2
DOCKED: BRANCH   1  10
DOCKED: ATOM     10  C   UNL     1      35.912  13.114 123.379 -0.58 -0.00    +0.000 C 
DOCKED: BRANCH  10  11
DOCKED: ATOM     11  C   UNL     1      35.901  11.571 123.348 -0.68 -0.00    +0.000 C 
DOCKED: BRANCH  11  12
DOCKED: ATOM     12  C   UNL     1      37.196  10.961 122.789 -0.44 -0.00    +0.000 C 
DOCKED: BRANCH  12  13
DOCKED: ATOM     13  C   UNL     1      37.028   9.519 122.409 -0.62 -0.00    +0.000 C 
DOCKED: ATOM     14  N   UNL     1      37.108   8.495 123.403 -0.68 -0.00    +0.000 N 
DOCKED: ATOM     15  O   UNL     1      36.787   9.214 121.210 -2.66 -0.00    +0.000 OA
DOCKED: ATOM     16  H   UNL     1      37.293   8.736 124.339 -0.54 -0.00    +0.000 HD
DOCKED: BRANCH  14  17
DOCKED: ATOM     17  O   UNL     1      36.929   7.194 123.069 -1.96 -0.00    +0.000 OA
DOCKED: ATOM     18  H   UNL     1      36.736   7.128 122.120 -0.07 -0.00    +0.000 HD
DOCKED: ENDBRANCH  14  17
DOCKED: ENDBRANCH  12  13
DOCKED: ENDBRANCH  11  12
DOCKED: ENDBRANCH  10  11
DOCKED: ENDBRANCH   1  10
DOCKED: TORSDOF 9
DOCKED: TER
DOCKED: ENDMDL
________________________________________________________________________________


	BEGINNING GENETIC ALGORITHM DOCKING 82 of 100
Run: 82 Seed: 949440544 934198848 [ Run 82 of 100 GA/GALS ]
Beginning LAMARCKIAN GENETIC ALGORITHM (LGA), with a maximum of 2500000 energy evaluations.

Final-Value: -13.297


	FINAL GENETIC ALGORITHM DOCKED STATE
	_______________________________________________


Detailed state:  trans 38.857 14.601 122.079 quatxyzw -0.738765 -0.582698 -0.291193 -0.172903 center 0.300 0.400 0.510 ntor 9 179.0956 12.1360 -139.6477 -102.1296 -114.3384 111.0294 -147.4097 -171.7077 -18.5617
State:	 38.857  14.601 122.079  -0.750 -0.592 -0.296 -160.087    179.10   12.14 -139.65 -102.13 -114.34  111.03 -147.41 -171.71  -18.56

DOCKED: MODEL       82
DOCKED: USER    Run = 82
DOCKED: USER    DPF = ligand_dock.biased.dpf
DOCKED: USER  
DOCKED: USER    Estimated Free Energy of Binding    =   -9.25 kcal/mol  [=(1)+(2)+(3)-(4)]
DOCKED: USER    Estimated Inhibition Constant, Ki   =  165.66 nM (nanomolar)  [Temperature = 298.15 K]
DOCKED: USER    
DOCKED: USER    (1) Final Intermolecular Energy     =  -11.94 kcal/mol
DOCKED: USER        vdW + Hbond + desolv Energy     =  -11.94 kcal/mol
DOCKED: USER        Electrostatic Energy            =   +0.00 kcal/mol
DOCKED: USER    (2) Final Total Internal Energy     =   -1.36 kcal/mol
DOCKED: USER    (3) Torsional Free Energy           =   +2.68 kcal/mol
DOCKED: USER    (4) Unbound System's Energy  [=(2)] =   -1.36 kcal/mol
DOCKED: USER    
DOCKED: USER    
DOCKED: USER    NEWDPF move ligand.pdbqt
DOCKED: USER    NEWDPF about 0.300000 0.400000 0.510000
DOCKED: USER    NEWDPF tran0 38.857048 14.601241 122.078543
DOCKED: USER    NEWDPF quaternion0 -0.738765 -0.582698 -0.291193 -0.172903
DOCKED: USER    NEWDPF axisangle0 -0.750062 -0.591609 -0.295646 -160.086749
DOCKED: USER    NEWDPF quat0 -0.750062 -0.591609 -0.295646 -160.086749
DOCKED: USER    NEWDPF dihe0 179.10 12.14 -139.65 -102.13 -114.34 111.03 -147.41 -171.71 -18.56 
DOCKED: USER  keepresnum = 1 
DOCKED: USER  
DOCKED: REMARK  Name = 
DOCKED: REMARK  9 active torsions:
DOCKED: REMARK  status: ('A' for Active; 'I' for Inactive)
DOCKED: REMARK    1  A    between atoms: O_1  and  N_2
DOCKED: REMARK    2  A    between atoms: C_3  and  C_4
DOCKED: REMARK    3  A    between atoms: C_4  and  C_5
DOCKED: REMARK    4  A    between atoms: C_5  and  C_6
DOCKED: REMARK    5  A    between atoms: C_6  and  C_7
DOCKED: REMARK    6  A    between atoms: C_7  and  C_8
DOCKED: REMARK    7  A    between atoms: C_8  and  C_9
DOCKED: REMARK    8  A    between atoms: C_9  and  C_10
DOCKED: REMARK    9  A    between atoms: N_11  and  O_12
DOCKED: REMARK                            x       y       z     vdW  Elec       q    Type
DOCKED: REMARK                         _______ _______ _______ _____ _____    ______ ____
DOCKED: USER                              x       y       z     vdW  Elec       q    Type
DOCKED: USER                           _______ _______ _______ _____ _____    ______ ____
DOCKED: ROOT
DOCKED: ATOM      1  C   UNL     1      37.777  13.724 123.082 -0.53 -0.00    +0.000 C 
DOCKED: ENDROOT
DOCKED: BRANCH   1   2
DOCKED: ATOM      2  C   UNL     1      37.689  15.254 123.023 -0.39 -0.00    +0.000 C 
DOCKED: BRANCH   2   3
DOCKED: ATOM      3  C   UNL     1      36.238  15.715 122.862 -0.37 -0.00    +0.000 C 
DOCKED: BRANCH   3   5
DOCKED: ATOM      4  N   UNL     1      34.514  16.296 124.634 -0.49 -0.00    +0.000 N 
DOCKED: ATOM      5  C   UNL     1      35.434  15.355 124.075 -0.52 -0.00    +0.000 C 
DOCKED: ATOM      6  O   UNL     1      35.542  14.205 124.577 -0.58 -0.00    +0.000 OA
DOCKED: ATOM      7  H   UNL     1      34.426  17.190 124.232 -0.01 -0.00    +0.000 HD
DOCKED: BRANCH   4   8
DOCKED: ATOM      8  O   UNL     1      33.763  15.967 125.712 -0.82 -0.00    +0.000 OA
DOCKED: ATOM      9  H   UNL     1      33.958  15.054 125.975 -0.05 -0.00    +0.000 HD
DOCKED: ENDBRANCH   4   8
DOCKED: ENDBRANCH   3   5
DOCKED: ENDBRANCH   2   3
DOCKED: ENDBRANCH   1   2
DOCKED: BRANCH   1  10
DOCKED: ATOM     10  C   UNL     1      36.688  13.075 122.215 -0.51 -0.00    +0.000 C 
DOCKED: BRANCH  10  11
DOCKED: ATOM     11  C   UNL     1      37.029  11.621 121.832 -0.57 -0.00    +0.000 C 
DOCKED: BRANCH  11  12
DOCKED: ATOM     12  C   UNL     1      36.459  10.580 122.809 -0.69 -0.00    +0.000 C 
DOCKED: BRANCH  12  13
DOCKED: ATOM     13  C   UNL     1      36.791   9.175 122.402 -0.71 -0.00    +0.000 C 
DOCKED: ATOM     14  N   UNL     1      36.796   8.123 123.371 -0.72 -0.00    +0.000 N 
DOCKED: ATOM     15  O   UNL     1      37.039   8.917 121.193 -2.69 -0.00    +0.000 OA
DOCKED: ATOM     16  H   UNL     1      36.599   8.326 124.314 -0.32 -0.00    +0.000 HD
DOCKED: BRANCH  14  17
DOCKED: ATOM     17  O   UNL     1      37.068   6.848 123.003 -1.63 -0.00    +0.000 OA
DOCKED: ATOM     18  H   UNL     1      37.424   6.841 122.100 -0.31 -0.00    +0.000 HD
DOCKED: ENDBRANCH  14  17
DOCKED: ENDBRANCH  12  13
DOCKED: ENDBRANCH  11  12
DOCKED: ENDBRANCH  10  11
DOCKED: ENDBRANCH   1  10
DOCKED: TORSDOF 9
DOCKED: TER
DOCKED: ENDMDL
________________________________________________________________________________


	BEGINNING GENETIC ALGORITHM DOCKING 83 of 100
Run: 83 Seed: 138775656 2040690394 [ Run 83 of 100 GA/GALS ]
Beginning LAMARCKIAN GENETIC ALGORITHM (LGA), with a maximum of 2500000 energy evaluations.

Final-Value: -13.638


	FINAL GENETIC ALGORITHM DOCKED STATE
	_______________________________________________


Detailed state:  trans 37.571 14.613 120.772 quatxyzw -0.562304 0.421221 0.149496 -0.695729 center 0.300 0.400 0.510 ntor 9 179.3607 -6.7919 152.0774 162.8737 -80.6917 53.0091 103.0988 70.7818 58.6360
State:	 37.571  14.613 120.772  -0.783  0.586  0.208 -91.829    179.36   -6.79  152.08  162.87  -80.69   53.01  103.10   70.78   58.64

DOCKED: MODEL       83
DOCKED: USER    Run = 83
DOCKED: USER    DPF = ligand_dock.biased.dpf
DOCKED: USER  
DOCKED: USER    Estimated Free Energy of Binding    =   -9.25 kcal/mol  [=(1)+(2)+(3)-(4)]
DOCKED: USER    Estimated Inhibition Constant, Ki   =  165.69 nM (nanomolar)  [Temperature = 298.15 K]
DOCKED: USER    
DOCKED: USER    (1) Final Intermolecular Energy     =  -11.94 kcal/mol
DOCKED: USER        vdW + Hbond + desolv Energy     =  -11.94 kcal/mol
DOCKED: USER        Electrostatic Energy            =   +0.00 kcal/mol
DOCKED: USER    (2) Final Total Internal Energy     =   -1.70 kcal/mol
DOCKED: USER    (3) Torsional Free Energy           =   +2.68 kcal/mol
DOCKED: USER    (4) Unbound System's Energy  [=(2)] =   -1.70 kcal/mol
DOCKED: USER    
DOCKED: USER    
DOCKED: USER    NEWDPF move ligand.pdbqt
DOCKED: USER    NEWDPF about 0.300000 0.400000 0.510000
DOCKED: USER    NEWDPF tran0 37.570714 14.613118 120.772500
DOCKED: USER    NEWDPF quaternion0 -0.562304 0.421221 0.149496 -0.695729
DOCKED: USER    NEWDPF axisangle0 -0.782821 0.586410 0.208123 -91.829362
DOCKED: USER    NEWDPF quat0 -0.782821 0.586410 0.208123 -91.829362
DOCKED: USER    NEWDPF dihe0 179.36 -6.79 152.08 162.87 -80.69 53.01 103.10 70.78 58.64 
DOCKED: USER  keepresnum = 1 
DOCKED: USER  
DOCKED: REMARK  Name = 
DOCKED: REMARK  9 active torsions:
DOCKED: REMARK  status: ('A' for Active; 'I' for Inactive)
DOCKED: REMARK    1  A    between atoms: O_1  and  N_2
DOCKED: REMARK    2  A    between atoms: C_3  and  C_4
DOCKED: REMARK    3  A    between atoms: C_4  and  C_5
DOCKED: REMARK    4  A    between atoms: C_5  and  C_6
DOCKED: REMARK    5  A    between atoms: C_6  and  C_7
DOCKED: REMARK    6  A    between atoms: C_7  and  C_8
DOCKED: REMARK    7  A    between atoms: C_8  and  C_9
DOCKED: REMARK    8  A    between atoms: C_9  and  C_10
DOCKED: REMARK    9  A    between atoms: N_11  and  O_12
DOCKED: REMARK                            x       y       z     vdW  Elec       q    Type
DOCKED: REMARK                         _______ _______ _______ _____ _____    ______ ____
DOCKED: USER                              x       y       z     vdW  Elec       q    Type
DOCKED: USER                           _______ _______ _______ _____ _____    ______ ____
DOCKED: ROOT
DOCKED: ATOM      1  C   UNL     1      37.303  13.030 121.377 -0.49 -0.00    +0.000 C 
DOCKED: ENDROOT
DOCKED: BRANCH   1   2
DOCKED: ATOM      2  C   UNL     1      38.695  13.426 120.871 -0.32 -0.00    +0.000 C 
DOCKED: BRANCH   2   3
DOCKED: ATOM      3  C   UNL     1      38.895  14.942 120.944 -0.30 -0.00    +0.000 C 
DOCKED: BRANCH   3   5
DOCKED: ATOM      4  N   UNL     1      41.047  14.953 122.293 -0.47 -0.00    +0.000 N 
DOCKED: ATOM      5  C   UNL     1      39.668  15.312 122.173 -0.38 -0.00    +0.000 C 
DOCKED: ATOM      6  O   UNL     1      39.109  15.977 123.086 -0.33 -0.00    +0.000 OA
DOCKED: ATOM      7  H   UNL     1      41.482  14.441 121.573 -0.02 -0.00    +0.000 HD
DOCKED: BRANCH   4   8
DOCKED: ATOM      8  O   UNL     1      41.759  15.309 123.389 -1.05 +0.00    +0.000 OA
DOCKED: ATOM      9  H   UNL     1      41.191  15.811 123.993 -0.02 +0.00    +0.000 HD
DOCKED: ENDBRANCH   4   8
DOCKED: ENDBRANCH   3   5
DOCKED: ENDBRANCH   2   3
DOCKED: ENDBRANCH   1   2
DOCKED: BRANCH   1  10
DOCKED: ATOM     10  C   UNL     1      37.241  13.074 122.911 -0.58 -0.00    +0.000 C 
DOCKED: BRANCH  10  11
DOCKED: ATOM     11  C   UNL     1      36.804  11.726 123.521 -0.69 -0.00    +0.000 C 
DOCKED: BRANCH  11  12
DOCKED: ATOM     12  C   UNL     1      35.968  10.862 122.563 -0.67 -0.00    +0.000 C 
DOCKED: BRANCH  12  13
DOCKED: ATOM     13  C   UNL     1      36.598   9.525 122.305 -0.71 -0.00    +0.000 C 
DOCKED: ATOM     14  N   UNL     1      36.798   8.601 123.377 -0.65 -0.00    +0.000 N 
DOCKED: ATOM     15  O   UNL     1      36.924   9.206 121.130 -2.69 -0.00    +0.000 OA
DOCKED: ATOM     16  H   UNL     1      36.539   8.851 124.293 -0.37 -0.00    +0.000 HD
DOCKED: BRANCH  14  17
DOCKED: ATOM     17  O   UNL     1      37.341   7.382 123.143 -2.02 -0.00    +0.000 OA
DOCKED: ATOM     18  H   UNL     1      37.440   7.250 122.187 -0.16 -0.00    +0.000 HD
DOCKED: ENDBRANCH  14  17
DOCKED: ENDBRANCH  12  13
DOCKED: ENDBRANCH  11  12
DOCKED: ENDBRANCH  10  11
DOCKED: ENDBRANCH   1  10
DOCKED: TORSDOF 9
DOCKED: TER
DOCKED: ENDMDL
________________________________________________________________________________


	BEGINNING GENETIC ALGORITHM DOCKING 84 of 100
Run: 84 Seed: 1711462589 519948752 [ Run 84 of 100 GA/GALS ]
Beginning LAMARCKIAN GENETIC ALGORITHM (LGA), with a maximum of 2500000 energy evaluations.

Final-Value: -13.793


	FINAL GENETIC ALGORITHM DOCKED STATE
	_______________________________________________


Detailed state:  trans 38.246 12.719 122.098 quatxyzw 0.081352 0.568510 -0.452979 -0.681901 center 0.300 0.400 0.510 ntor 9 178.0470 1.2930 -120.6130 33.7281 10.4386 57.2201 -169.8305 175.6222 -19.7919
State:	 38.246  12.719 122.098   0.111  0.777 -0.619 -94.015    178.05    1.29 -120.61   33.73   10.44   57.22 -169.83  175.62  -19.79

DOCKED: MODEL       84
DOCKED: USER    Run = 84
DOCKED: USER    DPF = ligand_dock.biased.dpf
DOCKED: USER  
DOCKED: USER    Estimated Free Energy of Binding    =   -9.61 kcal/mol  [=(1)+(2)+(3)-(4)]
DOCKED: USER    Estimated Inhibition Constant, Ki   =   89.89 nM (nanomolar)  [Temperature = 298.15 K]
DOCKED: USER    
DOCKED: USER    (1) Final Intermolecular Energy     =  -12.30 kcal/mol
DOCKED: USER        vdW + Hbond + desolv Energy     =  -12.30 kcal/mol
DOCKED: USER        Electrostatic Energy            =   +0.00 kcal/mol
DOCKED: USER    (2) Final Total Internal Energy     =   -1.50 kcal/mol
DOCKED: USER    (3) Torsional Free Energy           =   +2.68 kcal/mol
DOCKED: USER    (4) Unbound System's Energy  [=(2)] =   -1.50 kcal/mol
DOCKED: USER    
DOCKED: USER    
DOCKED: USER    NEWDPF move ligand.pdbqt
DOCKED: USER    NEWDPF about 0.300000 0.400000 0.510000
DOCKED: USER    NEWDPF tran0 38.246380 12.718551 122.097955
DOCKED: USER    NEWDPF quaternion0 0.081352 0.568510 -0.452979 -0.681901
DOCKED: USER    NEWDPF axisangle0 0.111221 0.777243 -0.619293 -94.015287
DOCKED: USER    NEWDPF quat0 0.111221 0.777243 -0.619293 -94.015287
DOCKED: USER    NEWDPF dihe0 178.05 1.29 -120.61 33.73 10.44 57.22 -169.83 175.62 -19.79 
DOCKED: USER  keepresnum = 1 
DOCKED: USER  
DOCKED: REMARK  Name = 
DOCKED: REMARK  9 active torsions:
DOCKED: REMARK  status: ('A' for Active; 'I' for Inactive)
DOCKED: REMARK    1  A    between atoms: O_1  and  N_2
DOCKED: REMARK    2  A    between atoms: C_3  and  C_4
DOCKED: REMARK    3  A    between atoms: C_4  and  C_5
DOCKED: REMARK    4  A    between atoms: C_5  and  C_6
DOCKED: REMARK    5  A    between atoms: C_6  and  C_7
DOCKED: REMARK    6  A    between atoms: C_7  and  C_8
DOCKED: REMARK    7  A    between atoms: C_8  and  C_9
DOCKED: REMARK    8  A    between atoms: C_9  and  C_10
DOCKED: REMARK    9  A    between atoms: N_11  and  O_12
DOCKED: REMARK                            x       y       z     vdW  Elec       q    Type
DOCKED: REMARK                         _______ _______ _______ _____ _____    ______ ____
DOCKED: USER                              x       y       z     vdW  Elec       q    Type
DOCKED: USER                           _______ _______ _______ _____ _____    ______ ____
DOCKED: ROOT
DOCKED: ATOM      1  C   UNL     1      36.661  13.369 122.033 -0.40 -0.00    +0.000 C 
DOCKED: ENDROOT
DOCKED: BRANCH   1   2
DOCKED: ATOM      2  C   UNL     1      36.906  11.918 121.604 -0.57 -0.00    +0.000 C 
DOCKED: BRANCH   2   3
DOCKED: ATOM      3  C   UNL     1      36.273  10.938 122.595 -0.68 -0.00    +0.000 C 
DOCKED: BRANCH   3   5
DOCKED: ATOM      4  N   UNL     1      36.703   8.547 123.341 -0.66 -0.00    +0.000 N 
DOCKED: ATOM      5  C   UNL     1      36.720   9.536 122.307 -0.71 -0.00    +0.000 C 
DOCKED: ATOM      6  O   UNL     1      37.073   9.220 121.140 -2.73 -0.00    +0.000 OA
DOCKED: ATOM      7  H   UNL     1      36.417   8.797 124.250 -0.34 -0.00    +0.000 HD
DOCKED: BRANCH   4   8
DOCKED: ATOM      8  O   UNL     1      37.078   7.273 123.081 -2.09 -0.00    +0.000 OA
DOCKED: ATOM      9  H   UNL     1      37.300   7.187 122.141 -0.15 -0.00    +0.000 HD
DOCKED: ENDBRANCH   4   8
DOCKED: ENDBRANCH   3   5
DOCKED: ENDBRANCH   2   3
DOCKED: ENDBRANCH   1   2
DOCKED: BRANCH   1  10
DOCKED: ATOM     10  C   UNL     1      36.077  13.434 123.452 -0.59 -0.00    +0.000 C 
DOCKED: BRANCH  10  11
DOCKED: ATOM     11  C   UNL     1      36.312  14.802 124.124 -0.37 -0.00    +0.000 C 
DOCKED: BRANCH  11  12
DOCKED: ATOM     12  C   UNL     1      35.319  15.885 123.672 -0.49 -0.00    +0.000 C 
DOCKED: BRANCH  12  13
DOCKED: ATOM     13  C   UNL     1      34.612  16.527 124.828 -0.49 -0.00    +0.000 C 
DOCKED: ATOM     14  N   UNL     1      33.693  15.774 125.624 -0.46 -0.00    +0.000 N 
DOCKED: ATOM     15  O   UNL     1      34.852  17.731 125.116 -0.36 -0.00    +0.000 OA
DOCKED: ATOM     16  H   UNL     1      33.509  14.833 125.399 -0.11 -0.00    +0.000 HD
DOCKED: BRANCH  14  17
DOCKED: ATOM     17  O   UNL     1      33.073  16.342 126.686 -1.08 -0.00    +0.000 OA
DOCKED: ATOM     18  H   UNL     1      33.344  17.271 126.759 -0.02 -0.00    +0.000 HD
DOCKED: ENDBRANCH  14  17
DOCKED: ENDBRANCH  12  13
DOCKED: ENDBRANCH  11  12
DOCKED: ENDBRANCH  10  11
DOCKED: ENDBRANCH   1  10
DOCKED: TORSDOF 9
DOCKED: TER
DOCKED: ENDMDL
________________________________________________________________________________


	BEGINNING GENETIC ALGORITHM DOCKING 85 of 100
Run: 85 Seed: 1400563193 718305057 [ Run 85 of 100 GA/GALS ]
Beginning LAMARCKIAN GENETIC ALGORITHM (LGA), with a maximum of 2500000 energy evaluations.

Final-Value: -13.586


	FINAL GENETIC ALGORITHM DOCKED STATE
	_______________________________________________


Detailed state:  trans 38.276 14.480 123.308 quatxyzw -0.617502 -0.666048 -0.282049 0.309063 center 0.300 0.400 0.510 ntor 9 177.8934 2.4147 -101.7389 96.2291 -97.2622 168.2726 28.7586 -47.4560 -81.0755
State:	 38.276  14.480 123.308  -0.649 -0.700 -0.297 143.994    177.89    2.41 -101.74   96.23  -97.26  168.27   28.76  -47.46  -81.08

DOCKED: MODEL       85
DOCKED: USER    Run = 85
DOCKED: USER    DPF = ligand_dock.biased.dpf
DOCKED: USER  
DOCKED: USER    Estimated Free Energy of Binding    =   -9.26 kcal/mol  [=(1)+(2)+(3)-(4)]
DOCKED: USER    Estimated Inhibition Constant, Ki   =  162.58 nM (nanomolar)  [Temperature = 298.15 K]
DOCKED: USER    
DOCKED: USER    (1) Final Intermolecular Energy     =  -11.95 kcal/mol
DOCKED: USER        vdW + Hbond + desolv Energy     =  -11.95 kcal/mol
DOCKED: USER        Electrostatic Energy            =   +0.00 kcal/mol
DOCKED: USER    (2) Final Total Internal Energy     =   -1.64 kcal/mol
DOCKED: USER    (3) Torsional Free Energy           =   +2.68 kcal/mol
DOCKED: USER    (4) Unbound System's Energy  [=(2)] =   -1.64 kcal/mol
DOCKED: USER    
DOCKED: USER    
DOCKED: USER    NEWDPF move ligand.pdbqt
DOCKED: USER    NEWDPF about 0.300000 0.400000 0.510000
DOCKED: USER    NEWDPF tran0 38.276441 14.480275 123.307836
DOCKED: USER    NEWDPF quaternion0 -0.617502 -0.666048 -0.282049 0.309063
DOCKED: USER    NEWDPF axisangle0 -0.649290 -0.700335 -0.296569 143.994463
DOCKED: USER    NEWDPF quat0 -0.649290 -0.700335 -0.296569 143.994463
DOCKED: USER    NEWDPF dihe0 177.89 2.41 -101.74 96.23 -97.26 168.27 28.76 -47.46 -81.08 
DOCKED: USER  keepresnum = 1 
DOCKED: USER  
DOCKED: REMARK  Name = 
DOCKED: REMARK  9 active torsions:
DOCKED: REMARK  status: ('A' for Active; 'I' for Inactive)
DOCKED: REMARK    1  A    between atoms: O_1  and  N_2
DOCKED: REMARK    2  A    between atoms: C_3  and  C_4
DOCKED: REMARK    3  A    between atoms: C_4  and  C_5
DOCKED: REMARK    4  A    between atoms: C_5  and  C_6
DOCKED: REMARK    5  A    between atoms: C_6  and  C_7
DOCKED: REMARK    6  A    between atoms: C_7  and  C_8
DOCKED: REMARK    7  A    between atoms: C_8  and  C_9
DOCKED: REMARK    8  A    between atoms: C_9  and  C_10
DOCKED: REMARK    9  A    between atoms: N_11  and  O_12
DOCKED: REMARK                            x       y       z     vdW  Elec       q    Type
DOCKED: REMARK                         _______ _______ _______ _____ _____    ______ ____
DOCKED: USER                              x       y       z     vdW  Elec       q    Type
DOCKED: USER                           _______ _______ _______ _____ _____    ______ ____
DOCKED: ROOT
DOCKED: ATOM      1  C   UNL     1      36.644  14.237 123.773 -0.46 -0.00    +0.000 C 
DOCKED: ENDROOT
DOCKED: BRANCH   1   2
DOCKED: ATOM      2  C   UNL     1      36.986  15.302 122.725 -0.38 -0.00    +0.000 C 
DOCKED: BRANCH   2   3
DOCKED: ATOM      3  C   UNL     1      38.111  16.216 123.217 -0.29 -0.00    +0.000 C 
DOCKED: BRANCH   3   5
DOCKED: ATOM      4  N   UNL     1      40.649  16.301 123.265 -0.30 -0.00    +0.000 N 
DOCKED: ATOM      5  C   UNL     1      39.447  15.578 122.985 -0.19 -0.00    +0.000 C 
DOCKED: ATOM      6  O   UNL     1      39.509  14.387 122.579 -0.83 -0.00    +0.000 OA
DOCKED: ATOM      7  H   UNL     1      40.596  17.228 123.590 -0.01 -0.00    +0.000 HD
DOCKED: BRANCH   4   8
DOCKED: ATOM      8  O   UNL     1      41.859  15.721 123.084 -1.09 +0.00    +0.000 OA
DOCKED: ATOM      9  H   UNL     1      41.737  14.804 122.793 -0.05 -0.00    +0.000 HD
DOCKED: ENDBRANCH   4   8
DOCKED: ENDBRANCH   3   5
DOCKED: ENDBRANCH   2   3
DOCKED: ENDBRANCH   1   2
DOCKED: BRANCH   1  10
DOCKED: ATOM     10  C   UNL     1      36.108  12.960 123.108 -0.57 -0.00    +0.000 C 
DOCKED: BRANCH  10  11
DOCKED: ATOM     11  C   UNL     1      37.204  11.891 122.918 -0.58 -0.00    +0.000 C 
DOCKED: BRANCH  11  12
DOCKED: ATOM     12  C   UNL     1      37.063  11.096 121.610 -0.53 -0.00    +0.000 C 
DOCKED: BRANCH  12  13
DOCKED: ATOM     13  C   UNL     1      36.971   9.618 121.850 -0.60 -0.00    +0.000 C 
DOCKED: ATOM     14  N   UNL     1      37.113   9.088 123.171 -0.62 -0.00    +0.000 N 
DOCKED: ATOM     15  O   UNL     1      36.737   8.843 120.884 -2.63 -0.00    +0.000 OA
DOCKED: ATOM     16  H   UNL     1      37.292   9.696 123.924 -0.47 -0.00    +0.000 HD
DOCKED: BRANCH  14  17
DOCKED: ATOM     17  O   UNL     1      37.002   7.757 123.395 -2.26 -0.00    +0.000 OA
DOCKED: ATOM     18  H   UNL     1      36.865   7.298 122.552 -0.06 -0.00    +0.000 HD
DOCKED: ENDBRANCH  14  17
DOCKED: ENDBRANCH  12  13
DOCKED: ENDBRANCH  11  12
DOCKED: ENDBRANCH  10  11
DOCKED: ENDBRANCH   1  10
DOCKED: TORSDOF 9
DOCKED: TER
DOCKED: ENDMDL
________________________________________________________________________________


	BEGINNING GENETIC ALGORITHM DOCKING 86 of 100
Run: 86 Seed: 262701314 954849302 [ Run 86 of 100 GA/GALS ]
Beginning LAMARCKIAN GENETIC ALGORITHM (LGA), with a maximum of 2500000 energy evaluations.

Final-Value: -13.231


	FINAL GENETIC ALGORITHM DOCKED STATE
	_______________________________________________


Detailed state:  trans 37.315 14.602 120.614 quatxyzw -0.499123 -0.756274 0.077347 -0.415865 center 0.300 0.400 0.510 ntor 9 -179.9274 6.4866 -179.4283 179.7954 20.0924 -9.7324 -58.4584 -99.7331 148.1697
State:	 37.315  14.602 120.614  -0.549 -0.832  0.085 -130.852   -179.93    6.49 -179.43  179.80   20.09   -9.73  -58.46  -99.73  148.17

DOCKED: MODEL       86
DOCKED: USER    Run = 86
DOCKED: USER    DPF = ligand_dock.biased.dpf
DOCKED: USER  
DOCKED: USER    Estimated Free Energy of Binding    =   -8.90 kcal/mol  [=(1)+(2)+(3)-(4)]
DOCKED: USER    Estimated Inhibition Constant, Ki   =  297.94 nM (nanomolar)  [Temperature = 298.15 K]
DOCKED: USER    
DOCKED: USER    (1) Final Intermolecular Energy     =  -11.59 kcal/mol
DOCKED: USER        vdW + Hbond + desolv Energy     =  -11.59 kcal/mol
DOCKED: USER        Electrostatic Energy            =   +0.00 kcal/mol
DOCKED: USER    (2) Final Total Internal Energy     =   -1.64 kcal/mol
DOCKED: USER    (3) Torsional Free Energy           =   +2.68 kcal/mol
DOCKED: USER    (4) Unbound System's Energy  [=(2)] =   -1.64 kcal/mol
DOCKED: USER    
DOCKED: USER    
DOCKED: USER    NEWDPF move ligand.pdbqt
DOCKED: USER    NEWDPF about 0.300000 0.400000 0.510000
DOCKED: USER    NEWDPF tran0 37.315304 14.601891 120.614215
DOCKED: USER    NEWDPF quaternion0 -0.499123 -0.756274 0.077347 -0.415865
DOCKED: USER    NEWDPF axisangle0 -0.548832 -0.831595 0.085050 -130.852423
DOCKED: USER    NEWDPF quat0 -0.548832 -0.831595 0.085050 -130.852423
DOCKED: USER    NEWDPF dihe0 -179.93 6.49 -179.43 179.80 20.09 -9.73 -58.46 -99.73 148.17 
DOCKED: USER  keepresnum = 1 
DOCKED: USER  
DOCKED: REMARK  Name = 
DOCKED: REMARK  9 active torsions:
DOCKED: REMARK  status: ('A' for Active; 'I' for Inactive)
DOCKED: REMARK    1  A    between atoms: O_1  and  N_2
DOCKED: REMARK    2  A    between atoms: C_3  and  C_4
DOCKED: REMARK    3  A    between atoms: C_4  and  C_5
DOCKED: REMARK    4  A    between atoms: C_5  and  C_6
DOCKED: REMARK    5  A    between atoms: C_6  and  C_7
DOCKED: REMARK    6  A    between atoms: C_7  and  C_8
DOCKED: REMARK    7  A    between atoms: C_8  and  C_9
DOCKED: REMARK    8  A    between atoms: C_9  and  C_10
DOCKED: REMARK    9  A    between atoms: N_11  and  O_12
DOCKED: REMARK                            x       y       z     vdW  Elec       q    Type
DOCKED: REMARK                         _______ _______ _______ _____ _____    ______ ____
DOCKED: USER                              x       y       z     vdW  Elec       q    Type
DOCKED: USER                           _______ _______ _______ _____ _____    ______ ____
DOCKED: ROOT
DOCKED: ATOM      1  C   UNL     1      37.934  13.626 121.882 -0.46 -0.00    +0.000 C 
DOCKED: ENDROOT
DOCKED: BRANCH   1   2
DOCKED: ATOM      2  C   UNL     1      36.763  14.577 122.155 -0.34 -0.00    +0.000 C 
DOCKED: BRANCH   2   3
DOCKED: ATOM      3  C   UNL     1      36.944  15.302 123.492 -0.40 -0.00    +0.000 C 
DOCKED: BRANCH   3   5
DOCKED: ATOM      4  N   UNL     1      34.864  15.105 124.936 -0.46 -0.00    +0.000 N 
DOCKED: ATOM      5  C   UNL     1      35.633  15.840 123.980 -0.46 -0.00    +0.000 C 
DOCKED: ATOM      6  O   UNL     1      35.228  16.962 123.576 -0.37 -0.00    +0.000 OA
DOCKED: ATOM      7  H   UNL     1      35.189  14.232 125.256 -0.05 -0.00    +0.000 HD
DOCKED: BRANCH   4   8
DOCKED: ATOM      8  O   UNL     1      33.692  15.598 125.403 -0.79 -0.00    +0.000 OA
DOCKED: ATOM      9  H   UNL     1      33.516  16.457 124.990 -0.02 -0.00    +0.000 HD
DOCKED: ENDBRANCH   4   8
DOCKED: ENDBRANCH   3   5
DOCKED: ENDBRANCH   2   3
DOCKED: ENDBRANCH   1   2
DOCKED: BRANCH   1  10
DOCKED: ATOM     10  C   UNL     1      37.442  12.182 121.701 -0.50 -0.00    +0.000 C 
DOCKED: BRANCH  10  11
DOCKED: ATOM     11  C   UNL     1      36.221  11.861 122.588 -0.63 -0.00    +0.000 C 
DOCKED: BRANCH  11  12
DOCKED: ATOM     12  C   UNL     1      35.480  10.581 122.169 -0.52 -0.00    +0.000 C 
DOCKED: BRANCH  12  13
DOCKED: ATOM     13  C   UNL     1      36.370   9.374 122.195 -0.70 -0.00    +0.000 C 
DOCKED: ATOM     14  N   UNL     1      36.672   8.724 123.433 -0.61 -0.00    +0.000 N 
DOCKED: ATOM     15  O   UNL     1      36.829   8.914 121.115 -2.65 -0.00    +0.000 OA
DOCKED: ATOM     16  H   UNL     1      36.309   9.083 124.275 -0.29 -0.00    +0.000 HD
DOCKED: BRANCH  14  17
DOCKED: ATOM     17  O   UNL     1      37.452   7.617 123.458 -2.11 -0.00    +0.000 OA
DOCKED: ATOM     18  H   UNL     1      37.809   7.454 122.571 -0.23 -0.00    +0.000 HD
DOCKED: ENDBRANCH  14  17
DOCKED: ENDBRANCH  12  13
DOCKED: ENDBRANCH  11  12
DOCKED: ENDBRANCH  10  11
DOCKED: ENDBRANCH   1  10
DOCKED: TORSDOF 9
DOCKED: TER
DOCKED: ENDMDL
________________________________________________________________________________


	BEGINNING GENETIC ALGORITHM DOCKING 87 of 100
Run: 87 Seed: 1408826581 756685855 [ Run 87 of 100 GA/GALS ]
Beginning LAMARCKIAN GENETIC ALGORITHM (LGA), with a maximum of 2500000 energy evaluations.

Final-Value: -13.520


	FINAL GENETIC ALGORITHM DOCKED STATE
	_______________________________________________


Detailed state:  trans 37.288 14.028 120.933 quatxyzw -0.820134 -0.481763 0.197225 -0.237459 center 0.300 0.400 0.510 ntor 9 -179.8661 -10.9959 -169.8314 131.5584 91.5898 92.5556 -111.1142 13.9048 -17.7962
State:	 37.288  14.028 120.933  -0.844 -0.496  0.203 -152.527   -179.87  -11.00 -169.83  131.56   91.59   92.56 -111.11   13.90  -17.80

DOCKED: MODEL       87
DOCKED: USER    Run = 87
DOCKED: USER    DPF = ligand_dock.biased.dpf
DOCKED: USER  
DOCKED: USER    Estimated Free Energy of Binding    =   -9.26 kcal/mol  [=(1)+(2)+(3)-(4)]
DOCKED: USER    Estimated Inhibition Constant, Ki   =  163.37 nM (nanomolar)  [Temperature = 298.15 K]
DOCKED: USER    
DOCKED: USER    (1) Final Intermolecular Energy     =  -11.94 kcal/mol
DOCKED: USER        vdW + Hbond + desolv Energy     =  -11.94 kcal/mol
DOCKED: USER        Electrostatic Energy            =   +0.00 kcal/mol
DOCKED: USER    (2) Final Total Internal Energy     =   -1.58 kcal/mol
DOCKED: USER    (3) Torsional Free Energy           =   +2.68 kcal/mol
DOCKED: USER    (4) Unbound System's Energy  [=(2)] =   -1.58 kcal/mol
DOCKED: USER    
DOCKED: USER    
DOCKED: USER    NEWDPF move ligand.pdbqt
DOCKED: USER    NEWDPF about 0.300000 0.400000 0.510000
DOCKED: USER    NEWDPF tran0 37.288215 14.028432 120.932921
DOCKED: USER    NEWDPF quaternion0 -0.820134 -0.481763 0.197225 -0.237459
DOCKED: USER    NEWDPF axisangle0 -0.844282 -0.495949 0.203033 -152.526743
DOCKED: USER    NEWDPF quat0 -0.844282 -0.495949 0.203033 -152.526743
DOCKED: USER    NEWDPF dihe0 -179.87 -11.00 -169.83 131.56 91.59 92.56 -111.11 13.90 -17.80 
DOCKED: USER  keepresnum = 1 
DOCKED: USER  
DOCKED: REMARK  Name = 
DOCKED: REMARK  9 active torsions:
DOCKED: REMARK  status: ('A' for Active; 'I' for Inactive)
DOCKED: REMARK    1  A    between atoms: O_1  and  N_2
DOCKED: REMARK    2  A    between atoms: C_3  and  C_4
DOCKED: REMARK    3  A    between atoms: C_4  and  C_5
DOCKED: REMARK    4  A    between atoms: C_5  and  C_6
DOCKED: REMARK    5  A    between atoms: C_6  and  C_7
DOCKED: REMARK    6  A    between atoms: C_7  and  C_8
DOCKED: REMARK    7  A    between atoms: C_8  and  C_9
DOCKED: REMARK    8  A    between atoms: C_9  and  C_10
DOCKED: REMARK    9  A    between atoms: N_11  and  O_12
DOCKED: REMARK                            x       y       z     vdW  Elec       q    Type
DOCKED: REMARK                         _______ _______ _______ _____ _____    ______ ____
DOCKED: USER                              x       y       z     vdW  Elec       q    Type
DOCKED: USER                           _______ _______ _______ _____ _____    ______ ____
DOCKED: ROOT
DOCKED: ATOM      1  C   UNL     1      37.545  13.854 122.620 -0.50 -0.00    +0.000 C 
DOCKED: ENDROOT
DOCKED: BRANCH   1   2
DOCKED: ATOM      2  C   UNL     1      37.197  15.231 122.041 -0.33 -0.00    +0.000 C 
DOCKED: BRANCH   2   3
DOCKED: ATOM      3  C   UNL     1      36.890  16.234 123.156 -0.32 -0.00    +0.000 C 
DOCKED: BRANCH   3   5
DOCKED: ATOM      4  N   UNL     1      35.007  15.595 124.737 -0.49 -0.00    +0.000 N 
DOCKED: ATOM      5  C   UNL     1      35.434  16.196 123.511 -0.44 -0.00    +0.000 C 
DOCKED: ATOM      6  O   UNL     1      34.590  16.731 122.745 -0.44 -0.00    +0.000 OA
DOCKED: ATOM      7  H   UNL     1      35.672  15.186 125.337 -0.02 -0.00    +0.000 HD
DOCKED: BRANCH   4   8
DOCKED: ATOM      8  O   UNL     1      33.697  15.582 125.078 -0.71 -0.00    +0.000 OA
DOCKED: ATOM      9  H   UNL     1      33.178  16.018 124.384 +0.01 -0.00    +0.000 HD
DOCKED: ENDBRANCH   4   8
DOCKED: ENDBRANCH   3   5
DOCKED: ENDBRANCH   2   3
DOCKED: ENDBRANCH   1   2
DOCKED: BRANCH   1  10
DOCKED: ATOM     10  C   UNL     1      36.312  13.197 123.258 -0.60 -0.00    +0.000 C 
DOCKED: BRANCH  10  11
DOCKED: ATOM     11  C   UNL     1      36.468  11.669 123.405 -0.70 -0.00    +0.000 C 
DOCKED: BRANCH  11  12
DOCKED: ATOM     12  C   UNL     1      36.153  10.895 122.115 -0.61 -0.00    +0.000 C 
DOCKED: BRANCH  12  13
DOCKED: ATOM     13  C   UNL     1      36.735   9.513 122.124 -0.69 -0.00    +0.000 C 
DOCKED: ATOM     14  N   UNL     1      36.888   8.800 123.354 -0.63 -0.00    +0.000 N 
DOCKED: ATOM     15  O   UNL     1      37.062   8.967 121.036 -2.71 -0.00    +0.000 OA
DOCKED: ATOM     16  H   UNL     1      36.628   9.227 124.202 -0.46 -0.00    +0.000 HD
DOCKED: BRANCH  14  17
DOCKED: ATOM     17  O   UNL     1      37.387   7.540 123.363 -2.10 -0.00    +0.000 OA
DOCKED: ATOM     18  H   UNL     1      37.429   7.203 122.455 -0.19 -0.00    +0.000 HD
DOCKED: ENDBRANCH  14  17
DOCKED: ENDBRANCH  12  13
DOCKED: ENDBRANCH  11  12
DOCKED: ENDBRANCH  10  11
DOCKED: ENDBRANCH   1  10
DOCKED: TORSDOF 9
DOCKED: TER
DOCKED: ENDMDL
________________________________________________________________________________


	BEGINNING GENETIC ALGORITHM DOCKING 88 of 100
Run: 88 Seed: 1974632319 647569536 [ Run 88 of 100 GA/GALS ]
Beginning LAMARCKIAN GENETIC ALGORITHM (LGA), with a maximum of 2500000 energy evaluations.

Final-Value: -14.577


	FINAL GENETIC ALGORITHM DOCKED STATE
	_______________________________________________


Detailed state:  trans 35.455 14.499 123.896 quatxyzw -0.154979 -0.063645 0.716921 -0.676724 center 0.300 0.400 0.510 ntor 9 179.9984 9.3045 179.9174 116.5955 -96.5110 65.5790 21.9558 170.8309 -49.8848
State:	 35.455  14.499 123.896  -0.211 -0.086  0.974 -94.824    180.00    9.30  179.92  116.60  -96.51   65.58   21.96  170.83  -49.88

DOCKED: MODEL       88
DOCKED: USER    Run = 88
DOCKED: USER    DPF = ligand_dock.biased.dpf
DOCKED: USER  
DOCKED: USER    Estimated Free Energy of Binding    =  -10.34 kcal/mol  [=(1)+(2)+(3)-(4)]
DOCKED: USER    Estimated Inhibition Constant, Ki   =   26.34 nM (nanomolar)  [Temperature = 298.15 K]
DOCKED: USER    
DOCKED: USER    (1) Final Intermolecular Energy     =  -13.02 kcal/mol
DOCKED: USER        vdW + Hbond + desolv Energy     =  -13.02 kcal/mol
DOCKED: USER        Electrostatic Energy            =   +0.00 kcal/mol
DOCKED: USER    (2) Final Total Internal Energy     =   -1.55 kcal/mol
DOCKED: USER    (3) Torsional Free Energy           =   +2.68 kcal/mol
DOCKED: USER    (4) Unbound System's Energy  [=(2)] =   -1.55 kcal/mol
DOCKED: USER    
DOCKED: USER    
DOCKED: USER    NEWDPF move ligand.pdbqt
DOCKED: USER    NEWDPF about 0.300000 0.400000 0.510000
DOCKED: USER    NEWDPF tran0 35.454965 14.499339 123.895996
DOCKED: USER    NEWDPF quaternion0 -0.154979 -0.063645 0.716921 -0.676724
DOCKED: USER    NEWDPF axisangle0 -0.210502 -0.086446 0.973764 -94.823663
DOCKED: USER    NEWDPF quat0 -0.210502 -0.086446 0.973764 -94.823663
DOCKED: USER    NEWDPF dihe0 180.00 9.30 179.92 116.60 -96.51 65.58 21.96 170.83 -49.88 
DOCKED: USER  keepresnum = 1 
DOCKED: USER  
DOCKED: REMARK  Name = 
DOCKED: REMARK  9 active torsions:
DOCKED: REMARK  status: ('A' for Active; 'I' for Inactive)
DOCKED: REMARK    1  A    between atoms: O_1  and  N_2
DOCKED: REMARK    2  A    between atoms: C_3  and  C_4
DOCKED: REMARK    3  A    between atoms: C_4  and  C_5
DOCKED: REMARK    4  A    between atoms: C_5  and  C_6
DOCKED: REMARK    5  A    between atoms: C_6  and  C_7
DOCKED: REMARK    6  A    between atoms: C_7  and  C_8
DOCKED: REMARK    7  A    between atoms: C_8  and  C_9
DOCKED: REMARK    8  A    between atoms: C_9  and  C_10
DOCKED: REMARK    9  A    between atoms: N_11  and  O_12
DOCKED: REMARK                            x       y       z     vdW  Elec       q    Type
DOCKED: REMARK                         _______ _______ _______ _____ _____    ______ ____
DOCKED: USER                              x       y       z     vdW  Elec       q    Type
DOCKED: USER                           _______ _______ _______ _____ _____    ______ ____
DOCKED: ROOT
DOCKED: ATOM      1  C   UNL     1      36.627  14.178 122.685 -0.46 -0.00    +0.000 C 
DOCKED: ENDROOT
DOCKED: BRANCH   1   2
DOCKED: ATOM      2  C   UNL     1      36.763  15.427 123.564 -0.39 -0.00    +0.000 C 
DOCKED: BRANCH   2   3
DOCKED: ATOM      3  C   UNL     1      35.514  16.307 123.465 -0.42 -0.00    +0.000 C 
DOCKED: BRANCH   3   5
DOCKED: ATOM      4  N   UNL     1      34.287  16.394 125.688 -0.44 -0.00    +0.000 N 
DOCKED: ATOM      5  C   UNL     1      34.446  15.810 124.392 -0.59 -0.00    +0.000 C 
DOCKED: ATOM      6  O   UNL     1      33.661  14.902 124.010 -0.68 -0.00    +0.000 OA
DOCKED: ATOM      7  H   UNL     1      34.897  17.110 125.978 -0.02 -0.00    +0.000 HD
DOCKED: BRANCH   4   8
DOCKED: ATOM      8  O   UNL     1      33.306  15.970 126.518 -1.10 -0.00    +0.000 OA
DOCKED: ATOM      9  H   UNL     1      32.798  15.266 126.086 -0.21 -0.00    +0.000 HD
DOCKED: ENDBRANCH   4   8
DOCKED: ENDBRANCH   3   5
DOCKED: ENDBRANCH   2   3
DOCKED: ENDBRANCH   1   2
DOCKED: BRANCH   1  10
DOCKED: ATOM     10  C   UNL     1      37.564  13.060 123.167 -0.55 -0.00    +0.000 C 
DOCKED: BRANCH  10  11
DOCKED: ATOM     11  C   UNL     1      36.824  11.724 123.384 -0.69 -0.00    +0.000 C 
DOCKED: BRANCH  11  12
DOCKED: ATOM     12  C   UNL     1      36.469  11.001 122.075 -0.63 -0.00    +0.000 C 
DOCKED: BRANCH  12  13
DOCKED: ATOM     13  C   UNL     1      36.809   9.540 122.121 -0.67 -0.00    +0.000 C 
DOCKED: ATOM     14  N   UNL     1      37.072   8.897 123.371 -0.62 -0.00    +0.000 N 
DOCKED: ATOM     15  O   UNL     1      36.833   8.872 121.052 -2.65 -0.00    +0.000 OA
DOCKED: ATOM     16  H   UNL     1      37.049   9.420 124.204 -0.57 -0.00    +0.000 HD
DOCKED: BRANCH  14  17
DOCKED: ATOM     17  O   UNL     1      37.351   7.572 123.419 -2.13 -0.00    +0.000 OA
DOCKED: ATOM     18  H   UNL     1      37.480   7.237 122.518 -0.21 -0.00    +0.000 HD
DOCKED: ENDBRANCH  14  17
DOCKED: ENDBRANCH  12  13
DOCKED: ENDBRANCH  11  12
DOCKED: ENDBRANCH  10  11
DOCKED: ENDBRANCH   1  10
DOCKED: TORSDOF 9
DOCKED: TER
DOCKED: ENDMDL
________________________________________________________________________________


	BEGINNING GENETIC ALGORITHM DOCKING 89 of 100
Run: 89 Seed: 2065223287 236494511 [ Run 89 of 100 GA/GALS ]
Beginning LAMARCKIAN GENETIC ALGORITHM (LGA), with a maximum of 2500000 energy evaluations.

Final-Value: -13.346


	FINAL GENETIC ALGORITHM DOCKED STATE
	_______________________________________________


Detailed state:  trans 36.648 14.513 123.123 quatxyzw 0.153099 -0.037219 -0.421934 0.892831 center 0.300 0.400 0.510 ntor 9 -174.7602 -19.9539 176.4881 -172.6630 177.8760 -25.5597 64.3908 -133.8994 -60.2708
State:	 36.648  14.513 123.123   0.340 -0.083 -0.937 53.538   -174.76  -19.95  176.49 -172.66  177.88  -25.56   64.39 -133.90  -60.27

DOCKED: MODEL       89
DOCKED: USER    Run = 89
DOCKED: USER    DPF = ligand_dock.biased.dpf
DOCKED: USER  
DOCKED: USER    Estimated Free Energy of Binding    =   -8.89 kcal/mol  [=(1)+(2)+(3)-(4)]
DOCKED: USER    Estimated Inhibition Constant, Ki   =  305.68 nM (nanomolar)  [Temperature = 298.15 K]
DOCKED: USER    
DOCKED: USER    (1) Final Intermolecular Energy     =  -11.57 kcal/mol
DOCKED: USER        vdW + Hbond + desolv Energy     =  -11.57 kcal/mol
DOCKED: USER        Electrostatic Energy            =   +0.00 kcal/mol
DOCKED: USER    (2) Final Total Internal Energy     =   -1.77 kcal/mol
DOCKED: USER    (3) Torsional Free Energy           =   +2.68 kcal/mol
DOCKED: USER    (4) Unbound System's Energy  [=(2)] =   -1.77 kcal/mol
DOCKED: USER    
DOCKED: USER    
DOCKED: USER    NEWDPF move ligand.pdbqt
DOCKED: USER    NEWDPF about 0.300000 0.400000 0.510000
DOCKED: USER    NEWDPF tran0 36.648035 14.513002 123.122686
DOCKED: USER    NEWDPF quaternion0 0.153099 -0.037219 -0.421934 0.892831
DOCKED: USER    NEWDPF axisangle0 0.339923 -0.082637 -0.936816 53.537656
DOCKED: USER    NEWDPF quat0 0.339923 -0.082637 -0.936816 53.537656
DOCKED: USER    NEWDPF dihe0 -174.76 -19.95 176.49 -172.66 177.88 -25.56 64.39 -133.90 -60.27 
DOCKED: USER  keepresnum = 1 
DOCKED: USER  
DOCKED: REMARK  Name = 
DOCKED: REMARK  9 active torsions:
DOCKED: REMARK  status: ('A' for Active; 'I' for Inactive)
DOCKED: REMARK    1  A    between atoms: O_1  and  N_2
DOCKED: REMARK    2  A    between atoms: C_3  and  C_4
DOCKED: REMARK    3  A    between atoms: C_4  and  C_5
DOCKED: REMARK    4  A    between atoms: C_5  and  C_6
DOCKED: REMARK    5  A    between atoms: C_6  and  C_7
DOCKED: REMARK    6  A    between atoms: C_7  and  C_8
DOCKED: REMARK    7  A    between atoms: C_8  and  C_9
DOCKED: REMARK    8  A    between atoms: C_9  and  C_10
DOCKED: REMARK    9  A    between atoms: N_11  and  O_12
DOCKED: REMARK                            x       y       z     vdW  Elec       q    Type
DOCKED: REMARK                         _______ _______ _______ _____ _____    ______ ____
DOCKED: USER                              x       y       z     vdW  Elec       q    Type
DOCKED: USER                           _______ _______ _______ _____ _____    ______ ____
DOCKED: ROOT
DOCKED: ATOM      1  C   UNL     1      37.174  13.465 121.871 -0.47 -0.00    +0.000 C 
DOCKED: ENDROOT
DOCKED: BRANCH   1   2
DOCKED: ATOM      2  C   UNL     1      38.202  14.283 122.660 -0.47 -0.00    +0.000 C 
DOCKED: BRANCH   2   3
DOCKED: ATOM      3  C   UNL     1      37.521  15.396 123.461 -0.35 -0.00    +0.000 C 
DOCKED: BRANCH   3   5
DOCKED: ATOM      4  N   UNL     1      35.155  14.680 124.049 -0.56 -0.00    +0.000 N 
DOCKED: ATOM      5  C   UNL     1      36.046  15.407 123.197 -0.43 -0.00    +0.000 C 
DOCKED: ATOM      6  O   UNL     1      35.586  16.092 122.245 -0.31 -0.00    +0.000 OA
DOCKED: ATOM      7  H   UNL     1      35.518  14.153 124.797 -0.05 -0.00    +0.000 HD
DOCKED: BRANCH   4   8
DOCKED: ATOM      8  O   UNL     1      33.819  14.709 123.833 -0.65 -0.00    +0.000 OA
DOCKED: ATOM      9  H   UNL     1      33.634  15.198 123.016 -0.06 -0.00    +0.000 HD
DOCKED: ENDBRANCH   4   8
DOCKED: ENDBRANCH   3   5
DOCKED: ENDBRANCH   2   3
DOCKED: ENDBRANCH   1   2
DOCKED: BRANCH   1  10
DOCKED: ATOM     10  C   UNL     1      37.126  12.012 122.368 -0.58 -0.00    +0.000 C 
DOCKED: BRANCH  10  11
DOCKED: ATOM     11  C   UNL     1      35.747  11.634 122.949 -0.60 -0.00    +0.000 C 
DOCKED: BRANCH  11  12
DOCKED: ATOM     12  C   UNL     1      35.185  10.319 122.385 -0.61 -0.00    +0.000 C 
DOCKED: BRANCH  12  13
DOCKED: ATOM     13  C   UNL     1      36.231   9.248 122.287 -0.71 -0.00    +0.000 C 
DOCKED: ATOM     14  N   UNL     1      36.511   8.405 123.407 -0.65 -0.00    +0.000 N 
DOCKED: ATOM     15  O   UNL     1      36.844   9.073 121.199 -2.66 -0.00    +0.000 OA
DOCKED: ATOM     16  H   UNL     1      36.029   8.541 124.254 -0.19 -0.00    +0.000 HD
DOCKED: BRANCH  14  17
DOCKED: ATOM     17  O   UNL     1      37.435   7.419 123.314 -2.00 -0.00    +0.000 OA
DOCKED: ATOM     18  H   UNL     1      37.585   7.204 122.380 -0.21 -0.00    +0.000 HD
DOCKED: ENDBRANCH  14  17
DOCKED: ENDBRANCH  12  13
DOCKED: ENDBRANCH  11  12
DOCKED: ENDBRANCH  10  11
DOCKED: ENDBRANCH   1  10
DOCKED: TORSDOF 9
DOCKED: TER
DOCKED: ENDMDL
________________________________________________________________________________


	BEGINNING GENETIC ALGORITHM DOCKING 90 of 100
Run: 90 Seed: 727160616 519001297 [ Run 90 of 100 GA/GALS ]
Beginning LAMARCKIAN GENETIC ALGORITHM (LGA), with a maximum of 2500000 energy evaluations.

Final-Value: -12.561


	FINAL GENETIC ALGORITHM DOCKED STATE
	_______________________________________________


Detailed state:  trans 36.156 9.941 123.114 quatxyzw -0.293932 -0.216888 0.914026 0.176409 center 0.300 0.400 0.510 ntor 9 144.1984 9.4281 -178.6657 -179.9691 -169.5546 12.9841 41.2585 38.4972 79.4144
State:	 36.156   9.941 123.114  -0.299 -0.220  0.929 159.679    144.20    9.43 -178.67 -179.97 -169.55   12.98   41.26   38.50   79.41

DOCKED: MODEL       90
DOCKED: USER    Run = 90
DOCKED: USER    DPF = ligand_dock.biased.dpf
DOCKED: USER  
DOCKED: USER    Estimated Free Energy of Binding    =   -8.34 kcal/mol  [=(1)+(2)+(3)-(4)]
DOCKED: USER    Estimated Inhibition Constant, Ki   =  769.34 nM (nanomolar)  [Temperature = 298.15 K]
DOCKED: USER    
DOCKED: USER    (1) Final Intermolecular Energy     =  -11.03 kcal/mol
DOCKED: USER        vdW + Hbond + desolv Energy     =  -11.03 kcal/mol
DOCKED: USER        Electrostatic Energy            =   +0.00 kcal/mol
DOCKED: USER    (2) Final Total Internal Energy     =   -1.54 kcal/mol
DOCKED: USER    (3) Torsional Free Energy           =   +2.68 kcal/mol
DOCKED: USER    (4) Unbound System's Energy  [=(2)] =   -1.54 kcal/mol
DOCKED: USER    
DOCKED: USER    
DOCKED: USER    NEWDPF move ligand.pdbqt
DOCKED: USER    NEWDPF about 0.300000 0.400000 0.510000
DOCKED: USER    NEWDPF tran0 36.156221 9.941407 123.113734
DOCKED: USER    NEWDPF quaternion0 -0.293932 -0.216888 0.914026 0.176409
DOCKED: USER    NEWDPF axisangle0 -0.298615 -0.220343 0.928589 159.678620
DOCKED: USER    NEWDPF quat0 -0.298615 -0.220343 0.928589 159.678620
DOCKED: USER    NEWDPF dihe0 144.20 9.43 -178.67 -179.97 -169.55 12.98 41.26 38.50 79.41 
DOCKED: USER  keepresnum = 1 
DOCKED: USER  
DOCKED: REMARK  Name = 
DOCKED: REMARK  9 active torsions:
DOCKED: REMARK  status: ('A' for Active; 'I' for Inactive)
DOCKED: REMARK    1  A    between atoms: O_1  and  N_2
DOCKED: REMARK    2  A    between atoms: C_3  and  C_4
DOCKED: REMARK    3  A    between atoms: C_4  and  C_5
DOCKED: REMARK    4  A    between atoms: C_5  and  C_6
DOCKED: REMARK    5  A    between atoms: C_6  and  C_7
DOCKED: REMARK    6  A    between atoms: C_7  and  C_8
DOCKED: REMARK    7  A    between atoms: C_8  and  C_9
DOCKED: REMARK    8  A    between atoms: C_9  and  C_10
DOCKED: REMARK    9  A    between atoms: N_11  and  O_12
DOCKED: REMARK                            x       y       z     vdW  Elec       q    Type
DOCKED: REMARK                         _______ _______ _______ _____ _____    ______ ____
DOCKED: USER                              x       y       z     vdW  Elec       q    Type
DOCKED: USER                           _______ _______ _______ _____ _____    ______ ____
DOCKED: ROOT
DOCKED: ATOM      1  C   UNL     1      36.690  11.363 122.316 -0.64 -0.00    +0.000 C 
DOCKED: ENDROOT
DOCKED: BRANCH   1   2
DOCKED: ATOM      2  C   UNL     1      35.189  11.091 122.462 -0.37 -0.00    +0.000 C 
DOCKED: BRANCH   2   3
DOCKED: ATOM      3  C   UNL     1      34.882   9.600 122.297 -0.62 -0.00    +0.000 C 
DOCKED: BRANCH   3   5
DOCKED: ATOM      4  N   UNL     1      36.607   8.153 123.474 -0.69 -0.00    +0.000 N 
DOCKED: ATOM      5  C   UNL     1      36.150   8.800 122.283 -0.73 -0.00    +0.000 C 
DOCKED: ATOM      6  O   UNL     1      36.792   8.666 121.208 -2.45 -0.00    +0.000 OA
DOCKED: ATOM      7  H   UNL     1      36.096   8.253 124.310 -0.17 -0.00    +0.000 HD
DOCKED: BRANCH   4   8
DOCKED: ATOM      8  O   UNL     1      37.735   7.405 123.462 -1.57 -0.00    +0.000 OA
DOCKED: ATOM      9  H   UNL     1      37.807   6.942 122.613 -0.49 -0.00    +0.000 HD
DOCKED: ENDBRANCH   4   8
DOCKED: ENDBRANCH   3   5
DOCKED: ENDBRANCH   2   3
DOCKED: ENDBRANCH   1   2
DOCKED: BRANCH   1  10
DOCKED: ATOM     10  C   UNL     1      37.170  12.384 123.359 -0.63 -0.00    +0.000 C 
DOCKED: BRANCH  10  11
DOCKED: ATOM     11  C   UNL     1      37.372  13.790 122.757 -0.52 -0.00    +0.000 C 
DOCKED: BRANCH  11  12
DOCKED: ATOM     12  C   UNL     1      38.362  13.816 121.581 -0.41 -0.00    +0.000 C 
DOCKED: BRANCH  12  13
DOCKED: ATOM     13  C   UNL     1      37.725  13.391 120.291 -0.44 -0.00    +0.000 C 
DOCKED: ATOM     14  N   UNL     1      36.916  14.306 119.548 -0.28 -0.00    +0.000 N 
DOCKED: ATOM     15  O   UNL     1      37.931  12.229 119.847 -0.54 -0.00    +0.000 OA
DOCKED: ATOM     16  H   UNL     1      36.761  15.214 119.895 -0.01 -0.00    +0.000 HD
DOCKED: BRANCH  14  17
DOCKED: ATOM     17  O   UNL     1      36.363  13.936 118.368 -0.40 -0.00    +0.000 OA
DOCKED: ATOM     18  H   UNL     1      36.483  12.982 118.240 -0.05 -0.00    +0.000 HD
DOCKED: ENDBRANCH  14  17
DOCKED: ENDBRANCH  12  13
DOCKED: ENDBRANCH  11  12
DOCKED: ENDBRANCH  10  11
DOCKED: ENDBRANCH   1  10
DOCKED: TORSDOF 9
DOCKED: TER
DOCKED: ENDMDL
________________________________________________________________________________


	BEGINNING GENETIC ALGORITHM DOCKING 91 of 100
Run: 91 Seed: 1234748015 845162981 [ Run 91 of 100 GA/GALS ]
Beginning LAMARCKIAN GENETIC ALGORITHM (LGA), with a maximum of 2500000 energy evaluations.

Final-Value: -14.350


	FINAL GENETIC ALGORITHM DOCKED STATE
	_______________________________________________


Detailed state:  trans 35.551 12.350 122.227 quatxyzw -0.757471 0.636321 -0.087788 0.116737 center 0.300 0.400 0.510 ntor 9 -179.9023 -6.9904 172.8405 -31.9743 15.1085 74.6639 39.5799 -78.6818 167.9118
State:	 35.551  12.350 122.227  -0.763  0.641 -0.088 166.592   -179.90   -6.99  172.84  -31.97   15.11   74.66   39.58  -78.68  167.91

DOCKED: MODEL       91
DOCKED: USER    Run = 91
DOCKED: USER    DPF = ligand_dock.biased.dpf
DOCKED: USER  
DOCKED: USER    Estimated Free Energy of Binding    =  -10.17 kcal/mol  [=(1)+(2)+(3)-(4)]
DOCKED: USER    Estimated Inhibition Constant, Ki   =   34.85 nM (nanomolar)  [Temperature = 298.15 K]
DOCKED: USER    
DOCKED: USER    (1) Final Intermolecular Energy     =  -12.86 kcal/mol
DOCKED: USER        vdW + Hbond + desolv Energy     =  -12.86 kcal/mol
DOCKED: USER        Electrostatic Energy            =   +0.00 kcal/mol
DOCKED: USER    (2) Final Total Internal Energy     =   -1.49 kcal/mol
DOCKED: USER    (3) Torsional Free Energy           =   +2.68 kcal/mol
DOCKED: USER    (4) Unbound System's Energy  [=(2)] =   -1.49 kcal/mol
DOCKED: USER    
DOCKED: USER    
DOCKED: USER    NEWDPF move ligand.pdbqt
DOCKED: USER    NEWDPF about 0.300000 0.400000 0.510000
DOCKED: USER    NEWDPF tran0 35.551015 12.349866 122.227261
DOCKED: USER    NEWDPF quaternion0 -0.757471 0.636321 -0.087788 0.116737
DOCKED: USER    NEWDPF axisangle0 -0.762685 0.640701 -0.088392 166.592330
DOCKED: USER    NEWDPF quat0 -0.762685 0.640701 -0.088392 166.592330
DOCKED: USER    NEWDPF dihe0 -179.90 -6.99 172.84 -31.97 15.11 74.66 39.58 -78.68 167.91 
DOCKED: USER  keepresnum = 1 
DOCKED: USER  
DOCKED: REMARK  Name = 
DOCKED: REMARK  9 active torsions:
DOCKED: REMARK  status: ('A' for Active; 'I' for Inactive)
DOCKED: REMARK    1  A    between atoms: O_1  and  N_2
DOCKED: REMARK    2  A    between atoms: C_3  and  C_4
DOCKED: REMARK    3  A    between atoms: C_4  and  C_5
DOCKED: REMARK    4  A    between atoms: C_5  and  C_6
DOCKED: REMARK    5  A    between atoms: C_6  and  C_7
DOCKED: REMARK    6  A    between atoms: C_7  and  C_8
DOCKED: REMARK    7  A    between atoms: C_8  and  C_9
DOCKED: REMARK    8  A    between atoms: C_9  and  C_10
DOCKED: REMARK    9  A    between atoms: N_11  and  O_12
DOCKED: REMARK                            x       y       z     vdW  Elec       q    Type
DOCKED: REMARK                         _______ _______ _______ _____ _____    ______ ____
DOCKED: USER                              x       y       z     vdW  Elec       q    Type
DOCKED: USER                           _______ _______ _______ _____ _____    ______ ____
DOCKED: ROOT
DOCKED: ATOM      1  C   UNL     1      36.255  13.098 123.601 -0.62 -0.00    +0.000 C 
DOCKED: ENDROOT
DOCKED: BRANCH   1   2
DOCKED: ATOM      2  C   UNL     1      36.916  11.859 122.987 -0.66 -0.00    +0.000 C 
DOCKED: BRANCH   2   3
DOCKED: ATOM      3  C   UNL     1      35.865  10.838 122.544 -0.67 -0.00    +0.000 C 
DOCKED: BRANCH   3   5
DOCKED: ATOM      4  N   UNL     1      36.635   8.551 123.338 -0.66 -0.00    +0.000 N 
DOCKED: ATOM      5  C   UNL     1      36.502   9.507 122.282 -0.70 -0.00    +0.000 C 
DOCKED: ATOM      6  O   UNL     1      36.884   9.215 121.117 -2.68 -0.00    +0.000 OA
DOCKED: ATOM      7  H   UNL     1      36.326   8.780 124.244 -0.31 -0.00    +0.000 HD
DOCKED: BRANCH   4   8
DOCKED: ATOM      8  O   UNL     1      37.184   7.336 123.102 -2.08 -0.00    +0.000 OA
DOCKED: ATOM      9  H   UNL     1      37.436   7.271 122.167 -0.15 -0.00    +0.000 HD
DOCKED: ENDBRANCH   4   8
DOCKED: ENDBRANCH   3   5
DOCKED: ENDBRANCH   2   3
DOCKED: ENDBRANCH   1   2
DOCKED: BRANCH   1  10
DOCKED: ATOM     10  C   UNL     1      36.979  14.381 123.168 -0.49 -0.00    +0.000 C 
DOCKED: BRANCH  10  11
DOCKED: ATOM     11  C   UNL     1      38.358  14.095 122.538 -0.47 -0.00    +0.000 C 
DOCKED: BRANCH  11  12
DOCKED: ATOM     12  C   UNL     1      39.163  15.366 122.221 -0.36 -0.00    +0.000 C 
DOCKED: BRANCH  12  13
DOCKED: ATOM     13  C   UNL     1      40.631  15.188 122.473 -0.46 -0.00    +0.000 C 
DOCKED: ATOM     14  N   UNL     1      41.364  16.175 123.204 -0.39 -0.00    +0.000 N 
DOCKED: ATOM     15  O   UNL     1      41.213  14.148 122.062 -0.96 +0.00    +0.000 OA
DOCKED: ATOM     16  H   UNL     1      40.906  16.984 123.527 -0.02 -0.00    +0.000 HD
DOCKED: BRANCH  14  17
DOCKED: ATOM     17  O   UNL     1      42.684  16.005 123.457 -1.12 +0.00    +0.000 OA
DOCKED: ATOM     18  H   UNL     1      42.956  15.118 123.173 -0.06 +0.00    +0.000 HD
DOCKED: ENDBRANCH  14  17
DOCKED: ENDBRANCH  12  13
DOCKED: ENDBRANCH  11  12
DOCKED: ENDBRANCH  10  11
DOCKED: ENDBRANCH   1  10
DOCKED: TORSDOF 9
DOCKED: TER
DOCKED: ENDMDL
________________________________________________________________________________


	BEGINNING GENETIC ALGORITHM DOCKING 92 of 100
Run: 92 Seed: 529518805 1996609190 [ Run 92 of 100 GA/GALS ]
Beginning LAMARCKIAN GENETIC ALGORITHM (LGA), with a maximum of 2500000 energy evaluations.

Final-Value: -12.300


	FINAL GENETIC ALGORITHM DOCKED STATE
	_______________________________________________


Detailed state:  trans 36.769 12.466 124.840 quatxyzw -0.132957 0.472790 0.780378 0.387044 center 0.300 0.400 0.510 ntor 9 161.0230 -12.1268 178.3377 52.9789 -147.2621 -168.0312 -82.8902 -144.6583 -174.9977
State:	 36.769  12.466 124.840  -0.144  0.513  0.846 134.459    161.02  -12.13  178.34   52.98 -147.26 -168.03  -82.89 -144.66 -175.00

DOCKED: MODEL       92
DOCKED: USER    Run = 92
DOCKED: USER    DPF = ligand_dock.biased.dpf
DOCKED: USER  
DOCKED: USER    Estimated Free Energy of Binding    =   -7.86 kcal/mol  [=(1)+(2)+(3)-(4)]
DOCKED: USER    Estimated Inhibition Constant, Ki   =    1.73 uM (micromolar)  [Temperature = 298.15 K]
DOCKED: USER    
DOCKED: USER    (1) Final Intermolecular Energy     =  -10.55 kcal/mol
DOCKED: USER        vdW + Hbond + desolv Energy     =  -10.55 kcal/mol
DOCKED: USER        Electrostatic Energy            =   +0.00 kcal/mol
DOCKED: USER    (2) Final Total Internal Energy     =   -1.75 kcal/mol
DOCKED: USER    (3) Torsional Free Energy           =   +2.68 kcal/mol
DOCKED: USER    (4) Unbound System's Energy  [=(2)] =   -1.75 kcal/mol
DOCKED: USER    
DOCKED: USER    
DOCKED: USER    NEWDPF move ligand.pdbqt
DOCKED: USER    NEWDPF about 0.300000 0.400000 0.510000
DOCKED: USER    NEWDPF tran0 36.769120 12.466359 124.839740
DOCKED: USER    NEWDPF quaternion0 -0.132957 0.472790 0.780378 0.387044
DOCKED: USER    NEWDPF axisangle0 -0.144195 0.512753 0.846340 134.458613
DOCKED: USER    NEWDPF quat0 -0.144195 0.512753 0.846340 134.458613
DOCKED: USER    NEWDPF dihe0 161.02 -12.13 178.34 52.98 -147.26 -168.03 -82.89 -144.66 -175.00 
DOCKED: USER  keepresnum = 1 
DOCKED: USER  
DOCKED: REMARK  Name = 
DOCKED: REMARK  9 active torsions:
DOCKED: REMARK  status: ('A' for Active; 'I' for Inactive)
DOCKED: REMARK    1  A    between atoms: O_1  and  N_2
DOCKED: REMARK    2  A    between atoms: C_3  and  C_4
DOCKED: REMARK    3  A    between atoms: C_4  and  C_5
DOCKED: REMARK    4  A    between atoms: C_5  and  C_6
DOCKED: REMARK    5  A    between atoms: C_6  and  C_7
DOCKED: REMARK    6  A    between atoms: C_7  and  C_8
DOCKED: REMARK    7  A    between atoms: C_8  and  C_9
DOCKED: REMARK    8  A    between atoms: C_9  and  C_10
DOCKED: REMARK    9  A    between atoms: N_11  and  O_12
DOCKED: REMARK                            x       y       z     vdW  Elec       q    Type
DOCKED: REMARK                         _______ _______ _______ _____ _____    ______ ____
DOCKED: USER                              x       y       z     vdW  Elec       q    Type
DOCKED: USER                           _______ _______ _______ _____ _____    ______ ____
DOCKED: ROOT
DOCKED: ATOM      1  C   UNL     1      37.437  11.814 123.401 -0.49 -0.00    +0.000 C 
DOCKED: ENDROOT
DOCKED: BRANCH   1   2
DOCKED: ATOM      2  C   UNL     1      35.927  11.720 123.650 -0.67 -0.00    +0.000 C 
DOCKED: BRANCH   2   3
DOCKED: ATOM      3  C   UNL     1      35.289  10.652 122.758 -0.55 -0.00    +0.000 C 
DOCKED: BRANCH   3   5
DOCKED: ATOM      4  N   UNL     1      36.218   8.359 123.333 -0.64 -0.00    +0.000 N 
DOCKED: ATOM      5  C   UNL     1      36.250   9.529 122.511 -0.71 -0.00    +0.000 C 
DOCKED: ATOM      6  O   UNL     1      37.062   9.601 121.550 -2.14 -0.00    +0.000 OA
DOCKED: ATOM      7  H   UNL     1      35.575   8.303 124.076 -0.06 -0.00    +0.000 HD
DOCKED: BRANCH   4   8
DOCKED: ATOM      8  O   UNL     1      37.064   7.329 123.097 -2.15 -0.00    +0.000 OA
DOCKED: ATOM      9  H   UNL     1      37.408   7.393 122.192 -0.13 -0.00    +0.000 HD
DOCKED: ENDBRANCH   4   8
DOCKED: ENDBRANCH   3   5
DOCKED: ENDBRANCH   2   3
DOCKED: ENDBRANCH   1   2
DOCKED: BRANCH   1  10
DOCKED: ATOM     10  C   UNL     1      37.765  12.956 122.427 -0.47 -0.00    +0.000 C 
DOCKED: BRANCH  10  11
DOCKED: ATOM     11  C   UNL     1      36.512  13.752 122.009 -0.12 -0.00    +0.000 C 
DOCKED: BRANCH  11  12
DOCKED: ATOM     12  C   UNL     1      36.576  15.240 122.390 -0.33 -0.00    +0.000 C 
DOCKED: BRANCH  12  13
DOCKED: ATOM     13  C   UNL     1      35.804  15.541 123.641 -0.47 -0.00    +0.000 C 
DOCKED: ATOM     14  N   UNL     1      34.473  15.047 123.807 -0.58 -0.00    +0.000 N 
DOCKED: ATOM     15  O   UNL     1      36.347  16.209 124.563 -0.31 -0.00    +0.000 OA
DOCKED: ATOM     16  H   UNL     1      34.053  14.523 123.088 -0.04 -0.00    +0.000 HD
DOCKED: BRANCH  14  17
DOCKED: ATOM     17  O   UNL     1      33.783  15.293 124.947 -0.65 -0.00    +0.000 OA
DOCKED: ATOM     18  H   UNL     1      34.387  15.646 125.620 -0.04 -0.00    +0.000 HD
DOCKED: ENDBRANCH  14  17
DOCKED: ENDBRANCH  12  13
DOCKED: ENDBRANCH  11  12
DOCKED: ENDBRANCH  10  11
DOCKED: ENDBRANCH   1  10
DOCKED: TORSDOF 9
DOCKED: TER
DOCKED: ENDMDL
________________________________________________________________________________


	BEGINNING GENETIC ALGORITHM DOCKING 93 of 100
Run: 93 Seed: 1493307359 436961322 [ Run 93 of 100 GA/GALS ]
Beginning LAMARCKIAN GENETIC ALGORITHM (LGA), with a maximum of 2500000 energy evaluations.

Final-Value: -12.992


	FINAL GENETIC ALGORITHM DOCKED STATE
	_______________________________________________


Detailed state:  trans 37.620 12.064 121.698 quatxyzw 0.458781 -0.630244 0.566576 0.267030 center 0.300 0.400 0.510 ntor 9 -173.6563 1.1599 -171.8748 175.5556 -42.3860 -87.6277 -24.9548 -25.0937 1.9040
State:	 37.620  12.064 121.698   0.476 -0.654  0.588 149.025   -173.66    1.16 -171.87  175.56  -42.39  -87.63  -24.95  -25.09    1.90

DOCKED: MODEL       93
DOCKED: USER    Run = 93
DOCKED: USER    DPF = ligand_dock.biased.dpf
DOCKED: USER  
DOCKED: USER    Estimated Free Energy of Binding    =   -8.77 kcal/mol  [=(1)+(2)+(3)-(4)]
DOCKED: USER    Estimated Inhibition Constant, Ki   =  373.77 nM (nanomolar)  [Temperature = 298.15 K]
DOCKED: USER    
DOCKED: USER    (1) Final Intermolecular Energy     =  -11.45 kcal/mol
DOCKED: USER        vdW + Hbond + desolv Energy     =  -11.45 kcal/mol
DOCKED: USER        Electrostatic Energy            =   +0.00 kcal/mol
DOCKED: USER    (2) Final Total Internal Energy     =   -1.54 kcal/mol
DOCKED: USER    (3) Torsional Free Energy           =   +2.68 kcal/mol
DOCKED: USER    (4) Unbound System's Energy  [=(2)] =   -1.54 kcal/mol
DOCKED: USER    
DOCKED: USER    
DOCKED: USER    NEWDPF move ligand.pdbqt
DOCKED: USER    NEWDPF about 0.300000 0.400000 0.510000
DOCKED: USER    NEWDPF tran0 37.619549 12.064122 121.697891
DOCKED: USER    NEWDPF quaternion0 0.458781 -0.630244 0.566576 0.267030
DOCKED: USER    NEWDPF axisangle0 0.476068 -0.653991 0.587924 149.024798
DOCKED: USER    NEWDPF quat0 0.476068 -0.653991 0.587924 149.024798
DOCKED: USER    NEWDPF dihe0 -173.66 1.16 -171.87 175.56 -42.39 -87.63 -24.95 -25.09 1.90 
DOCKED: USER  keepresnum = 1 
DOCKED: USER  
DOCKED: REMARK  Name = 
DOCKED: REMARK  9 active torsions:
DOCKED: REMARK  status: ('A' for Active; 'I' for Inactive)
DOCKED: REMARK    1  A    between atoms: O_1  and  N_2
DOCKED: REMARK    2  A    between atoms: C_3  and  C_4
DOCKED: REMARK    3  A    between atoms: C_4  and  C_5
DOCKED: REMARK    4  A    between atoms: C_5  and  C_6
DOCKED: REMARK    5  A    between atoms: C_6  and  C_7
DOCKED: REMARK    6  A    between atoms: C_7  and  C_8
DOCKED: REMARK    7  A    between atoms: C_8  and  C_9
DOCKED: REMARK    8  A    between atoms: C_9  and  C_10
DOCKED: REMARK    9  A    between atoms: N_11  and  O_12
DOCKED: REMARK                            x       y       z     vdW  Elec       q    Type
DOCKED: REMARK                         _______ _______ _______ _____ _____    ______ ____
DOCKED: USER                              x       y       z     vdW  Elec       q    Type
DOCKED: USER                           _______ _______ _______ _____ _____    ______ ____
DOCKED: ROOT
DOCKED: ATOM      1  C   UNL     1      36.584  13.006 122.689 -0.57 -0.00    +0.000 C 
DOCKED: ENDROOT
DOCKED: BRANCH   1   2
DOCKED: ATOM      2  C   UNL     1      37.035  11.618 123.161 -0.66 -0.00    +0.000 C 
DOCKED: BRANCH   2   3
DOCKED: ATOM      3  C   UNL     1      35.909  10.593 123.004 -0.69 -0.00    +0.000 C 
DOCKED: BRANCH   3   5
DOCKED: ATOM      4  N   UNL     1      36.618   8.171 123.302 -0.71 -0.00    +0.000 N 
DOCKED: ATOM      5  C   UNL     1      36.443   9.307 122.449 -0.72 -0.00    +0.000 C 
DOCKED: ATOM      6  O   UNL     1      36.701   9.216 121.219 -2.63 -0.00    +0.000 OA
DOCKED: ATOM      7  H   UNL     1      36.406   8.244 124.260 -0.26 -0.00    +0.000 HD
DOCKED: BRANCH   4   8
DOCKED: ATOM      8  O   UNL     1      37.072   6.998 122.802 -1.71 -0.00    +0.000 OA
DOCKED: ATOM      9  H   UNL     1      37.328   7.120 121.874 -0.16 -0.00    +0.000 HD
DOCKED: ENDBRANCH   4   8
DOCKED: ENDBRANCH   3   5
DOCKED: ENDBRANCH   2   3
DOCKED: ENDBRANCH   1   2
DOCKED: BRANCH   1  10
DOCKED: ATOM     10  C   UNL     1      37.401  14.113 123.374 -0.48 -0.00    +0.000 C 
DOCKED: BRANCH  10  11
DOCKED: ATOM     11  C   UNL     1      36.978  15.524 122.917 -0.37 -0.00    +0.000 C 
DOCKED: BRANCH  11  12
DOCKED: ATOM     12  C   UNL     1      38.121  16.328 122.276 -0.24 -0.00    +0.000 C 
DOCKED: BRANCH  12  13
DOCKED: ATOM     13  C   UNL     1      39.472  15.785 122.637 -0.33 -0.00    +0.000 C 
DOCKED: ATOM     14  N   UNL     1      39.951  14.579 122.036 -0.39 -0.00    +0.000 N 
DOCKED: ATOM     15  O   UNL     1      40.199  16.414 123.453 -0.37 -0.00    +0.000 OA
DOCKED: ATOM     16  H   UNL     1      39.383  14.093 121.396 -0.03 -0.00    +0.000 HD
DOCKED: BRANCH  14  17
DOCKED: ATOM     17  O   UNL     1      41.182  14.101 122.338 -1.08 +0.00    +0.000 OA
DOCKED: ATOM     18  H   UNL     1      41.603  14.682 122.992 -0.06 -0.00    +0.000 HD
DOCKED: ENDBRANCH  14  17
DOCKED: ENDBRANCH  12  13
DOCKED: ENDBRANCH  11  12
DOCKED: ENDBRANCH  10  11
DOCKED: ENDBRANCH   1  10
DOCKED: TORSDOF 9
DOCKED: TER
DOCKED: ENDMDL
________________________________________________________________________________


	BEGINNING GENETIC ALGORITHM DOCKING 94 of 100
Run: 94 Seed: 94796660 809447472 [ Run 94 of 100 GA/GALS ]
Beginning LAMARCKIAN GENETIC ALGORITHM (LGA), with a maximum of 2500000 energy evaluations.

Final-Value: -14.268


	FINAL GENETIC ALGORITHM DOCKED STATE
	_______________________________________________


Detailed state:  trans 37.742 14.488 123.310 quatxyzw 0.532767 0.786821 0.187323 -0.248964 center 0.300 0.400 0.510 ntor 9 177.8856 -178.3761 -164.3873 147.0231 150.7546 180.0000 -54.0427 -45.6271 -114.8813
State:	 37.742  14.488 123.310   0.550  0.812  0.193 -151.168    177.89 -178.38 -164.39  147.02  150.75  180.00  -54.04  -45.63 -114.88

DOCKED: MODEL       94
DOCKED: USER    Run = 94
DOCKED: USER    DPF = ligand_dock.biased.dpf
DOCKED: USER  
DOCKED: USER    Estimated Free Energy of Binding    =  -10.43 kcal/mol  [=(1)+(2)+(3)-(4)]
DOCKED: USER    Estimated Inhibition Constant, Ki   =   22.49 nM (nanomolar)  [Temperature = 298.15 K]
DOCKED: USER    
DOCKED: USER    (1) Final Intermolecular Energy     =  -13.12 kcal/mol
DOCKED: USER        vdW + Hbond + desolv Energy     =  -13.12 kcal/mol
DOCKED: USER        Electrostatic Energy            =   +0.00 kcal/mol
DOCKED: USER    (2) Final Total Internal Energy     =   -1.15 kcal/mol
DOCKED: USER    (3) Torsional Free Energy           =   +2.68 kcal/mol
DOCKED: USER    (4) Unbound System's Energy  [=(2)] =   -1.15 kcal/mol
DOCKED: USER    
DOCKED: USER    
DOCKED: USER    NEWDPF move ligand.pdbqt
DOCKED: USER    NEWDPF about 0.300000 0.400000 0.510000
DOCKED: USER    NEWDPF tran0 37.741501 14.487843 123.309530
DOCKED: USER    NEWDPF quaternion0 0.532767 0.786821 0.187323 -0.248964
DOCKED: USER    NEWDPF axisangle0 0.550088 0.812401 0.193413 -151.167605
DOCKED: USER    NEWDPF quat0 0.550088 0.812401 0.193413 -151.167605
DOCKED: USER    NEWDPF dihe0 177.89 -178.38 -164.39 147.02 150.75 180.00 -54.04 -45.63 -114.88 
DOCKED: USER  keepresnum = 1 
DOCKED: USER  
DOCKED: REMARK  Name = 
DOCKED: REMARK  9 active torsions:
DOCKED: REMARK  status: ('A' for Active; 'I' for Inactive)
DOCKED: REMARK    1  A    between atoms: O_1  and  N_2
DOCKED: REMARK    2  A    between atoms: C_3  and  C_4
DOCKED: REMARK    3  A    between atoms: C_4  and  C_5
DOCKED: REMARK    4  A    between atoms: C_5  and  C_6
DOCKED: REMARK    5  A    between atoms: C_6  and  C_7
DOCKED: REMARK    6  A    between atoms: C_7  and  C_8
DOCKED: REMARK    7  A    between atoms: C_8  and  C_9
DOCKED: REMARK    8  A    between atoms: C_9  and  C_10
DOCKED: REMARK    9  A    between atoms: N_11  and  O_12
DOCKED: REMARK                            x       y       z     vdW  Elec       q    Type
DOCKED: REMARK                         _______ _______ _______ _____ _____    ______ ____
DOCKED: USER                              x       y       z     vdW  Elec       q    Type
DOCKED: USER                           _______ _______ _______ _____ _____    ______ ____
DOCKED: ROOT
DOCKED: ATOM      1  C   UNL     1      36.350  13.997 124.184 -0.31 -0.00    +0.000 C 
DOCKED: ENDROOT
DOCKED: BRANCH   1   2
DOCKED: ATOM      2  C   UNL     1      36.196  14.884 122.943 -0.40 -0.00    +0.000 C 
DOCKED: BRANCH   2   3
DOCKED: ATOM      3  C   UNL     1      35.249  16.055 123.218 -0.43 -0.00    +0.000 C 
DOCKED: BRANCH   3   5
DOCKED: ATOM      4  N   UNL     1      34.246  16.285 125.541 -0.47 -0.00    +0.000 N 
DOCKED: ATOM      5  C   UNL     1      34.227  15.675 124.247 -0.58 -0.00    +0.000 C 
DOCKED: ATOM      6  O   UNL     1      33.326  14.845 123.956 -0.63 -0.00    +0.000 OA
DOCKED: ATOM      7  H   UNL     1      34.947  16.940 125.761 -0.02 -0.00    +0.000 HD
DOCKED: BRANCH   4   8
DOCKED: ATOM      8  O   UNL     1      33.309  15.968 126.465 -1.09 -0.00    +0.000 OA
DOCKED: ATOM      9  H   UNL     1      32.678  15.338 126.083 -0.22 -0.00    +0.000 HD
DOCKED: ENDBRANCH   4   8
DOCKED: ENDBRANCH   3   5
DOCKED: ENDBRANCH   2   3
DOCKED: ENDBRANCH   1   2
DOCKED: BRANCH   1  10
DOCKED: ATOM     10  C   UNL     1      36.033  12.530 123.856 -0.62 -0.00    +0.000 C 
DOCKED: BRANCH  10  11
DOCKED: ATOM     11  C   UNL     1      37.009  11.933 122.822 -0.64 -0.00    +0.000 C 
DOCKED: BRANCH  11  12
DOCKED: ATOM     12  C   UNL     1      36.332  10.995 121.810 -0.50 -0.00    +0.000 C 
DOCKED: BRANCH  12  13
DOCKED: ATOM     13  C   UNL     1      36.751   9.566 121.989 -0.67 -0.00    +0.000 C 
DOCKED: ATOM     14  N   UNL     1      36.782   8.979 123.293 -0.62 -0.00    +0.000 N 
DOCKED: ATOM     15  O   UNL     1      37.048   8.872 120.980 -2.71 -0.00    +0.000 OA
DOCKED: ATOM     16  H   UNL     1      36.546   9.521 124.079 -0.42 -0.00    +0.000 HD
DOCKED: BRANCH  14  17
DOCKED: ATOM     17  O   UNL     1      37.133   7.680 123.455 -2.25 -0.00    +0.000 OA
DOCKED: ATOM     18  H   UNL     1      37.074   7.445 124.395 -0.54 -0.00    +0.000 HD
DOCKED: ENDBRANCH  14  17
DOCKED: ENDBRANCH  12  13
DOCKED: ENDBRANCH  11  12
DOCKED: ENDBRANCH  10  11
DOCKED: ENDBRANCH   1  10
DOCKED: TORSDOF 9
DOCKED: TER
DOCKED: ENDMDL
________________________________________________________________________________


	BEGINNING GENETIC ALGORITHM DOCKING 95 of 100
Run: 95 Seed: 749528348 226869160 [ Run 95 of 100 GA/GALS ]
Beginning LAMARCKIAN GENETIC ALGORITHM (LGA), with a maximum of 2500000 energy evaluations.

Final-Value: -13.574


	FINAL GENETIC ALGORITHM DOCKED STATE
	_______________________________________________


Detailed state:  trans 39.069 13.151 123.181 quatxyzw -0.709602 -0.228033 -0.357877 0.562485 center 0.300 0.400 0.510 ntor 9 173.5506 91.5639 143.2140 -110.1458 -45.8425 106.6917 -63.9351 167.8361 -95.3913
State:	 39.069  13.151 123.181  -0.858 -0.276 -0.433 111.544    173.55   91.56  143.21 -110.15  -45.84  106.69  -63.94  167.84  -95.39

DOCKED: MODEL       95
DOCKED: USER    Run = 95
DOCKED: USER    DPF = ligand_dock.biased.dpf
DOCKED: USER  
DOCKED: USER    Estimated Free Energy of Binding    =   -9.91 kcal/mol  [=(1)+(2)+(3)-(4)]
DOCKED: USER    Estimated Inhibition Constant, Ki   =   54.56 nM (nanomolar)  [Temperature = 298.15 K]
DOCKED: USER    
DOCKED: USER    (1) Final Intermolecular Energy     =  -12.59 kcal/mol
DOCKED: USER        vdW + Hbond + desolv Energy     =  -12.59 kcal/mol
DOCKED: USER        Electrostatic Energy            =   +0.00 kcal/mol
DOCKED: USER    (2) Final Total Internal Energy     =   -0.98 kcal/mol
DOCKED: USER    (3) Torsional Free Energy           =   +2.68 kcal/mol
DOCKED: USER    (4) Unbound System's Energy  [=(2)] =   -0.98 kcal/mol
DOCKED: USER    
DOCKED: USER    
DOCKED: USER    NEWDPF move ligand.pdbqt
DOCKED: USER    NEWDPF about 0.300000 0.400000 0.510000
DOCKED: USER    NEWDPF tran0 39.068827 13.150965 123.180896
DOCKED: USER    NEWDPF quaternion0 -0.709602 -0.228033 -0.357877 0.562485
DOCKED: USER    NEWDPF axisangle0 -0.858244 -0.275800 -0.432842 111.544405
DOCKED: USER    NEWDPF quat0 -0.858244 -0.275800 -0.432842 111.544405
DOCKED: USER    NEWDPF dihe0 173.55 91.56 143.21 -110.15 -45.84 106.69 -63.94 167.84 -95.39 
DOCKED: USER  keepresnum = 1 
DOCKED: USER  
DOCKED: REMARK  Name = 
DOCKED: REMARK  9 active torsions:
DOCKED: REMARK  status: ('A' for Active; 'I' for Inactive)
DOCKED: REMARK    1  A    between atoms: O_1  and  N_2
DOCKED: REMARK    2  A    between atoms: C_3  and  C_4
DOCKED: REMARK    3  A    between atoms: C_4  and  C_5
DOCKED: REMARK    4  A    between atoms: C_5  and  C_6
DOCKED: REMARK    5  A    between atoms: C_6  and  C_7
DOCKED: REMARK    6  A    between atoms: C_7  and  C_8
DOCKED: REMARK    7  A    between atoms: C_8  and  C_9
DOCKED: REMARK    8  A    between atoms: C_9  and  C_10
DOCKED: REMARK    9  A    between atoms: N_11  and  O_12
DOCKED: REMARK                            x       y       z     vdW  Elec       q    Type
DOCKED: REMARK                         _______ _______ _______ _____ _____    ______ ____
DOCKED: USER                              x       y       z     vdW  Elec       q    Type
DOCKED: USER                           _______ _______ _______ _____ _____    ______ ____
DOCKED: ROOT
DOCKED: ATOM      1  C   UNL     1      37.822  14.179 122.606 -0.48 -0.00    +0.000 C 
DOCKED: ENDROOT
DOCKED: BRANCH   1   2
DOCKED: ATOM      2  C   UNL     1      39.287  14.521 122.311 -0.42 -0.00    +0.000 C 
DOCKED: BRANCH   2   3
DOCKED: ATOM      3  C   UNL     1      39.520  16.033 122.370 -0.30 -0.00    +0.000 C 
DOCKED: BRANCH   3   5
DOCKED: ATOM      4  N   UNL     1      42.023  15.829 122.756 -0.46 -0.00    +0.000 N 
DOCKED: ATOM      5  C   UNL     1      40.753  16.344 123.165 -0.31 -0.00    +0.000 C 
DOCKED: ATOM      6  O   UNL     1      40.673  17.095 124.173 -0.49 -0.00    +0.000 OA
DOCKED: ATOM      7  H   UNL     1      42.081  15.250 121.961 -0.02 -0.00    +0.000 HD
DOCKED: BRANCH   4   8
DOCKED: ATOM      8  O   UNL     1      43.145  16.130 123.452 -0.96 +0.00    +0.000 OA
DOCKED: ATOM      9  H   UNL     1      42.934  16.783 124.137 -0.38 -0.00    +0.000 HD
DOCKED: ENDBRANCH   4   8
DOCKED: ENDBRANCH   3   5
DOCKED: ENDBRANCH   2   3
DOCKED: ENDBRANCH   1   2
DOCKED: BRANCH   1  10
DOCKED: ATOM     10  C   UNL     1      37.151  13.532 121.385 -0.43 -0.00    +0.000 C 
DOCKED: BRANCH  10  11
DOCKED: ATOM     11  C   UNL     1      37.445  12.021 121.282 -0.49 -0.00    +0.000 C 
DOCKED: BRANCH  11  12
DOCKED: ATOM     12  C   UNL     1      36.711  11.181 122.339 -0.64 -0.00    +0.000 C 
DOCKED: BRANCH  12  13
DOCKED: ATOM     13  C   UNL     1      36.919   9.709 122.141 -0.63 -0.00    +0.000 C 
DOCKED: ATOM     14  N   UNL     1      36.923   8.821 123.262 -0.65 -0.00    +0.000 N 
DOCKED: ATOM     15  O   UNL     1      37.060   9.250 120.975 -2.71 -0.00    +0.000 OA
DOCKED: ATOM     16  H   UNL     1      36.809   9.182 124.171 -0.50 -0.00    +0.000 HD
DOCKED: BRANCH  14  17
DOCKED: ATOM     17  O   UNL     1      37.082   7.488 123.085 -2.23 -0.00    +0.000 OA
DOCKED: ATOM     18  H   UNL     1      38.025   7.264 123.143 -0.50 -0.00    +0.000 HD
DOCKED: ENDBRANCH  14  17
DOCKED: ENDBRANCH  12  13
DOCKED: ENDBRANCH  11  12
DOCKED: ENDBRANCH  10  11
DOCKED: ENDBRANCH   1  10
DOCKED: TORSDOF 9
DOCKED: TER
DOCKED: ENDMDL
________________________________________________________________________________


	BEGINNING GENETIC ALGORITHM DOCKING 96 of 100
Run: 96 Seed: 1399605754 330603194 [ Run 96 of 100 GA/GALS ]
Beginning LAMARCKIAN GENETIC ALGORITHM (LGA), with a maximum of 2500000 energy evaluations.

Final-Value: -12.926


	FINAL GENETIC ALGORITHM DOCKED STATE
	_______________________________________________


Detailed state:  trans 35.597 12.051 122.246 quatxyzw -0.678546 0.620025 -0.212406 0.331704 center 0.300 0.400 0.510 ntor 9 -176.0466 7.0246 124.7129 170.9952 2.0521 -13.7398 93.8056 179.9481 -180.0000
State:	 35.597  12.051 122.246  -0.719  0.657 -0.225 141.256   -176.05    7.02  124.71  171.00    2.05  -13.74   93.81  179.95 -180.00

DOCKED: MODEL       96
DOCKED: USER    Run = 96
DOCKED: USER    DPF = ligand_dock.biased.dpf
DOCKED: USER  
DOCKED: USER    Estimated Free Energy of Binding    =   -8.71 kcal/mol  [=(1)+(2)+(3)-(4)]
DOCKED: USER    Estimated Inhibition Constant, Ki   =  411.78 nM (nanomolar)  [Temperature = 298.15 K]
DOCKED: USER    
DOCKED: USER    (1) Final Intermolecular Energy     =  -11.40 kcal/mol
DOCKED: USER        vdW + Hbond + desolv Energy     =  -11.40 kcal/mol
DOCKED: USER        Electrostatic Energy            =   +0.00 kcal/mol
DOCKED: USER    (2) Final Total Internal Energy     =   -1.53 kcal/mol
DOCKED: USER    (3) Torsional Free Energy           =   +2.68 kcal/mol
DOCKED: USER    (4) Unbound System's Energy  [=(2)] =   -1.53 kcal/mol
DOCKED: USER    
DOCKED: USER    
DOCKED: USER    NEWDPF move ligand.pdbqt
DOCKED: USER    NEWDPF about 0.300000 0.400000 0.510000
DOCKED: USER    NEWDPF tran0 35.596535 12.050741 122.246384
DOCKED: USER    NEWDPF quaternion0 -0.678546 0.620025 -0.212406 0.331704
DOCKED: USER    NEWDPF axisangle0 -0.719269 0.657235 -0.225153 141.255525
DOCKED: USER    NEWDPF quat0 -0.719269 0.657235 -0.225153 141.255525
DOCKED: USER    NEWDPF dihe0 -176.05 7.02 124.71 171.00 2.05 -13.74 93.81 179.95 -180.00 
DOCKED: USER  keepresnum = 1 
DOCKED: USER  
DOCKED: REMARK  Name = 
DOCKED: REMARK  9 active torsions:
DOCKED: REMARK  status: ('A' for Active; 'I' for Inactive)
DOCKED: REMARK    1  A    between atoms: O_1  and  N_2
DOCKED: REMARK    2  A    between atoms: C_3  and  C_4
DOCKED: REMARK    3  A    between atoms: C_4  and  C_5
DOCKED: REMARK    4  A    between atoms: C_5  and  C_6
DOCKED: REMARK    5  A    between atoms: C_6  and  C_7
DOCKED: REMARK    6  A    between atoms: C_7  and  C_8
DOCKED: REMARK    7  A    between atoms: C_8  and  C_9
DOCKED: REMARK    8  A    between atoms: C_9  and  C_10
DOCKED: REMARK    9  A    between atoms: N_11  and  O_12
DOCKED: REMARK                            x       y       z     vdW  Elec       q    Type
DOCKED: REMARK                         _______ _______ _______ _____ _____    ______ ____
DOCKED: USER                              x       y       z     vdW  Elec       q    Type
DOCKED: USER                           _______ _______ _______ _____ _____    ______ ____
DOCKED: ROOT
DOCKED: ATOM      1  C   UNL     1      36.471  13.296 123.037 -0.58 -0.00    +0.000 C 
DOCKED: ENDROOT
DOCKED: BRANCH   1   2
DOCKED: ATOM      2  C   UNL     1      36.993  11.856 123.079 -0.66 -0.00    +0.000 C 
DOCKED: BRANCH   2   3
DOCKED: ATOM      3  C   UNL     1      36.291  10.986 122.032 -0.62 -0.00    +0.000 C 
DOCKED: BRANCH   3   5
DOCKED: ATOM      4  N   UNL     1      36.999   8.953 123.381 -0.61 -0.00    +0.000 N 
DOCKED: ATOM      5  C   UNL     1      36.781   9.572 122.109 -0.67 -0.00    +0.000 C 
DOCKED: ATOM      6  O   UNL     1      36.962   8.914 121.050 -2.68 -0.00    +0.000 OA
DOCKED: ATOM      7  H   UNL     1      36.847   9.468 124.206 -0.52 -0.00    +0.000 HD
DOCKED: BRANCH   4   8
DOCKED: ATOM      8  O   UNL     1      37.414   7.666 123.458 -2.16 -0.00    +0.000 OA
DOCKED: ATOM      9  H   UNL     1      37.576   7.325 122.565 -0.22 -0.00    +0.000 HD
DOCKED: ENDBRANCH   4   8
DOCKED: ENDBRANCH   3   5
DOCKED: ENDBRANCH   2   3
DOCKED: ENDBRANCH   1   2
DOCKED: BRANCH   1  10
DOCKED: ATOM     10  C   UNL     1      37.231  14.128 121.993 -0.42 -0.00    +0.000 C 
DOCKED: BRANCH  10  11
DOCKED: ATOM     11  C   UNL     1      38.349  13.323 121.300 -0.37 -0.00    +0.000 C 
DOCKED: BRANCH  11  12
DOCKED: ATOM     12  C   UNL     1      37.852  12.480 120.114 -0.49 -0.00    +0.000 C 
DOCKED: BRANCH  12  13
DOCKED: ATOM     13  C   UNL     1      37.110  13.302 119.103 -0.44 -0.00    +0.000 C 
DOCKED: ATOM     14  N   UNL     1      37.807  14.244 118.283 -0.28 -0.00    +0.000 N 
DOCKED: ATOM     15  O   UNL     1      35.869  13.138 118.956 -0.35 -0.00    +0.000 OA
DOCKED: ATOM     16  H   UNL     1      38.777  14.367 118.397 -0.10 -0.00    +0.000 HD
DOCKED: BRANCH  14  17
DOCKED: ATOM     17  O   UNL     1      37.145  14.968 117.349 -0.22 -0.00    +0.000 OA
DOCKED: ATOM     18  H   UNL     1      36.191  14.813 117.437 -0.01 -0.00    +0.000 HD
DOCKED: ENDBRANCH  14  17
DOCKED: ENDBRANCH  12  13
DOCKED: ENDBRANCH  11  12
DOCKED: ENDBRANCH  10  11
DOCKED: ENDBRANCH   1  10
DOCKED: TORSDOF 9
DOCKED: TER
DOCKED: ENDMDL
________________________________________________________________________________


	BEGINNING GENETIC ALGORITHM DOCKING 97 of 100
Run: 97 Seed: 1946620396 1451590236 [ Run 97 of 100 GA/GALS ]
Beginning LAMARCKIAN GENETIC ALGORITHM (LGA), with a maximum of 2500000 energy evaluations.

Final-Value: -13.486


	FINAL GENETIC ALGORITHM DOCKED STATE
	_______________________________________________


Detailed state:  trans 37.557 14.602 124.674 quatxyzw -0.502110 -0.528712 -0.640739 0.240422 center 0.300 0.400 0.510 ntor 9 -179.5343 29.8865 -177.5934 114.7871 93.7240 122.1040 168.2121 -103.9712 -30.6175
State:	 37.557  14.602 124.674  -0.517 -0.545 -0.660 152.177   -179.53   29.89 -177.59  114.79   93.72  122.10  168.21 -103.97  -30.62

DOCKED: MODEL       97
DOCKED: USER    Run = 97
DOCKED: USER    DPF = ligand_dock.biased.dpf
DOCKED: USER  
DOCKED: USER    Estimated Free Energy of Binding    =   -9.25 kcal/mol  [=(1)+(2)+(3)-(4)]
DOCKED: USER    Estimated Inhibition Constant, Ki   =  166.75 nM (nanomolar)  [Temperature = 298.15 K]
DOCKED: USER    
DOCKED: USER    (1) Final Intermolecular Energy     =  -11.93 kcal/mol
DOCKED: USER        vdW + Hbond + desolv Energy     =  -11.93 kcal/mol
DOCKED: USER        Electrostatic Energy            =   +0.00 kcal/mol
DOCKED: USER    (2) Final Total Internal Energy     =   -1.55 kcal/mol
DOCKED: USER    (3) Torsional Free Energy           =   +2.68 kcal/mol
DOCKED: USER    (4) Unbound System's Energy  [=(2)] =   -1.55 kcal/mol
DOCKED: USER    
DOCKED: USER    
DOCKED: USER    NEWDPF move ligand.pdbqt
DOCKED: USER    NEWDPF about 0.300000 0.400000 0.510000
DOCKED: USER    NEWDPF tran0 37.556602 14.602474 124.673957
DOCKED: USER    NEWDPF quaternion0 -0.502110 -0.528712 -0.640739 0.240422
DOCKED: USER    NEWDPF axisangle0 -0.517282 -0.544689 -0.660101 152.177147
DOCKED: USER    NEWDPF quat0 -0.517282 -0.544689 -0.660101 152.177147
DOCKED: USER    NEWDPF dihe0 -179.53 29.89 -177.59 114.79 93.72 122.10 168.21 -103.97 -30.62 
DOCKED: USER  keepresnum = 1 
DOCKED: USER  
DOCKED: REMARK  Name = 
DOCKED: REMARK  9 active torsions:
DOCKED: REMARK  status: ('A' for Active; 'I' for Inactive)
DOCKED: REMARK    1  A    between atoms: O_1  and  N_2
DOCKED: REMARK    2  A    between atoms: C_3  and  C_4
DOCKED: REMARK    3  A    between atoms: C_4  and  C_5
DOCKED: REMARK    4  A    between atoms: C_5  and  C_6
DOCKED: REMARK    5  A    between atoms: C_6  and  C_7
DOCKED: REMARK    6  A    between atoms: C_7  and  C_8
DOCKED: REMARK    7  A    between atoms: C_8  and  C_9
DOCKED: REMARK    8  A    between atoms: C_9  and  C_10
DOCKED: REMARK    9  A    between atoms: N_11  and  O_12
DOCKED: REMARK                            x       y       z     vdW  Elec       q    Type
DOCKED: REMARK                         _______ _______ _______ _____ _____    ______ ____
DOCKED: USER                              x       y       z     vdW  Elec       q    Type
DOCKED: USER                           _______ _______ _______ _____ _____    ______ ____
DOCKED: ROOT
DOCKED: ATOM      1  C   UNL     1      36.085  14.001 124.029 -0.48 -0.00    +0.000 C 
DOCKED: ENDROOT
DOCKED: BRANCH   1   2
DOCKED: ATOM      2  C   UNL     1      36.393  15.501 123.953 -0.36 -0.00    +0.000 C 
DOCKED: BRANCH   2   3
DOCKED: ATOM      3  C   UNL     1      37.153  15.842 122.669 -0.32 -0.00    +0.000 C 
DOCKED: BRANCH   3   5
DOCKED: ATOM      4  N   UNL     1      39.278  14.472 122.421 -0.42 -0.00    +0.000 N 
DOCKED: ATOM      5  C   UNL     1      38.628  15.665 122.868 -0.32 -0.00    +0.000 C 
DOCKED: ATOM      6  O   UNL     1      39.303  16.589 123.396 -0.30 -0.00    +0.000 OA
DOCKED: ATOM      7  H   UNL     1      38.748  13.756 122.001 -0.02 -0.00    +0.000 HD
DOCKED: BRANCH   4   8
DOCKED: ATOM      8  O   UNL     1      40.615  14.317 122.572 -1.06 +0.00    +0.000 OA
DOCKED: ATOM      9  H   UNL     1      40.983  15.102 123.007 -0.04 -0.00    +0.000 HD
DOCKED: ENDBRANCH   4   8
DOCKED: ENDBRANCH   3   5
DOCKED: ENDBRANCH   2   3
DOCKED: ENDBRANCH   1   2
DOCKED: BRANCH   1  10
DOCKED: ATOM     10  C   UNL     1      36.362  13.313 122.684 -0.49 -0.00    +0.000 C 
DOCKED: BRANCH  10  11
DOCKED: ATOM     11  C   UNL     1      36.854  11.861 122.855 -0.66 -0.00    +0.000 C 
DOCKED: BRANCH  11  12
DOCKED: ATOM     12  C   UNL     1      36.683  11.004 121.591 -0.52 -0.00    +0.000 C 
DOCKED: BRANCH  12  13
DOCKED: ATOM     13  C   UNL     1      36.933   9.548 121.852 -0.61 -0.00    +0.000 C 
DOCKED: ATOM     14  N   UNL     1      36.989   9.052 123.192 -0.64 -0.00    +0.000 N 
DOCKED: ATOM     15  O   UNL     1      37.066   8.754 120.881 -2.63 -0.00    +0.000 OA
DOCKED: ATOM     16  H   UNL     1      36.882   9.674 123.948 -0.47 -0.00    +0.000 HD
DOCKED: BRANCH  14  17
DOCKED: ATOM     17  O   UNL     1      37.187   7.734 123.431 -2.26 -0.00    +0.000 OA
DOCKED: ATOM     18  H   UNL     1      37.718   7.351 122.715 -0.34 -0.00    +0.000 HD
DOCKED: ENDBRANCH  14  17
DOCKED: ENDBRANCH  12  13
DOCKED: ENDBRANCH  11  12
DOCKED: ENDBRANCH  10  11
DOCKED: ENDBRANCH   1  10
DOCKED: TORSDOF 9
DOCKED: TER
DOCKED: ENDMDL
________________________________________________________________________________


	BEGINNING GENETIC ALGORITHM DOCKING 98 of 100
Run: 98 Seed: 1881939159 1678623934 [ Run 98 of 100 GA/GALS ]
Beginning LAMARCKIAN GENETIC ALGORITHM (LGA), with a maximum of 2500000 energy evaluations.

Final-Value: -13.661


	FINAL GENETIC ALGORITHM DOCKED STATE
	_______________________________________________


Detailed state:  trans 36.235 14.693 121.513 quatxyzw 0.656206 0.137441 -0.443233 0.595020 center 0.300 0.400 0.510 ntor 9 -170.3433 28.8884 -172.3633 89.1002 102.6386 89.9744 164.5993 107.4924 -12.0043
State:	 36.235  14.693 121.513   0.816  0.171 -0.551 106.972   -170.34   28.89 -172.36   89.10  102.64   89.97  164.60  107.49  -12.00

DOCKED: MODEL       98
DOCKED: USER    Run = 98
DOCKED: USER    DPF = ligand_dock.biased.dpf
DOCKED: USER  
DOCKED: USER    Estimated Free Energy of Binding    =   -9.47 kcal/mol  [=(1)+(2)+(3)-(4)]
DOCKED: USER    Estimated Inhibition Constant, Ki   =  114.92 nM (nanomolar)  [Temperature = 298.15 K]
DOCKED: USER    
DOCKED: USER    (1) Final Intermolecular Energy     =  -12.15 kcal/mol
DOCKED: USER        vdW + Hbond + desolv Energy     =  -12.15 kcal/mol
DOCKED: USER        Electrostatic Energy            =   +0.00 kcal/mol
DOCKED: USER    (2) Final Total Internal Energy     =   -1.51 kcal/mol
DOCKED: USER    (3) Torsional Free Energy           =   +2.68 kcal/mol
DOCKED: USER    (4) Unbound System's Energy  [=(2)] =   -1.51 kcal/mol
DOCKED: USER    
DOCKED: USER    
DOCKED: USER    NEWDPF move ligand.pdbqt
DOCKED: USER    NEWDPF about 0.300000 0.400000 0.510000
DOCKED: USER    NEWDPF tran0 36.235010 14.693480 121.513304
DOCKED: USER    NEWDPF quaternion0 0.656206 0.137441 -0.443233 0.595020
DOCKED: USER    NEWDPF axisangle0 0.816470 0.171009 -0.551483 106.971938
DOCKED: USER    NEWDPF quat0 0.816470 0.171009 -0.551483 106.971938
DOCKED: USER    NEWDPF dihe0 -170.34 28.89 -172.36 89.10 102.64 89.97 164.60 107.49 -12.00 
DOCKED: USER  keepresnum = 1 
DOCKED: USER  
DOCKED: REMARK  Name = 
DOCKED: REMARK  9 active torsions:
DOCKED: REMARK  status: ('A' for Active; 'I' for Inactive)
DOCKED: REMARK    1  A    between atoms: O_1  and  N_2
DOCKED: REMARK    2  A    between atoms: C_3  and  C_4
DOCKED: REMARK    3  A    between atoms: C_4  and  C_5
DOCKED: REMARK    4  A    between atoms: C_5  and  C_6
DOCKED: REMARK    5  A    between atoms: C_6  and  C_7
DOCKED: REMARK    6  A    between atoms: C_7  and  C_8
DOCKED: REMARK    7  A    between atoms: C_8  and  C_9
DOCKED: REMARK    8  A    between atoms: C_9  and  C_10
DOCKED: REMARK    9  A    between atoms: N_11  and  O_12
DOCKED: REMARK                            x       y       z     vdW  Elec       q    Type
DOCKED: REMARK                         _______ _______ _______ _____ _____    ______ ____
DOCKED: USER                              x       y       z     vdW  Elec       q    Type
DOCKED: USER                           _______ _______ _______ _____ _____    ______ ____
DOCKED: ROOT
DOCKED: ATOM      1  C   UNL     1      37.524  13.723 122.094 -0.48 -0.00    +0.000 C 
DOCKED: ENDROOT
DOCKED: BRANCH   1   2
DOCKED: ATOM      2  C   UNL     1      37.630  15.250 122.165 -0.34 -0.00    +0.000 C 
DOCKED: BRANCH   2   3
DOCKED: ATOM      3  C   UNL     1      36.973  15.788 123.439 -0.37 -0.00    +0.000 C 
DOCKED: BRANCH   3   5
DOCKED: ATOM      4  N   UNL     1      34.680  14.818 123.941 -0.58 -0.00    +0.000 N 
DOCKED: ATOM      5  C   UNL     1      35.482  15.809 123.293 -0.44 -0.00    +0.000 C 
DOCKED: ATOM      6  O   UNL     1      34.932  16.728 122.629 -0.39 -0.00    +0.000 OA
DOCKED: ATOM      7  H   UNL     1      35.114  14.108 124.467 -0.05 -0.00    +0.000 HD
DOCKED: BRANCH   4   8
DOCKED: ATOM      8  O   UNL     1      33.330  14.848 123.837 -0.67 -0.00    +0.000 OA
DOCKED: ATOM      9  H   UNL     1      33.072  15.504 123.171 -0.03 -0.00    +0.000 HD
DOCKED: ENDBRANCH   4   8
DOCKED: ENDBRANCH   3   5
DOCKED: ENDBRANCH   2   3
DOCKED: ENDBRANCH   1   2
DOCKED: BRANCH   1  10
DOCKED: ATOM     10  C   UNL     1      37.143  13.132 123.460 -0.59 -0.00    +0.000 C 
DOCKED: BRANCH  10  11
DOCKED: ATOM     11  C   UNL     1      36.689  11.662 123.360 -0.70 -0.00    +0.000 C 
DOCKED: BRANCH  11  12
DOCKED: ATOM     12  C   UNL     1      36.983  11.021 121.994 -0.56 -0.00    +0.000 C 
DOCKED: BRANCH  12  13
DOCKED: ATOM     13  C   UNL     1      37.031   9.524 122.065 -0.62 -0.00    +0.000 C 
DOCKED: ATOM     14  N   UNL     1      37.064   8.860 123.332 -0.63 -0.00    +0.000 N 
DOCKED: ATOM     15  O   UNL     1      37.012   8.848 121.001 -2.69 -0.00    +0.000 OA
DOCKED: ATOM     16  H   UNL     1      37.075   9.390 124.161 -0.57 -0.00    +0.000 HD
DOCKED: BRANCH  14  17
DOCKED: ATOM     17  O   UNL     1      37.080   7.507 123.400 -2.19 -0.00    +0.000 OA
DOCKED: ATOM     18  H   UNL     1      37.510   7.148 122.608 -0.26 -0.00    +0.000 HD
DOCKED: ENDBRANCH  14  17
DOCKED: ENDBRANCH  12  13
DOCKED: ENDBRANCH  11  12
DOCKED: ENDBRANCH  10  11
DOCKED: ENDBRANCH   1  10
DOCKED: TORSDOF 9
DOCKED: TER
DOCKED: ENDMDL
________________________________________________________________________________


	BEGINNING GENETIC ALGORITHM DOCKING 99 of 100
Run: 99 Seed: 1043974709 584207682 [ Run 99 of 100 GA/GALS ]
Beginning LAMARCKIAN GENETIC ALGORITHM (LGA), with a maximum of 2500000 energy evaluations.

Final-Value: -13.550


	FINAL GENETIC ALGORITHM DOCKED STATE
	_______________________________________________


Detailed state:  trans 37.943 15.332 121.294 quatxyzw 0.184521 0.058156 -0.018117 0.980939 center 0.300 0.400 0.510 ntor 9 -179.8107 27.9696 -99.6322 -83.2149 14.2482 91.8582 31.0389 -157.6871 123.3808
State:	 37.943  15.332 121.294   0.950  0.299 -0.093 22.409   -179.81   27.97  -99.63  -83.21   14.25   91.86   31.04 -157.69  123.38

DOCKED: MODEL       99
DOCKED: USER    Run = 99
DOCKED: USER    DPF = ligand_dock.biased.dpf
DOCKED: USER  
DOCKED: USER    Estimated Free Energy of Binding    =   -9.49 kcal/mol  [=(1)+(2)+(3)-(4)]
DOCKED: USER    Estimated Inhibition Constant, Ki   =  111.32 nM (nanomolar)  [Temperature = 298.15 K]
DOCKED: USER    
DOCKED: USER    (1) Final Intermolecular Energy     =  -12.17 kcal/mol
DOCKED: USER        vdW + Hbond + desolv Energy     =  -12.17 kcal/mol
DOCKED: USER        Electrostatic Energy            =   +0.00 kcal/mol
DOCKED: USER    (2) Final Total Internal Energy     =   -1.38 kcal/mol
DOCKED: USER    (3) Torsional Free Energy           =   +2.68 kcal/mol
DOCKED: USER    (4) Unbound System's Energy  [=(2)] =   -1.38 kcal/mol
DOCKED: USER    
DOCKED: USER    
DOCKED: USER    NEWDPF move ligand.pdbqt
DOCKED: USER    NEWDPF about 0.300000 0.400000 0.510000
DOCKED: USER    NEWDPF tran0 37.943004 15.332065 121.293730
DOCKED: USER    NEWDPF quaternion0 0.184521 0.058156 -0.018117 0.980939
DOCKED: USER    NEWDPF axisangle0 0.949596 0.299289 -0.093237 22.409420
DOCKED: USER    NEWDPF quat0 0.949596 0.299289 -0.093237 22.409420
DOCKED: USER    NEWDPF dihe0 -179.81 27.97 -99.63 -83.21 14.25 91.86 31.04 -157.69 123.38 
DOCKED: USER  keepresnum = 1 
DOCKED: USER  
DOCKED: REMARK  Name = 
DOCKED: REMARK  9 active torsions:
DOCKED: REMARK  status: ('A' for Active; 'I' for Inactive)
DOCKED: REMARK    1  A    between atoms: O_1  and  N_2
DOCKED: REMARK    2  A    between atoms: C_3  and  C_4
DOCKED: REMARK    3  A    between atoms: C_4  and  C_5
DOCKED: REMARK    4  A    between atoms: C_5  and  C_6
DOCKED: REMARK    5  A    between atoms: C_6  and  C_7
DOCKED: REMARK    6  A    between atoms: C_7  and  C_8
DOCKED: REMARK    7  A    between atoms: C_8  and  C_9
DOCKED: REMARK    8  A    between atoms: C_9  and  C_10
DOCKED: REMARK    9  A    between atoms: N_11  and  O_12
DOCKED: REMARK                            x       y       z     vdW  Elec       q    Type
DOCKED: REMARK                         _______ _______ _______ _____ _____    ______ ____
DOCKED: USER                              x       y       z     vdW  Elec       q    Type
DOCKED: USER                           _______ _______ _______ _____ _____    ______ ____
DOCKED: ROOT
DOCKED: ATOM      1  C   UNL     1      37.945  14.091 120.110 -0.36 -0.00    +0.000 C 
DOCKED: ENDROOT
DOCKED: BRANCH   1   2
DOCKED: ATOM      2  C   UNL     1      38.943  14.035 121.273 -0.36 -0.00    +0.000 C 
DOCKED: BRANCH   2   3
DOCKED: ATOM      3  C   UNL     1      39.644  15.383 121.460 -0.31 -0.00    +0.000 C 
DOCKED: BRANCH   3   5
DOCKED: ATOM      4  N   UNL     1      41.684  16.358 122.617 -0.36 -0.00    +0.000 N 
DOCKED: ATOM      5  C   UNL     1      40.837  15.236 122.355 -0.48 -0.00    +0.000 C 
DOCKED: ATOM      6  O   UNL     1      41.069  14.129 122.910 -1.04 +0.00    +0.000 OA
DOCKED: ATOM      7  H   UNL     1      41.494  17.224 122.189 +0.00 -0.00    +0.000 HD
DOCKED: BRANCH   4   8
DOCKED: ATOM      8  O   UNL     1      42.747  16.239 123.448 -1.08 +0.00    +0.000 OA
DOCKED: ATOM      9  H   UNL     1      42.797  15.329 123.780 -0.07 +0.00    +0.000 HD
DOCKED: ENDBRANCH   4   8
DOCKED: ENDBRANCH   3   5
DOCKED: ENDBRANCH   2   3
DOCKED: ENDBRANCH   1   2
DOCKED: BRANCH   1  10
DOCKED: ATOM     10  C   UNL     1      36.757  13.148 120.357 -0.32 -0.00    +0.000 C 
DOCKED: BRANCH  10  11
DOCKED: ATOM     11  C   UNL     1      37.198  11.681 120.540 -0.38 -0.00    +0.000 C 
DOCKED: BRANCH  11  12
DOCKED: ATOM     12  C   UNL     1      37.106  11.191 121.994 -0.50 -0.00    +0.000 C 
DOCKED: BRANCH  12  13
DOCKED: ATOM     13  C   UNL     1      37.068   9.694 122.089 -0.59 -0.00    +0.000 C 
DOCKED: ATOM     14  N   UNL     1      37.068   9.050 123.366 -0.60 -0.00    +0.000 N 
DOCKED: ATOM     15  O   UNL     1      37.007   9.004 121.036 -2.70 -0.00    +0.000 OA
DOCKED: ATOM     16  H   UNL     1      37.111   9.592 124.187 -0.58 -0.00    +0.000 HD
DOCKED: BRANCH  14  17
DOCKED: ATOM     17  O   UNL     1      37.006   7.700 123.456 -2.26 -0.00    +0.000 OA
DOCKED: ATOM     18  H   UNL     1      37.399   7.304 122.662 -0.18 -0.00    +0.000 HD
DOCKED: ENDBRANCH  14  17
DOCKED: ENDBRANCH  12  13
DOCKED: ENDBRANCH  11  12
DOCKED: ENDBRANCH  10  11
DOCKED: ENDBRANCH   1  10
DOCKED: TORSDOF 9
DOCKED: TER
DOCKED: ENDMDL
________________________________________________________________________________


	BEGINNING GENETIC ALGORITHM DOCKING 100 of 100
Run: 100 Seed: 580416742 1207615244 [ Run 100 of 100 GA/GALS ]
Beginning LAMARCKIAN GENETIC ALGORITHM (LGA), with a maximum of 2500000 energy evaluations.

Final-Value: -12.178


	FINAL GENETIC ALGORITHM DOCKED STATE
	_______________________________________________


Detailed state:  trans 36.182 13.140 120.035 quatxyzw -0.810215 0.079118 0.425272 -0.395520 center 0.300 0.400 0.510 ntor 9 179.1947 -18.7198 -10.9537 58.1584 -89.8455 -170.3926 -165.1520 134.5260 -10.2203
State:	 36.182  13.140 120.035  -0.882  0.086  0.463 -133.403    179.19  -18.72  -10.95   58.16  -89.85 -170.39 -165.15  134.53  -10.22

DOCKED: MODEL      100
DOCKED: USER    Run = 100
DOCKED: USER    DPF = ligand_dock.biased.dpf
DOCKED: USER  
DOCKED: USER    Estimated Free Energy of Binding    =   -7.77 kcal/mol  [=(1)+(2)+(3)-(4)]
DOCKED: USER    Estimated Inhibition Constant, Ki   =    2.03 uM (micromolar)  [Temperature = 298.15 K]
DOCKED: USER    
DOCKED: USER    (1) Final Intermolecular Energy     =  -10.45 kcal/mol
DOCKED: USER        vdW + Hbond + desolv Energy     =  -10.45 kcal/mol
DOCKED: USER        Electrostatic Energy            =   +0.00 kcal/mol
DOCKED: USER    (2) Final Total Internal Energy     =   -1.73 kcal/mol
DOCKED: USER    (3) Torsional Free Energy           =   +2.68 kcal/mol
DOCKED: USER    (4) Unbound System's Energy  [=(2)] =   -1.73 kcal/mol
DOCKED: USER    
DOCKED: USER    
DOCKED: USER    NEWDPF move ligand.pdbqt
DOCKED: USER    NEWDPF about 0.300000 0.400000 0.510000
DOCKED: USER    NEWDPF tran0 36.181604 13.139672 120.034957
DOCKED: USER    NEWDPF quaternion0 -0.810215 0.079118 0.425272 -0.395520
DOCKED: USER    NEWDPF axisangle0 -0.882148 0.086142 0.463028 -133.403152
DOCKED: USER    NEWDPF quat0 -0.882148 0.086142 0.463028 -133.403152
DOCKED: USER    NEWDPF dihe0 179.19 -18.72 -10.95 58.16 -89.85 -170.39 -165.15 134.53 -10.22 
DOCKED: USER  keepresnum = 1 
DOCKED: USER  
DOCKED: REMARK  Name = 
DOCKED: REMARK  9 active torsions:
DOCKED: REMARK  status: ('A' for Active; 'I' for Inactive)
DOCKED: REMARK    1  A    between atoms: O_1  and  N_2
DOCKED: REMARK    2  A    between atoms: C_3  and  C_4
DOCKED: REMARK    3  A    between atoms: C_4  and  C_5
DOCKED: REMARK    4  A    between atoms: C_5  and  C_6
DOCKED: REMARK    5  A    between atoms: C_6  and  C_7
DOCKED: REMARK    6  A    between atoms: C_7  and  C_8
DOCKED: REMARK    7  A    between atoms: C_8  and  C_9
DOCKED: REMARK    8  A    between atoms: C_9  and  C_10
DOCKED: REMARK    9  A    between atoms: N_11  and  O_12
DOCKED: REMARK                            x       y       z     vdW  Elec       q    Type
DOCKED: REMARK                         _______ _______ _______ _____ _____    ______ ____
DOCKED: USER                              x       y       z     vdW  Elec       q    Type
DOCKED: USER                           _______ _______ _______ _____ _____    ______ ____
DOCKED: ROOT
DOCKED: ATOM      1  C   UNL     1      37.362  12.496 121.100 -0.53 -0.00    +0.000 C 
DOCKED: ENDROOT
DOCKED: BRANCH   1   2
DOCKED: ATOM      2  C   UNL     1      37.699  13.719 120.240 -0.41 -0.00    +0.000 C 
DOCKED: BRANCH   2   3
DOCKED: ATOM      3  C   UNL     1      37.971  14.947 121.114 -0.31 -0.00    +0.000 C 
DOCKED: BRANCH   3   5
DOCKED: ATOM      4  N   UNL     1      39.895  14.473 122.703 -0.44 -0.00    +0.000 N 
DOCKED: ATOM      5  C   UNL     1      39.425  15.027 121.471 -0.34 -0.00    +0.000 C 
DOCKED: ATOM      6  O   UNL     1      40.239  15.548 120.664 -0.25 -0.00    +0.000 OA
DOCKED: ATOM      7  H   UNL     1      39.256  14.058 123.327 -0.04 -0.00    +0.000 HD
DOCKED: BRANCH   4   8
DOCKED: ATOM      8  O   UNL     1      41.211  14.516 123.020 -1.01 -0.00    +0.000 OA
DOCKED: ATOM      9  H   UNL     1      41.702  14.943 122.301 -0.03 -0.00    +0.000 HD
DOCKED: ENDBRANCH   4   8
DOCKED: ENDBRANCH   3   5
DOCKED: ENDBRANCH   2   3
DOCKED: ENDBRANCH   1   2
DOCKED: BRANCH   1  10
DOCKED: ATOM     10  C   UNL     1      37.028  12.910 122.541 -0.57 -0.00    +0.000 C 
DOCKED: BRANCH  10  11
DOCKED: ATOM     11  C   UNL     1      36.394  11.761 123.352 -0.70 -0.00    +0.000 C 
DOCKED: BRANCH  11  12
DOCKED: ATOM     12  C   UNL     1      37.017  10.387 123.058 -0.61 -0.00    +0.000 C 
DOCKED: BRANCH  12  13
DOCKED: ATOM     13  C   UNL     1      36.159   9.555 122.150 -0.65 -0.00    +0.000 C 
DOCKED: ATOM     14  N   UNL     1      34.743   9.506 122.337 -0.60 -0.00    +0.000 N 
DOCKED: ATOM     15  O   UNL     1      36.691   8.921 121.199 -2.62 -0.00    +0.000 OA
DOCKED: ATOM     16  H   UNL     1      34.330  10.005 123.079 -0.41 -0.00    +0.000 HD
DOCKED: BRANCH  14  17
DOCKED: ATOM     17  O   UNL     1      33.962   8.778 121.503 -0.66 -0.00    +0.000 OA
DOCKED: ATOM     18  H   UNL     1      34.447   8.598 120.682 -0.28 -0.00    +0.000 HD
DOCKED: ENDBRANCH  14  17
DOCKED: ENDBRANCH  12  13
DOCKED: ENDBRANCH  11  12
DOCKED: ENDBRANCH  10  11
DOCKED: ENDBRANCH   1  10
DOCKED: TORSDOF 9
DOCKED: TER
DOCKED: ENDMDL
________________________________________________________________________________

DPF> analysis                             # perform a ranked cluster analysis


		CLUSTER ANALYSIS OF CONFORMATIONS
		_________________________________

Number of conformations = 100

RMSD cluster analysis will be performed using the ligand atoms only (18 / 18 total atoms).

Outputting structurally similar clusters, ranked in order of increasing energy.


________________________________________________________________________________

Number of distinct conformational clusters found = 13,  out of 100 runs,
Using an rmsd-tolerance of 2.0 A


	CLUSTERING HISTOGRAM
	____________________

________________________________________________________________________________
     |           |     |           |     |                                    
Clus | Lowest    | Run | Mean      | Num | Histogram                          
-ter | Binding   |     | Binding   | in  |                                    
Rank | Energy    |     | Energy    | Clus|    5    10   15   20   25   30   35
_____|___________|_____|___________|_____|____:____|____:____|____:____|____:___
   1 |    -10.66 |  77 |     -9.99 |   2 |##
   2 |    -10.53 |   2 |     -9.63 |  32 |################################
   3 |    -10.43 |  94 |     -9.26 |  43 |###########################################
   4 |     -9.80 |  31 |     -9.80 |   1 |#
   5 |     -9.49 |  11 |     -8.47 |  12 |############
   6 |     -9.42 |  20 |     -9.42 |   1 |#
   7 |     -9.07 |  17 |     -9.07 |   1 |#
   8 |     -8.96 |  54 |     -8.58 |   3 |###
   9 |     -8.95 |   3 |     -8.95 |   1 |#
  10 |     -8.87 |  33 |     -8.87 |   1 |#
  11 |     -8.54 |  49 |     -8.54 |   1 |#
  12 |     -8.32 |   9 |     -8.32 |   1 |#
  13 |     -7.77 | 100 |     -7.77 |   1 |#
_____|___________|_____|___________|_____|______________________________________


Number of multi-member conformational clusters found = 5, out of 100 runs.

	RMSD TABLE
	__________

_____________________________________________________________________
     |      |      |           |         |                 |
Rank | Sub- | Run  | Binding   | Cluster | Reference       | Grep
     | Rank |      | Energy    | RMSD    | RMSD            | Pattern
_____|______|______|___________|_________|_________________|___________
   1      1     77      -10.66      0.00    117.07           RANKING
   1      2     40       -9.31      0.84    117.18           RANKING
   2      1      2      -10.53      0.00    126.38           RANKING
   2      2      7      -10.24      0.76    126.35           RANKING
   2      3     46      -10.24      0.88    126.23           RANKING
   2      4     75      -10.21      0.93    126.19           RANKING
   2      5     91      -10.17      0.80    126.31           RANKING
   2      6     25      -10.15      1.22    126.11           RANKING
   2      7     34      -10.12      1.25    126.16           RANKING
   2      8     70      -10.10      0.97    126.18           RANKING
   2      9     69       -9.99      0.93    126.26           RANKING
   2     10     95       -9.91      1.16    126.34           RANKING
   2     11     38       -9.82      0.79    126.10           RANKING
   2     12     13       -9.76      0.98    126.01           RANKING
   2     13     65       -9.67      0.93    126.15           RANKING
   2     14     36       -9.59      1.48    126.04           RANKING
   2     15     67       -9.58      1.41    126.11           RANKING
   2     16     66       -9.51      1.46    126.09           RANKING
   2     17      4       -9.50      1.37    126.00           RANKING
   2     18     99       -9.49      1.19    125.81           RANKING
   2     19     58       -9.46      1.40    126.18           RANKING
   2     20     57       -9.40      1.12    126.07           RANKING
   2     21     15       -9.36      1.19    126.17           RANKING
   2     22     22       -9.32      1.46    126.03           RANKING
   2     23     26       -9.31      1.73    125.96           RANKING
   2     24     44       -9.28      2.00    125.26           RANKING
   2     25     68       -9.27      1.28    126.22           RANKING
   2     26     85       -9.26      1.22    126.24           RANKING
   2     27     83       -9.25      1.41    125.89           RANKING
   2     28     97       -9.25      1.86    126.01           RANKING
   2     29     28       -9.24      1.75    125.93           RANKING
   2     30     21       -9.21      1.09    126.04           RANKING
   2     31     81       -9.16      1.42    126.14           RANKING
   2     32     93       -8.77      1.64    125.97           RANKING
   3      1     94      -10.43      0.00    126.49           RANKING
   3      2     88      -10.34      0.70    126.50           RANKING
   3      3     78      -10.10      0.70    126.52           RANKING
   3      4     51      -10.03      1.13    126.74           RANKING
   3      5     39      -10.02      0.93    126.42           RANKING
   3      6     55       -9.90      1.15    126.57           RANKING
   3      7     24       -9.90      1.20    126.66           RANKING
   3      8     37       -9.86      0.76    126.32           RANKING
   3      9     63       -9.82      1.16    126.42           RANKING
   3     10     32       -9.69      1.26    126.46           RANKING
   3     11     84       -9.61      1.23    126.48           RANKING
   3     12     19       -9.49      1.13    126.59           RANKING
   3     13     56       -9.48      1.21    126.42           RANKING
   3     14     98       -9.47      1.60    125.84           RANKING
   3     15     76       -9.46      1.16    126.76           RANKING
   3     16     62       -9.46      1.10    126.25           RANKING
   3     17     80       -9.44      1.11    126.70           RANKING
   3     18     23       -9.44      1.27    126.60           RANKING
   3     19     45       -9.34      0.99    126.27           RANKING
   3     20     74       -9.31      1.26    126.45           RANKING
   3     21     87       -9.26      1.31    126.08           RANKING
   3     22     82       -9.25      1.33    126.20           RANKING
   3     23     73       -9.14      1.23    126.55           RANKING
   3     24     14       -9.09      1.92    125.70           RANKING
   3     25     53       -9.08      1.54    125.98           RANKING
   3     26     59       -9.07      1.37    126.06           RANKING
   3     27      8       -9.05      1.27    126.37           RANKING
   3     28     60       -9.04      1.59    125.92           RANKING
   3     29      1       -8.95      1.79    125.57           RANKING
   3     30     29       -8.94      1.66    125.82           RANKING
   3     31     72       -8.93      1.35    126.08           RANKING
   3     32     86       -8.90      1.45    126.07           RANKING
   3     33     89       -8.89      1.77    125.75           RANKING
   3     34     48       -8.87      1.56    126.01           RANKING
   3     35     50       -8.87      1.34    126.60           RANKING
   3     36      6       -8.84      1.64    126.00           RANKING
   3     37     27       -8.79      1.68    125.82           RANKING
   3     38     10       -8.69      1.81    125.71           RANKING
   3     39     16       -8.62      1.99    125.82           RANKING
   3     40     61       -8.57      1.80    125.92           RANKING
   3     41     64       -8.52      1.97    125.77           RANKING
   3     42     12       -8.51      1.64    125.88           RANKING
   3     43     92       -7.86      1.65    126.00           RANKING
   4      1     31       -9.80      0.00    118.60           RANKING
   5      1     11       -9.49      0.00    125.38           RANKING
   5      2     79       -9.28      0.88    125.00           RANKING
   5      3     42       -9.06      1.75    124.27           RANKING
   5      4      5       -9.02      1.17    124.79           RANKING
   5      5     71       -8.92      1.68    124.24           RANKING
   5      6     18       -8.87      1.55    124.34           RANKING
   5      7     96       -8.71      1.89    124.08           RANKING
   5      8     90       -8.34      1.46    124.49           RANKING
   5      9     43       -8.01      1.66    124.29           RANKING
   5     10     30       -7.97      1.88    125.45           RANKING
   5     11     52       -7.91      1.23    124.91           RANKING
   5     12     41       -6.05      1.42    124.38           RANKING
   6      1     20       -9.42      0.00    120.20           RANKING
   7      1     17       -9.07      0.00    125.51           RANKING
   8      1     54       -8.96      0.00    123.96           RANKING
   8      2     47       -8.47      1.48    123.84           RANKING
   8      3     35       -8.32      1.03    123.35           RANKING
   9      1      3       -8.95      0.00    122.57           RANKING
  10      1     33       -8.87      0.00    116.43           RANKING
  11      1     49       -8.54      0.00    123.52           RANKING
  12      1      9       -8.32      0.00    117.82           RANKING
  13      1    100       -7.77      0.00    125.17           RANKING
_______________________________________________________________________



	INFORMATION ENTROPY ANALYSIS FOR THIS CLUSTERING
	________________________________________________


Information entropy for this clustering = 0.33  (rmstol = 2.00 Angstrom)

_______________________________________________________________________


	STATISTICAL MECHANICAL ANALYSIS
	_______________________________


Partition function, Q =   101.57            at Temperature, T = 298.15 K
Free energy,        A ~ -2737.72 kcal/mol   at Temperature, T = 298.15 K
Internal energy,    U =    -9.25 kcal/mol   at Temperature, T = 298.15 K
Entropy,            S =     9.15 kcal/mol/K at Temperature, T = 298.15 K

_______________________________________________________________________


	LOWEST ENERGY DOCKED CONFORMATION from EACH CLUSTER
	___________________________________________________



Keeping original residue number (specified in the input PDBQ file) for outputting.

MODEL       77
USER    Run = 77
USER    Cluster Rank = 1
USER    Number of conformations in this cluster = 2
USER  
USER    RMSD from reference structure       = 117.066 A
USER  
USER    Estimated Free Energy of Binding    =  -10.66 kcal/mol  [=(1)+(2)+(3)-(4)]
USER    Estimated Inhibition Constant, Ki   =   15.28 nM (nanomolar)  [Temperature = 298.15 K]
USER    
USER    (1) Final Intermolecular Energy     =  -13.35 kcal/mol
USER        vdW + Hbond + desolv Energy     =  -13.35 kcal/mol
USER        Electrostatic Energy            =   +0.00 kcal/mol
USER    (2) Final Total Internal Energy     =   -1.72 kcal/mol
USER    (3) Torsional Free Energy           =   +2.68 kcal/mol
USER    (4) Unbound System's Energy  [=(2)] =   -1.72 kcal/mol
USER    
USER    
USER  
USER    DPF = ligand_dock.biased.dpf
USER    NEWDPF move	ligand.pdbqt
USER    NEWDPF about	0.300000 0.400000 0.510000
USER    NEWDPF tran0	30.119572 5.819127 115.782135
USER    NEWDPF axisangle0	0.157394 0.738149 -0.656020 -92.174387
USER    NEWDPF quaternion0	0.113386 0.531760 -0.472595 -0.693563
USER    NEWDPF dihe0	178.05 26.63 -155.74 162.64 87.89 -32.82 -135.54 156.34 -16.17 
USER  
USER                              x       y       z    vdW   Elec        q     RMS 
ATOM      1  C   UNL     1      28.587   6.559 115.568 -0.54 -0.00    +0.000    117.066
ATOM      2  C   UNL     1      28.783   5.089 115.179 -0.71 +0.00    +0.000    117.066
ATOM      3  C   UNL     1      27.514   4.276 115.447 -0.67 -0.00    +0.000    117.066
ATOM      4  N   UNL     1      26.547   3.971 117.777 -0.66 -0.00    +0.000    117.066
ATOM      5  C   UNL     1      27.561   3.664 116.815 -0.68 -0.00    +0.000    117.066
ATOM      6  O   UNL     1      28.474   2.845 117.102 -1.21 +0.00    +0.000    117.066
ATOM      7  H   UNL     1      25.831   4.605 117.544 -0.46 -0.00    +0.000    117.066
ATOM      8  O   UNL     1      26.567   3.400 119.004 -0.87 -0.00    +0.000    117.066
ATOM      9  H   UNL     1      27.314   2.784 119.061 -0.62 -0.00    +0.000    117.066
ATOM     10  C   UNL     1      27.885   6.681 116.929 -0.62 -0.00    +0.000    117.066
ATOM     11  C   UNL     1      28.066   8.075 117.562 -0.61 -0.00    +0.000    117.066
ATOM     12  C   UNL     1      27.492   9.216 116.707 -0.69 +0.00    +0.000    117.066
ATOM     13  C   UNL     1      26.243   8.812 115.982 -0.88 -0.00    +0.000    117.066
ATOM     14  N   UNL     1      25.077   8.420 116.712 -0.74 -0.00    +0.000    117.066
ATOM     15  O   UNL     1      26.213   8.847 114.722 -1.53 -0.00    +0.000    117.066
ATOM     16  H   UNL     1      25.102   8.397 117.696 -0.06 -0.00    +0.000    117.066
ATOM     17  O   UNL     1      23.938   8.081 116.062 -1.39 -0.00    +0.000    117.066
ATOM     18  H   UNL     1      24.158   7.748 115.178 -0.41 -0.00    +0.000    117.066
TER
ENDMDL
MODEL        2
USER    Run = 2
USER    Cluster Rank = 2
USER    Number of conformations in this cluster = 32
USER  
USER    RMSD from reference structure       = 126.381 A
USER  
USER    Estimated Free Energy of Binding    =  -10.53 kcal/mol  [=(1)+(2)+(3)-(4)]
USER    Estimated Inhibition Constant, Ki   =   19.13 nM (nanomolar)  [Temperature = 298.15 K]
USER    
USER    (1) Final Intermolecular Energy     =  -13.21 kcal/mol
USER        vdW + Hbond + desolv Energy     =  -13.21 kcal/mol
USER        Electrostatic Energy            =   +0.00 kcal/mol
USER    (2) Final Total Internal Energy     =   -0.97 kcal/mol
USER    (3) Torsional Free Energy           =   +2.68 kcal/mol
USER    (4) Unbound System's Energy  [=(2)] =   -0.97 kcal/mol
USER    
USER    
USER  
USER    DPF = ligand_dock.biased.dpf
USER    NEWDPF move	ligand.pdbqt
USER    NEWDPF about	0.300000 0.400000 0.510000
USER    NEWDPF tran0	37.636286 15.238612 121.286312
USER    NEWDPF axisangle0	0.918149 0.369474 -0.143150 102.203334
USER    NEWDPF quaternion0	0.714560 0.287547 -0.111408 0.627940
USER    NEWDPF dihe0	39.82 -0.18 -45.46 169.57 91.23 86.31 6.29 -15.32 40.79 
USER  
USER                              x       y       z    vdW   Elec        q     RMS 
ATOM      1  C   UNL     1      38.083  13.879 122.231 -0.47 -0.00    +0.000    126.381
ATOM      2  C   UNL     1      38.365  15.293 122.752 -0.37 -0.00    +0.000    126.381
ATOM      3  C   UNL     1      39.515  15.944 121.979 -0.28 -0.00    +0.000    126.381
ATOM      4  N   UNL     1      41.750  16.679 122.938 -0.36 -0.00    +0.000    126.381
ATOM      5  C   UNL     1      40.829  15.629 122.626 -0.44 -0.00    +0.000    126.381
ATOM      6  O   UNL     1      41.105  14.438 122.933 -1.05 -0.00    +0.000    126.381
ATOM      7  H   UNL     1      41.526  17.608 122.705 -0.00 -0.00    +0.000    126.381
ATOM      8  O   UNL     1      42.926  16.404 123.549 -0.99 +0.00    +0.000    126.381
ATOM      9  H   UNL     1      43.116  17.090 124.208 -0.64 -0.00    +0.000    126.381
ATOM     10  C   UNL     1      36.832  13.286 122.896 -0.57 -0.00    +0.000    126.381
ATOM     11  C   UNL     1      36.988  11.783 123.210 -0.67 -0.00    +0.000    126.381
ATOM     12  C   UNL     1      36.094  10.881 122.344 -0.66 -0.00    +0.000    126.381
ATOM     13  C   UNL     1      36.652   9.496 122.201 -0.71 -0.00    +0.000    126.381
ATOM     14  N   UNL     1      36.691   8.612 123.324 -0.65 -0.00    +0.000    126.381
ATOM     15  O   UNL     1      37.061   9.101 121.076 -2.73 -0.00    +0.000    126.381
ATOM     16  H   UNL     1      36.367   8.922 124.201 -0.35 -0.00    +0.000    126.381
ATOM     17  O   UNL     1      37.167   7.351 123.193 -2.10 -0.00    +0.000    126.381
ATOM     18  H   UNL     1      37.441   7.203 122.274 -0.18 -0.00    +0.000    126.381
TER
ENDMDL
MODEL       94
USER    Run = 94
USER    Cluster Rank = 3
USER    Number of conformations in this cluster = 43
USER  
USER    RMSD from reference structure       = 126.494 A
USER  
USER    Estimated Free Energy of Binding    =  -10.43 kcal/mol  [=(1)+(2)+(3)-(4)]
USER    Estimated Inhibition Constant, Ki   =   22.49 nM (nanomolar)  [Temperature = 298.15 K]
USER    
USER    (1) Final Intermolecular Energy     =  -13.12 kcal/mol
USER        vdW + Hbond + desolv Energy     =  -13.12 kcal/mol
USER        Electrostatic Energy            =   +0.00 kcal/mol
USER    (2) Final Total Internal Energy     =   -1.15 kcal/mol
USER    (3) Torsional Free Energy           =   +2.68 kcal/mol
USER    (4) Unbound System's Energy  [=(2)] =   -1.15 kcal/mol
USER    
USER    
USER  
USER    DPF = ligand_dock.biased.dpf
USER    NEWDPF move	ligand.pdbqt
USER    NEWDPF about	0.300000 0.400000 0.510000
USER    NEWDPF tran0	37.741501 14.487843 123.309530
USER    NEWDPF axisangle0	0.550088 0.812401 0.193413 -151.167605
USER    NEWDPF quaternion0	0.532767 0.786821 0.187323 -0.248964
USER    NEWDPF dihe0	177.89 -178.38 -164.39 147.02 150.75 180.00 -54.04 -45.63 -114.88 
USER  
USER                              x       y       z    vdW   Elec        q     RMS 
ATOM      1  C   UNL     1      36.350  13.997 124.184 -0.31 -0.00    +0.000    126.494
ATOM      2  C   UNL     1      36.196  14.884 122.943 -0.40 -0.00    +0.000    126.494
ATOM      3  C   UNL     1      35.249  16.055 123.218 -0.43 -0.00    +0.000    126.494
ATOM      4  N   UNL     1      34.246  16.285 125.541 -0.47 -0.00    +0.000    126.494
ATOM      5  C   UNL     1      34.227  15.675 124.247 -0.58 -0.00    +0.000    126.494
ATOM      6  O   UNL     1      33.326  14.845 123.956 -0.63 -0.00    +0.000    126.494
ATOM      7  H   UNL     1      34.947  16.940 125.761 -0.02 -0.00    +0.000    126.494
ATOM      8  O   UNL     1      33.309  15.968 126.465 -1.09 -0.00    +0.000    126.494
ATOM      9  H   UNL     1      32.678  15.338 126.083 -0.22 -0.00    +0.000    126.494
ATOM     10  C   UNL     1      36.033  12.530 123.856 -0.62 -0.00    +0.000    126.494
ATOM     11  C   UNL     1      37.009  11.933 122.822 -0.64 -0.00    +0.000    126.494
ATOM     12  C   UNL     1      36.332  10.995 121.810 -0.50 -0.00    +0.000    126.494
ATOM     13  C   UNL     1      36.751   9.566 121.989 -0.67 -0.00    +0.000    126.494
ATOM     14  N   UNL     1      36.782   8.979 123.293 -0.62 -0.00    +0.000    126.494
ATOM     15  O   UNL     1      37.048   8.872 120.980 -2.71 -0.00    +0.000    126.494
ATOM     16  H   UNL     1      36.546   9.521 124.079 -0.42 -0.00    +0.000    126.494
ATOM     17  O   UNL     1      37.133   7.680 123.455 -2.25 -0.00    +0.000    126.494
ATOM     18  H   UNL     1      37.074   7.445 124.395 -0.54 -0.00    +0.000    126.494
TER
ENDMDL
MODEL       31
USER    Run = 31
USER    Cluster Rank = 4
USER    Number of conformations in this cluster = 1
USER  
USER    RMSD from reference structure       = 118.602 A
USER  
USER    Estimated Free Energy of Binding    =   -9.80 kcal/mol  [=(1)+(2)+(3)-(4)]
USER    Estimated Inhibition Constant, Ki   =   65.71 nM (nanomolar)  [Temperature = 298.15 K]
USER    
USER    (1) Final Intermolecular Energy     =  -12.48 kcal/mol
USER        vdW + Hbond + desolv Energy     =  -12.48 kcal/mol
USER        Electrostatic Energy            =   +0.00 kcal/mol
USER    (2) Final Total Internal Energy     =   -1.81 kcal/mol
USER    (3) Torsional Free Energy           =   +2.68 kcal/mol
USER    (4) Unbound System's Energy  [=(2)] =   -1.81 kcal/mol
USER    
USER    
USER  
USER    DPF = ligand_dock.biased.dpf
USER    NEWDPF move	ligand.pdbqt
USER    NEWDPF about	0.300000 0.400000 0.510000
USER    NEWDPF tran0	27.368423 5.294921 116.316691
USER    NEWDPF axisangle0	-0.848988 0.327125 0.414980 148.408245
USER    NEWDPF quaternion0	-0.816929 0.314772 0.399309 0.272211
USER    NEWDPF dihe0	179.32 4.97 180.00 12.45 149.82 -121.07 56.23 -123.88 -85.28 
USER  
USER                              x       y       z    vdW   Elec        q     RMS 
ATOM      1  C   UNL     1      28.759   6.210 116.728 -0.63 +0.00    +0.000    118.602
ATOM      2  C   UNL     1      28.671   5.536 115.354 -0.73 -0.00    +0.000    118.602
ATOM      3  C   UNL     1      27.689   4.362 115.381 -0.72 -0.00    +0.000    118.602
ATOM      4  N   UNL     1      26.648   4.098 117.683 -0.64 -0.00    +0.000    118.602
ATOM      5  C   UNL     1      27.659   3.731 116.740 -0.69 -0.00    +0.000    118.602
ATOM      6  O   UNL     1      28.505   2.846 117.037 -1.22 +0.00    +0.000    118.602
ATOM      7  H   UNL     1      25.983   4.784 117.443 -0.51 -0.00    +0.000    118.602
ATOM      8  O   UNL     1      26.597   3.512 118.902 -0.86 -0.00    +0.000    118.602
ATOM      9  H   UNL     1      27.310   2.858 118.976 -0.60 -0.00    +0.000    118.602
ATOM     10  C   UNL     1      28.432   7.708 116.629 -0.47 -0.00    +0.000    118.602
ATOM     11  C   UNL     1      26.939   8.003 116.882 -0.66 -0.00    +0.000    118.602
ATOM     12  C   UNL     1      26.698   9.275 117.710 -0.74 +0.00    +0.000    118.602
ATOM     13  C   UNL     1      27.476   9.275 118.993 -0.70 +0.00    +0.000    118.602
ATOM     14  N   UNL     1      26.923   8.691 120.175 -0.65 -0.00    +0.000    118.602
ATOM     15  O   UNL     1      28.636   9.768 119.018 -0.73 +0.00    +0.000    118.602
ATOM     16  H   UNL     1      26.018   8.304 120.151 -0.55 -0.00    +0.000    118.602
ATOM     17  O   UNL     1      27.633   8.665 121.328 -0.78 -0.00    +0.000    118.602
ATOM     18  H   UNL     1      28.463   9.152 121.207 -0.60 -0.00    +0.000    118.602
TER
ENDMDL
MODEL       11
USER    Run = 11
USER    Cluster Rank = 5
USER    Number of conformations in this cluster = 12
USER  
USER    RMSD from reference structure       = 125.379 A
USER  
USER    Estimated Free Energy of Binding    =   -9.49 kcal/mol  [=(1)+(2)+(3)-(4)]
USER    Estimated Inhibition Constant, Ki   =  110.99 nM (nanomolar)  [Temperature = 298.15 K]
USER    
USER    (1) Final Intermolecular Energy     =  -12.17 kcal/mol
USER        vdW + Hbond + desolv Energy     =  -12.17 kcal/mol
USER        Electrostatic Energy            =   +0.00 kcal/mol
USER    (2) Final Total Internal Energy     =   -1.77 kcal/mol
USER    (3) Torsional Free Energy           =   +2.68 kcal/mol
USER    (4) Unbound System's Energy  [=(2)] =   -1.77 kcal/mol
USER    
USER    
USER  
USER    DPF = ligand_dock.biased.dpf
USER    NEWDPF move	ligand.pdbqt
USER    NEWDPF about	0.300000 0.400000 0.510000
USER    NEWDPF tran0	37.665883 14.638504 123.277775
USER    NEWDPF axisangle0	0.622507 0.738384 0.259373 -163.778252
USER    NEWDPF quaternion0	0.616280 0.730998 0.256779 -0.141089
USER    NEWDPF dihe0	179.06 35.32 141.15 96.81 -122.68 155.63 74.91 -35.97 -53.33 
USER  
USER                              x       y       z    vdW   Elec        q     RMS 
ATOM      1  C   UNL     1      36.298  14.058 124.135 -0.38 -0.00    +0.000    125.379
ATOM      2  C   UNL     1      36.159  15.276 123.215 -0.44 -0.00    +0.000    125.379
ATOM      3  C   UNL     1      37.515  15.681 122.630 -0.33 -0.00    +0.000    125.379
ATOM      4  N   UNL     1      37.438  13.913 120.808 -0.35 -0.00    +0.000    125.379
ATOM      5  C   UNL     1      38.134  14.533 121.893 -0.40 -0.00    +0.000    125.379
ATOM      6  O   UNL     1      39.290  14.139 122.206 -0.80 -0.00    +0.000    125.379
ATOM      7  H   UNL     1      36.540  14.230 120.561 -0.01 -0.00    +0.000    125.379
ATOM      8  O   UNL     1      38.004  12.894 120.119 -0.48 -0.00    +0.000    125.379
ATOM      9  H   UNL     1      38.888  12.714 120.477 -0.12 -0.00    +0.000    125.379
ATOM     10  C   UNL     1      35.770  12.788 123.453 -0.56 -0.00    +0.000    125.379
ATOM     11  C   UNL     1      36.822  11.661 123.410 -0.69 -0.00    +0.000    125.379
ATOM     12  C   UNL     1      36.970  11.014 122.023 -0.57 -0.00    +0.000    125.379
ATOM     13  C   UNL     1      37.048   9.517 122.098 -0.62 -0.00    +0.000    125.379
ATOM     14  N   UNL     1      37.068   8.856 123.366 -0.63 -0.00    +0.000    125.379
ATOM     15  O   UNL     1      37.067   8.840 121.036 -2.70 -0.00    +0.000    125.379
ATOM     16  H   UNL     1      37.050   9.388 124.195 -0.57 -0.00    +0.000    125.379
ATOM     17  O   UNL     1      37.111   7.504 123.438 -2.17 -0.00    +0.000    125.379
ATOM     18  H   UNL     1      37.652   7.159 122.711 -0.36 -0.00    +0.000    125.379
TER
ENDMDL
MODEL       20
USER    Run = 20
USER    Cluster Rank = 6
USER    Number of conformations in this cluster = 1
USER  
USER    RMSD from reference structure       = 120.197 A
USER  
USER    Estimated Free Energy of Binding    =   -9.42 kcal/mol  [=(1)+(2)+(3)-(4)]
USER    Estimated Inhibition Constant, Ki   =  123.80 nM (nanomolar)  [Temperature = 298.15 K]
USER    
USER    (1) Final Intermolecular Energy     =  -12.11 kcal/mol
USER        vdW + Hbond + desolv Energy     =  -12.11 kcal/mol
USER        Electrostatic Energy            =   +0.00 kcal/mol
USER    (2) Final Total Internal Energy     =   -1.42 kcal/mol
USER    (3) Torsional Free Energy           =   +2.68 kcal/mol
USER    (4) Unbound System's Energy  [=(2)] =   -1.42 kcal/mol
USER    
USER    
USER  
USER    DPF = ligand_dock.biased.dpf
USER    NEWDPF move	ligand.pdbqt
USER    NEWDPF about	0.300000 0.400000 0.510000
USER    NEWDPF tran0	29.018534 8.203341 118.550609
USER    NEWDPF axisangle0	-0.746149 -0.531465 0.401007 136.725009
USER    NEWDPF quaternion0	-0.693572 -0.494016 0.372750 0.368733
USER    NEWDPF dihe0	179.41 -21.01 -174.81 -77.06 -21.60 138.52 176.17 -58.34 -46.27 
USER  
USER                              x       y       z    vdW   Elec        q     RMS 
ATOM      1  C   UNL     1      28.512   9.653 119.314 -0.67 +0.00    +0.000    120.197
ATOM      2  C   UNL     1      28.160   9.405 117.843 -0.68 +0.00    +0.000    120.197
ATOM      3  C   UNL     1      26.742   8.844 117.704 -0.65 -0.00    +0.000    120.197
ATOM      4  N   UNL     1      26.192   8.047 115.355 -0.78 -0.00    +0.000    120.197
ATOM      5  C   UNL     1      26.208   9.097 116.327 -0.87 +0.00    +0.000    120.197
ATOM      6  O   UNL     1      25.736  10.229 116.038 -0.85 +0.00    +0.000    120.197
ATOM      7  H   UNL     1      26.554   7.162 115.589 -0.44 -0.00    +0.000    120.197
ATOM      8  O   UNL     1      25.686   8.261 114.118 -1.09 -0.00    +0.000    120.197
ATOM      9  H   UNL     1      25.366   9.174 114.054 -0.09 -0.00    +0.000    120.197
ATOM     10  C   UNL     1      27.312   9.358 120.226 -0.73 +0.00    +0.000    120.197
ATOM     11  C   UNL     1      27.690   8.466 121.427 -0.26 -0.00    +0.000    120.197
ATOM     12  C   UNL     1      26.511   7.648 121.977 -0.41 -0.00    +0.000    120.197
ATOM     13  C   UNL     1      26.676   7.317 123.430 -0.86 -0.00    +0.000    120.197
ATOM     14  N   UNL     1      25.701   6.519 124.107 -0.87 -0.00    +0.000    120.197
ATOM     15  O   UNL     1      27.697   7.721 124.050 -1.18 -0.00    +0.000    120.197
ATOM     16  H   UNL     1      24.907   6.202 123.620 -0.03 -0.00    +0.000    120.197
ATOM     17  O   UNL     1      25.861   6.195 125.412 -1.14 -0.00    +0.000    120.197
ATOM     18  H   UNL     1      26.797   6.279 125.654 -0.50 -0.00    +0.000    120.197
TER
ENDMDL
MODEL       17
USER    Run = 17
USER    Cluster Rank = 7
USER    Number of conformations in this cluster = 1
USER  
USER    RMSD from reference structure       = 125.514 A
USER  
USER    Estimated Free Energy of Binding    =   -9.07 kcal/mol  [=(1)+(2)+(3)-(4)]
USER    Estimated Inhibition Constant, Ki   =  226.54 nM (nanomolar)  [Temperature = 298.15 K]
USER    
USER    (1) Final Intermolecular Energy     =  -11.75 kcal/mol
USER        vdW + Hbond + desolv Energy     =  -11.75 kcal/mol
USER        Electrostatic Energy            =   +0.00 kcal/mol
USER    (2) Final Total Internal Energy     =   -2.42 kcal/mol
USER    (3) Torsional Free Energy           =   +2.68 kcal/mol
USER    (4) Unbound System's Energy  [=(2)] =   -2.42 kcal/mol
USER    
USER    
USER  
USER    DPF = ligand_dock.biased.dpf
USER    NEWDPF move	ligand.pdbqt
USER    NEWDPF about	0.300000 0.400000 0.510000
USER    NEWDPF tran0	37.201148 13.975593 122.320181
USER    NEWDPF axisangle0	-0.504601 -0.102191 -0.857284 71.353808
USER    NEWDPF quaternion0	-0.294290 -0.059599 -0.499980 0.812319
USER    NEWDPF dihe0	-180.00 27.74 169.89 -135.76 -143.97 77.84 55.60 -178.35 -123.90 
USER  
USER                              x       y       z    vdW   Elec        q     RMS 
ATOM      1  C   UNL     1      37.065  14.218 120.628 -0.30 -0.00    +0.000    125.514
ATOM      2  C   UNL     1      38.359  14.609 121.351 -0.36 -0.00    +0.000    125.514
ATOM      3  C   UNL     1      38.102  14.863 122.838 -0.41 -0.00    +0.000    125.514
ATOM      4  N   UNL     1      37.426  12.625 123.831 -0.54 -0.00    +0.000    125.514
ATOM      5  C   UNL     1      37.057  13.924 123.360 -0.52 -0.00    +0.000    125.514
ATOM      6  O   UNL     1      35.855  14.297 123.419 -0.57 -0.00    +0.000    125.514
ATOM      7  H   UNL     1      38.368  12.341 123.791 -0.03 -0.00    +0.000    125.514
ATOM      8  O   UNL     1      36.491  11.782 124.330 -0.74 -0.00    +0.000    125.514
ATOM      9  H   UNL     1      35.621  12.209 124.297 -0.05 -0.00    +0.000    125.514
ATOM     10  C   UNL     1      37.222  12.871 119.905 -0.47 -0.00    +0.000    125.514
ATOM     11  C   UNL     1      37.713  11.752 120.847 -0.32 -0.00    +0.000    125.514
ATOM     12  C   UNL     1      36.576  11.049 121.607 -0.48 -0.00    +0.000    125.514
ATOM     13  C   UNL     1      36.856   9.593 121.832 -0.60 -0.00    +0.000    125.514
ATOM     14  N   UNL     1      36.852   9.051 123.155 -0.65 -0.00    +0.000    125.514
ATOM     15  O   UNL     1      37.067   8.839 120.844 -2.72 -0.00    +0.000    125.514
ATOM     16  H   UNL     1      36.684   9.642 123.924 -0.44 -0.00    +0.000    125.514
ATOM     17  O   UNL     1      37.077   7.731 123.360 -2.30 -0.00    +0.000    125.514
ATOM     18  H   UNL     1      37.631   7.383 122.644 -0.25 -0.00    +0.000    125.514
TER
ENDMDL
MODEL       54
USER    Run = 54
USER    Cluster Rank = 8
USER    Number of conformations in this cluster = 3
USER  
USER    RMSD from reference structure       = 123.955 A
USER  
USER    Estimated Free Energy of Binding    =   -8.96 kcal/mol  [=(1)+(2)+(3)-(4)]
USER    Estimated Inhibition Constant, Ki   =  268.34 nM (nanomolar)  [Temperature = 298.15 K]
USER    
USER    (1) Final Intermolecular Energy     =  -11.65 kcal/mol
USER        vdW + Hbond + desolv Energy     =  -11.65 kcal/mol
USER        Electrostatic Energy            =   +0.00 kcal/mol
USER    (2) Final Total Internal Energy     =   -1.41 kcal/mol
USER    (3) Torsional Free Energy           =   +2.68 kcal/mol
USER    (4) Unbound System's Energy  [=(2)] =   -1.41 kcal/mol
USER    
USER    
USER  
USER    DPF = ligand_dock.biased.dpf
USER    NEWDPF move	ligand.pdbqt
USER    NEWDPF about	0.300000 0.400000 0.510000
USER    NEWDPF tran0	38.377247 14.517239 121.508939
USER    NEWDPF axisangle0	0.265051 -0.963905 0.025201 91.310219
USER    NEWDPF quaternion0	0.189550 -0.689332 0.018023 0.698976
USER    NEWDPF dihe0	-180.00 34.22 -71.07 130.38 -115.95 75.33 -41.67 104.29 105.40 
USER  
USER                              x       y       z    vdW   Elec        q     RMS 
ATOM      1  C   UNL     1      37.042  13.531 121.941 -0.46 -0.00    +0.000    123.955
ATOM      2  C   UNL     1      38.120  12.983 120.998 -0.44 -0.00    +0.000    123.955
ATOM      3  C   UNL     1      37.517  12.583 119.648 -0.47 -0.00    +0.000    123.955
ATOM      4  N   UNL     1      35.903  13.631 117.990 -0.38 -0.00    +0.000    123.955
ATOM      5  C   UNL     1      36.954  13.783 118.948 -0.40 -0.00    +0.000    123.955
ATOM      6  O   UNL     1      37.383  14.932 119.234 -0.25 -0.00    +0.000    123.955
ATOM      7  H   UNL     1      35.565  12.731 117.776 -0.06 -0.00    +0.000    123.955
ATOM      8  O   UNL     1      35.370  14.712 117.374 -0.31 -0.00    +0.000    123.955
ATOM      9  H   UNL     1      35.812  15.515 117.693 -0.01 -0.00    +0.000    123.955
ATOM     10  C   UNL     1      37.240  13.002 123.370 -0.59 -0.00    +0.000    123.955
ATOM     11  C   UNL     1      36.769  11.542 123.528 -0.70 -0.00    +0.000    123.955
ATOM     12  C   UNL     1      36.405  10.868 122.195 -0.65 -0.00    +0.000    123.955
ATOM     13  C   UNL     1      36.790   9.419 122.165 -0.69 -0.00    +0.000    123.955
ATOM     14  N   UNL     1      36.818   8.652 123.372 -0.64 -0.00    +0.000    123.955
ATOM     15  O   UNL     1      37.063   8.869 121.064 -2.70 -0.00    +0.000    123.955
ATOM     16  H   UNL     1      36.600   9.083 124.230 -0.42 -0.00    +0.000    123.955
ATOM     17  O   UNL     1      37.138   7.336 123.345 -2.08 -0.00    +0.000    123.955
ATOM     18  H   UNL     1      37.801   7.179 122.654 -0.41 -0.00    +0.000    123.955
TER
ENDMDL
MODEL        3
USER    Run = 3
USER    Cluster Rank = 9
USER    Number of conformations in this cluster = 1
USER  
USER    RMSD from reference structure       = 122.569 A
USER  
USER    Estimated Free Energy of Binding    =   -8.95 kcal/mol  [=(1)+(2)+(3)-(4)]
USER    Estimated Inhibition Constant, Ki   =  277.14 nM (nanomolar)  [Temperature = 298.15 K]
USER    
USER    (1) Final Intermolecular Energy     =  -11.63 kcal/mol
USER        vdW + Hbond + desolv Energy     =  -11.63 kcal/mol
USER        Electrostatic Energy            =   +0.00 kcal/mol
USER    (2) Final Total Internal Energy     =   -1.51 kcal/mol
USER    (3) Torsional Free Energy           =   +2.68 kcal/mol
USER    (4) Unbound System's Energy  [=(2)] =   -1.51 kcal/mol
USER    
USER    
USER  
USER    DPF = ligand_dock.biased.dpf
USER    NEWDPF move	ligand.pdbqt
USER    NEWDPF about	0.300000 0.400000 0.510000
USER    NEWDPF tran0	36.163867 11.400933 120.757355
USER    NEWDPF axisangle0	-0.608836 0.555474 -0.566363 119.389187
USER    NEWDPF quaternion0	-0.525637 0.479567 -0.488969 0.504609
USER    NEWDPF dihe0	-170.75 7.23 -149.67 110.34 -54.30 -146.99 47.46 -1.82 25.48 
USER  
USER                              x       y       z    vdW   Elec        q     RMS 
ATOM      1  C   UNL     1      36.829  12.967 120.537 -0.40 -0.00    +0.000    122.569
ATOM      2  C   UNL     1      37.413  12.035 121.605 -0.48 -0.00    +0.000    122.569
ATOM      3  C   UNL     1      36.334  11.118 122.185 -0.65 -0.00    +0.000    122.569
ATOM      4  N   UNL     1      36.742   8.832 123.216 -0.65 -0.00    +0.000    122.569
ATOM      5  C   UNL     1      36.744   9.681 122.065 -0.67 -0.00    +0.000    122.569
ATOM      6  O   UNL     1      37.053   9.212 120.937 -2.73 -0.00    +0.000    122.569
ATOM      7  H   UNL     1      36.490   9.202 124.093 -0.40 -0.00    +0.000    122.569
ATOM      8  O   UNL     1      37.083   7.527 123.110 -2.24 -0.00    +0.000    122.569
ATOM      9  H   UNL     1      37.442   7.358 122.224 -0.14 -0.00    +0.000    122.569
ATOM     10  C   UNL     1      37.704  12.976 119.274 -0.38 -0.00    +0.000    122.569
ATOM     11  C   UNL     1      37.517  14.258 118.437 -0.33 -0.00    +0.000    122.569
ATOM     12  C   UNL     1      36.538  14.087 117.265 -0.37 -0.00    +0.000    122.569
ATOM     13  C   UNL     1      37.166  13.389 116.095 -0.39 -0.00    +0.000    122.569
ATOM     14  N   UNL     1      38.456  12.785 116.220 -0.48 -0.00    +0.000    122.569
ATOM     15  O   UNL     1      36.538  13.311 115.005 -0.39 -0.00    +0.000    122.569
ATOM     16  H   UNL     1      38.942  12.844 117.074 -0.11 -0.00    +0.000    122.569
ATOM     17  O   UNL     1      39.014  12.129 115.174 -0.76 -0.00    +0.000    122.569
ATOM     18  H   UNL     1      38.468  12.258 114.383 -0.06 -0.00    +0.000    122.569
TER
ENDMDL
MODEL       33
USER    Run = 33
USER    Cluster Rank = 10
USER    Number of conformations in this cluster = 1
USER  
USER    RMSD from reference structure       = 116.435 A
USER  
USER    Estimated Free Energy of Binding    =   -8.87 kcal/mol  [=(1)+(2)+(3)-(4)]
USER    Estimated Inhibition Constant, Ki   =  315.99 nM (nanomolar)  [Temperature = 298.15 K]
USER    
USER    (1) Final Intermolecular Energy     =  -11.55 kcal/mol
USER        vdW + Hbond + desolv Energy     =  -11.55 kcal/mol
USER        Electrostatic Energy            =   +0.00 kcal/mol
USER    (2) Final Total Internal Energy     =   -1.63 kcal/mol
USER    (3) Torsional Free Energy           =   +2.68 kcal/mol
USER    (4) Unbound System's Energy  [=(2)] =   -1.63 kcal/mol
USER    
USER    
USER  
USER    DPF = ligand_dock.biased.dpf
USER    NEWDPF move	ligand.pdbqt
USER    NEWDPF about	0.300000 0.400000 0.510000
USER    NEWDPF tran0	26.406507 5.158136 115.388077
USER    NEWDPF axisangle0	-0.576518 0.789211 0.211596 -170.511284
USER    NEWDPF quaternion0	-0.574543 0.786507 0.210871 -0.082710
USER    NEWDPF dihe0	172.63 17.26 -142.85 -133.93 -105.87 -170.64 -144.71 -175.53 -111.78 
USER  
USER                              x       y       z    vdW   Elec        q     RMS 
ATOM      1  C   UNL     1      27.324   4.489 116.673 -0.61 -0.00    +0.000    116.435
ATOM      2  C   UNL     1      27.315   3.799 115.304 -0.64 -0.00    +0.000    116.435
ATOM      3  C   UNL     1      28.725   3.358 114.902 -0.49 +0.00    +0.000    116.435
ATOM      4  N   UNL     1      29.758   1.042 115.053 -0.76 +0.00    +0.000    116.435
ATOM      5  C   UNL     1      29.152   2.164 115.701 -0.65 +0.00    +0.000    116.435
ATOM      6  O   UNL     1      29.011   2.167 116.953 -1.22 +0.00    +0.000    116.435
ATOM      7  H   UNL     1      29.875   1.049 114.075 -0.06 +0.00    +0.000    116.435
ATOM      8  O   UNL     1      30.172  -0.028 115.772 -0.77 -0.00    +0.000    116.435
ATOM      9  H   UNL     1      30.093   0.169 116.718 -0.27 -0.00    +0.000    116.435
ATOM     10  C   UNL     1      28.606   5.312 116.868 -0.52 +0.00    +0.000    116.435
ATOM     11  C   UNL     1      28.691   6.508 115.897 -0.60 -0.00    +0.000    116.435
ATOM     12  C   UNL     1      28.034   7.786 116.441 -0.62 -0.00    +0.000    116.435
ATOM     13  C   UNL     1      26.684   8.035 115.835 -0.79 -0.00    +0.000    116.435
ATOM     14  N   UNL     1      25.538   8.214 116.670 -0.66 -0.00    +0.000    116.435
ATOM     15  O   UNL     1      26.569   8.116 114.582 -1.27 -0.00    +0.000    116.435
ATOM     16  H   UNL     1      25.632   8.154 117.648 -0.21 -0.00    +0.000    116.435
ATOM     17  O   UNL     1      24.323   8.467 116.128 -1.20 -0.00    +0.000    116.435
ATOM     18  H   UNL     1      24.333   8.229 115.187 -0.20 -0.00    +0.000    116.435
TER
ENDMDL
MODEL       49
USER    Run = 49
USER    Cluster Rank = 11
USER    Number of conformations in this cluster = 1
USER  
USER    RMSD from reference structure       = 123.523 A
USER  
USER    Estimated Free Energy of Binding    =   -8.54 kcal/mol  [=(1)+(2)+(3)-(4)]
USER    Estimated Inhibition Constant, Ki   =  549.12 nM (nanomolar)  [Temperature = 298.15 K]
USER    
USER    (1) Final Intermolecular Energy     =  -11.23 kcal/mol
USER        vdW + Hbond + desolv Energy     =  -11.23 kcal/mol
USER        Electrostatic Energy            =   +0.00 kcal/mol
USER    (2) Final Total Internal Energy     =   -1.60 kcal/mol
USER    (3) Torsional Free Energy           =   +2.68 kcal/mol
USER    (4) Unbound System's Energy  [=(2)] =   -1.60 kcal/mol
USER    
USER    
USER  
USER    DPF = ligand_dock.biased.dpf
USER    NEWDPF move	ligand.pdbqt
USER    NEWDPF about	0.300000 0.400000 0.510000
USER    NEWDPF tran0	33.981145 7.720141 120.779666
USER    NEWDPF axisangle0	-0.347686 0.904090 -0.248467 -141.248481
USER    NEWDPF quaternion0	-0.327994 0.852885 -0.234394 -0.331762
USER    NEWDPF dihe0	-177.11 30.42 16.79 -160.32 -142.98 -125.01 28.63 -134.48 -152.59 
USER  
USER                              x       y       z    vdW   Elec        q     RMS 
ATOM      1  C   UNL     1      33.275   7.652 122.341 -0.64 -0.00    +0.000    123.523
ATOM      2  C   UNL     1      33.517   6.356 121.558 -0.51 -0.00    +0.000    123.523
ATOM      3  C   UNL     1      32.954   6.459 120.139 -0.18 -0.00    +0.000    123.523
ATOM      4  N   UNL     1      32.441   8.946 120.175 -0.46 -0.00    +0.000    123.523
ATOM      5  C   UNL     1      33.144   7.843 119.596 -0.58 -0.00    +0.000    123.523
ATOM      6  O   UNL     1      33.955   8.039 118.653 -0.68 +0.00    +0.000    123.523
ATOM      7  H   UNL     1      31.814   8.790 120.918 +0.04 -0.00    +0.000    123.523
ATOM      8  O   UNL     1      32.629  10.203 119.708 -0.42 -0.00    +0.000    123.523
ATOM      9  H   UNL     1      33.235  10.180 118.952 -0.60 -0.00    +0.000    123.523
ATOM     10  C   UNL     1      34.364   7.866 123.403 -0.70 -0.00    +0.000    123.523
ATOM     11  C   UNL     1      35.686   7.157 123.043 -0.77 -0.00    +0.000    123.523
ATOM     12  C   UNL     1      36.917   8.072 123.141 -0.74 -0.00    +0.000    123.523
ATOM     13  C   UNL     1      36.789   9.294 122.280 -0.70 -0.00    +0.000    123.523
ATOM     14  N   UNL     1      36.383  10.541 122.850 -0.63 -0.00    +0.000    123.523
ATOM     15  O   UNL     1      37.070   9.225 121.053 -2.73 -0.00    +0.000    123.523
ATOM     16  H   UNL     1      36.167  10.592 123.809 -0.10 -0.00    +0.000    123.523
ATOM     17  O   UNL     1      36.293  11.653 122.082 -0.60 -0.00    +0.000    123.523
ATOM     18  H   UNL     1      36.058  11.401 121.175 -0.23 -0.00    +0.000    123.523
TER
ENDMDL
MODEL        9
USER    Run = 9
USER    Cluster Rank = 12
USER    Number of conformations in this cluster = 1
USER  
USER    RMSD from reference structure       = 117.819 A
USER  
USER    Estimated Free Energy of Binding    =   -8.32 kcal/mol  [=(1)+(2)+(3)-(4)]
USER    Estimated Inhibition Constant, Ki   =  800.98 nM (nanomolar)  [Temperature = 298.15 K]
USER    
USER    (1) Final Intermolecular Energy     =  -11.00 kcal/mol
USER        vdW + Hbond + desolv Energy     =  -11.00 kcal/mol
USER        Electrostatic Energy            =   +0.00 kcal/mol
USER    (2) Final Total Internal Energy     =   -1.61 kcal/mol
USER    (3) Torsional Free Energy           =   +2.68 kcal/mol
USER    (4) Unbound System's Energy  [=(2)] =   -1.61 kcal/mol
USER    
USER    
USER  
USER    DPF = ligand_dock.biased.dpf
USER    NEWDPF move	ligand.pdbqt
USER    NEWDPF about	0.300000 0.400000 0.510000
USER    NEWDPF tran0	27.874274 9.909204 116.557388
USER    NEWDPF axisangle0	0.449283 0.789070 0.418944 122.099048
USER    NEWDPF quaternion0	0.393140 0.690466 0.366592 0.484053
USER    NEWDPF dihe0	179.65 4.72 99.34 125.28 -108.61 111.10 -30.05 114.25 47.31 
USER  
USER                              x       y       z    vdW   Elec        q     RMS 
ATOM      1  C   UNL     1      27.853   8.199 116.684 -0.67 -0.00    +0.000    117.819
ATOM      2  C   UNL     1      26.812   9.031 117.441 -0.75 +0.00    +0.000    117.819
ATOM      3  C   UNL     1      27.079   9.007 118.948 -0.60 +0.00    +0.000    117.819
ATOM      4  N   UNL     1      28.847  10.720 118.321 -0.56 +0.00    +0.000    117.819
ATOM      5  C   UNL     1      28.305   9.804 119.277 -0.63 +0.00    +0.000    117.819
ATOM      6  O   UNL     1      28.835   9.695 120.415 -0.69 +0.00    +0.000    117.819
ATOM      7  H   UNL     1      28.424  10.809 117.436 -0.01 +0.00    +0.000    117.819
ATOM      8  O   UNL     1      29.937  11.465 118.622 -1.24 +0.00    +0.000    117.819
ATOM      9  H   UNL     1      30.227  11.263 119.525 -0.05 +0.00    +0.000    117.819
ATOM     10  C   UNL     1      27.255   7.600 115.402 -0.72 -0.00    +0.000    117.819
ATOM     11  C   UNL     1      27.626   6.114 115.217 -0.68 -0.00    +0.000    117.819
ATOM     12  C   UNL     1      28.103   5.436 116.512 -0.66 -0.00    +0.000    117.819
ATOM     13  C   UNL     1      28.442   3.989 116.306 -0.59 +0.00    +0.000    117.819
ATOM     14  N   UNL     1      28.817   3.511 115.011 -0.61 +0.00    +0.000    117.819
ATOM     15  O   UNL     1      28.423   3.199 117.287 -1.14 +0.00    +0.000    117.819
ATOM     16  H   UNL     1      28.834   4.131 114.247 -0.08 +0.00    +0.000    117.819
ATOM     17  O   UNL     1      29.151   2.211 114.827 -1.28 +0.00    +0.000    117.819
ATOM     18  H   UNL     1      29.012   1.722 115.653 -0.05 +0.00    +0.000    117.819
TER
ENDMDL
MODEL      100
USER    Run = 100
USER    Cluster Rank = 13
USER    Number of conformations in this cluster = 1
USER  
USER    RMSD from reference structure       = 125.173 A
USER  
USER    Estimated Free Energy of Binding    =   -7.77 kcal/mol  [=(1)+(2)+(3)-(4)]
USER    Estimated Inhibition Constant, Ki   =    2.03 uM (micromolar)  [Temperature = 298.15 K]
USER    
USER    (1) Final Intermolecular Energy     =  -10.45 kcal/mol
USER        vdW + Hbond + desolv Energy     =  -10.45 kcal/mol
USER        Electrostatic Energy            =   +0.00 kcal/mol
USER    (2) Final Total Internal Energy     =   -1.73 kcal/mol
USER    (3) Torsional Free Energy           =   +2.68 kcal/mol
USER    (4) Unbound System's Energy  [=(2)] =   -1.73 kcal/mol
USER    
USER    
USER  
USER    DPF = ligand_dock.biased.dpf
USER    NEWDPF move	ligand.pdbqt
USER    NEWDPF about	0.300000 0.400000 0.510000
USER    NEWDPF tran0	36.181604 13.139672 120.034957
USER    NEWDPF axisangle0	-0.882148 0.086142 0.463028 -133.403152
USER    NEWDPF quaternion0	-0.810215 0.079118 0.425272 -0.395520
USER    NEWDPF dihe0	179.19 -18.72 -10.95 58.16 -89.85 -170.39 -165.15 134.53 -10.22 
USER  
USER                              x       y       z    vdW   Elec        q     RMS 
ATOM      1  C   UNL     1      37.362  12.496 121.100 -0.53 -0.00    +0.000    125.173
ATOM      2  C   UNL     1      37.699  13.719 120.240 -0.41 -0.00    +0.000    125.173
ATOM      3  C   UNL     1      37.971  14.947 121.114 -0.31 -0.00    +0.000    125.173
ATOM      4  N   UNL     1      39.895  14.473 122.703 -0.44 -0.00    +0.000    125.173
ATOM      5  C   UNL     1      39.425  15.027 121.471 -0.34 -0.00    +0.000    125.173
ATOM      6  O   UNL     1      40.239  15.548 120.664 -0.25 -0.00    +0.000    125.173
ATOM      7  H   UNL     1      39.256  14.058 123.327 -0.04 -0.00    +0.000    125.173
ATOM      8  O   UNL     1      41.211  14.516 123.020 -1.01 -0.00    +0.000    125.173
ATOM      9  H   UNL     1      41.702  14.943 122.301 -0.03 -0.00    +0.000    125.173
ATOM     10  C   UNL     1      37.028  12.910 122.541 -0.57 -0.00    +0.000    125.173
ATOM     11  C   UNL     1      36.394  11.761 123.352 -0.70 -0.00    +0.000    125.173
ATOM     12  C   UNL     1      37.017  10.387 123.058 -0.61 -0.00    +0.000    125.173
ATOM     13  C   UNL     1      36.159   9.555 122.150 -0.65 -0.00    +0.000    125.173
ATOM     14  N   UNL     1      34.743   9.506 122.337 -0.60 -0.00    +0.000    125.173
ATOM     15  O   UNL     1      36.691   8.921 121.199 -2.62 -0.00    +0.000    125.173
ATOM     16  H   UNL     1      34.330  10.005 123.079 -0.41 -0.00    +0.000    125.173
ATOM     17  O   UNL     1      33.962   8.778 121.503 -0.66 -0.00    +0.000    125.173
ATOM     18  H   UNL     1      34.447   8.598 120.682 -0.28 -0.00    +0.000    125.173
TER
ENDMDL


AVSFLD: # AVS field file
AVSFLD: #
AVSFLD: # Created by AutoDock
AVSFLD: #
AVSFLD: ndim=2           # number of dimensions in the field
AVSFLD: nspace=1         # number of physical coordinates
AVSFLD: veclen=7         # vector size
AVSFLD: dim1=18          # atoms
AVSFLD: dim2=13          # conformations
AVSFLD: data=Real       # data type (byte,integer,Real,double)
AVSFLD: field=uniform    # field coordinate layout
AVSFLD: label= x y z vdW Elec q RMS
AVSFLD: variable 1 file = ligand_dock.biased.dlg.pdb filetype = ascii offset = 5 stride = 12
AVSFLD: variable 2 file = ligand_dock.biased.dlg.pdb filetype = ascii offset = 6 stride = 12
AVSFLD: variable 3 file = ligand_dock.biased.dlg.pdb filetype = ascii offset = 7 stride = 12
AVSFLD: variable 4 file = ligand_dock.biased.dlg.pdb filetype = ascii offset = 8 stride = 12
AVSFLD: variable 5 file = ligand_dock.biased.dlg.pdb filetype = ascii offset = 9 stride = 12
AVSFLD: variable 6 file = ligand_dock.biased.dlg.pdb filetype = ascii offset = 10 stride = 12
AVSFLD: variable 7 file = ligand_dock.biased.dlg.pdb filetype = ascii offset = 11 stride = 12
AVSFLD: # end of file

>>> Closing the docking parameter file (DPF)...
This docking finished at:			6:48 54" p.m., 11/08/2024


________________________________________________________________________________

autodock4: Successful Completion on "ThinkStation-P620"

Real= 9m 47.61s,  CPU= 9m 47.36s,  System= 0.17s
________________________________________________________________________________

