REMARK  Name = 
REMARK  10 active torsions:
REMARK  status: ('A' for Active; 'I' for Inactive)
REMARK    1  A    between atoms: C_1  and  N_2
REMARK    2  A    between atoms: N_2  and  C_3
REMARK    3  A    between atoms: N_2  and  C_22
REMARK    4  A    between atoms: C_6  and  C_9
REMARK    5  A    between atoms: C_9  and  C_10
REMARK    6  A    between atoms: C_10  and  C_11
REMARK    7  A    between atoms: C_10  and  C_20
REMARK    8  A    between atoms: C_12  and  C_13
REMARK    9  A    between atoms: C_12  and  C_19
REMARK   10  A    between atoms: C_14  and  C_15
REMARK                            x       y       z     vdW  Elec       q    Type
REMARK                         _______ _______ _______ _____ _____    ______ ____
ROOT
ATOM      1  C   UNL     1       8.211   7.937  11.056  0.00  0.00    +0.000 C 
ATOM      2  C   UNL     1       7.399   7.684  12.328  0.00  0.00    +0.000 C 
ENDROOT
BRANCH   1   3
ATOM      3  C   UNL     1       7.747   7.012   9.949  0.00  0.00    +0.000 C 
ATOM      4  C   UNL     1       6.530   6.432   9.887  0.00  0.00    +0.000 C 
ATOM      5  C   UNL     1       5.477   6.671  10.946  0.00  0.00    +0.000 C 
BRANCH   4   6
ATOM      6  C   UNL     1       6.229   5.575   8.711  0.00  0.00    +0.000 C 
ATOM      7  C   UNL     1       5.374   4.542   8.758  0.00  0.00    +0.000 C 
BRANCH   7   8
ATOM      8  C   UNL     1       5.065   3.686   7.594  0.00  0.00    +0.000 C 
ATOM      9  N   UNL     1       4.150   4.087   6.568  0.00  0.00    +0.000 N 
ATOM     10  O   UNL     1       3.980   3.314   5.470  0.00  0.00    +0.000 OA
ATOM     11  O   UNL     1       5.613   2.554   7.521  0.00  0.00    +0.000 OA
ATOM     12  H   UNL     1       3.644   4.927   6.661  0.00  0.00    +0.000 HD
ENDBRANCH   7   8
ENDBRANCH   4   6
ENDBRANCH   1   3
BRANCH   1  13
ATOM     13  C   UNL     1       9.687   7.737  11.340  0.00  0.00    +0.000 C 
ATOM     14  O   UNL     1      10.284   6.755  10.816  0.00  0.00    +0.000 OA
BRANCH  13  18
ATOM     15  C   UNL     1      11.948  10.334  13.955  0.00  0.00    +0.000 A 
ATOM     16  C   UNL     1      12.211  10.173  12.773  0.00  0.00    +0.000 A 
ATOM     17  C   UNL     1      11.536   9.328  11.889  0.00  0.00    +0.000 A 
ATOM     18  C   UNL     1      10.385   8.636  12.297  0.00  0.00    +0.000 A 
ATOM     19  C   UNL     1       9.936   8.793  13.619  0.00  0.00    +0.000 A 
ATOM     20  C   UNL     1      10.611   9.637  14.504  0.00  0.00    +0.000 A 
BRANCH  15  22
ATOM     21  C   UNL     1      12.291  11.076  16.466  0.00  0.00    +0.000 C 
ATOM     22  N   UNL     1      12.543  11.170  15.016  0.00  0.00    +0.000 N 
ATOM     23  C   UNL     1      13.999  11.311  14.896  0.00  0.00    +0.000 C 
ENDBRANCH  15  22
ENDBRANCH  13  18
ENDBRANCH   1  13
TORSDOF 6
