REMARK  Name = 
REMARK  10 active torsions:
REMARK  status: ('A' for Active; 'I' for Inactive)
REMARK    1  A    between atoms: C_1  and  N_2
REMARK    2  A    between atoms: N_2  and  C_3
REMARK    3  A    between atoms: N_2  and  C_22
REMARK    4  A    between atoms: C_6  and  C_9
REMARK    5  A    between atoms: C_9  and  C_10
REMARK    6  A    between atoms: C_10  and  C_11
REMARK    7  A    between atoms: C_10  and  C_20
REMARK    8  A    between atoms: C_12  and  C_13
REMARK    9  A    between atoms: C_12  and  C_19
REMARK   10  A    between atoms: C_14  and  C_15
REMARK                            x       y       z     vdW  Elec       q    Type
REMARK                         _______ _______ _______ _____ _____    ______ ____
ROOT
ATOM      1  C   UNL     1      -0.967   0.598   1.450  0.00  0.00     0.000 C 
ATOM      2  C   UNL     1      -1.034   1.504   2.682  0.00  0.00     0.000 C 
ENDROOT
BRANCH   1   3
ATOM      3  C   UNL     1      -2.312  -0.061   1.215  0.00  0.00     0.000 C 
ATOM      4  C   UNL     1      -3.289   0.437   0.428  0.00  0.00     0.000 C 
ATOM      5  C   UNL     1      -3.121   1.736  -0.328  0.00  0.00     0.000 C 
BRANCH   4   6
ATOM      6  C   UNL     1      -4.536  -0.358   0.284  0.00  0.00     0.000 C 
ATOM      7  C   UNL     1      -5.330  -0.284  -0.795  0.00  0.00     0.000 C 
BRANCH   7   8
ATOM      8  C   UNL     1      -6.570  -1.072  -0.950  0.00  0.00     0.000 C 
ATOM      9  N   UNL     1      -6.846  -2.233  -0.158  0.00  0.00     0.000 N 
ATOM     10  O   UNL     1      -8.041  -2.859  -0.265  0.00  0.00     0.000 OA
ATOM     11  O   UNL     1      -7.399  -0.717  -1.830  0.00  0.00     0.000 OA
ATOM     12  H   UNL     1      -6.165  -2.576   0.466  0.00  0.00     0.000 HD
ENDBRANCH   7   8
ENDBRANCH   4   6
ENDBRANCH   1   3
BRANCH   1  13
ATOM     13  C   UNL     1       0.117  -0.445   1.637  0.00  0.00     0.000 C 
ATOM     14  O   UNL     1      -0.099  -1.422   2.408  0.00  0.00     0.000 OA
BRANCH  13  18
ATOM     15  C   UNL     1       3.982  -0.185  -0.283  0.00  0.00     0.000 A 
ATOM     16  C   UNL     1       3.435  -1.427   0.094  0.00  0.00     0.000 A 
ATOM     17  C   UNL     1       2.186  -1.502   0.715  0.00  0.00     0.000 A 
ATOM     18  C   UNL     1       1.441  -0.340   0.970  0.00  0.00     0.000 A 
ATOM     19  C   UNL     1       1.986   0.904   0.608  0.00  0.00     0.000 A 
ATOM     20  C   UNL     1       3.236   0.980  -0.012  0.00  0.00     0.000 A 
ATOM     24  CM  UNL     1       2.711  -0.262   0.349  1.00  0.00     0.000 AC
BRANCH  15  22
ATOM     21  C   UNL     1       6.045   1.148  -0.918  0.00  0.00     0.000 C 
ATOM     22  N   UNL     1       5.280  -0.106  -0.929  0.00  0.00     0.000 N 
ATOM     23  C   UNL     1       5.850  -1.278  -1.604  0.00  0.00     0.000 C 
ENDBRANCH  15  22
ENDBRANCH  13  18
ENDBRANCH   1  13
TORSDOF 6