          AutoDock 4.2 Release 4.2.6   
         (C) 1989-2012 The Scripps Research Institute
        AutoDock comes with ABSOLUTELY NO WARRANTY.
        AutoDock is free software, and you are welcome
        to redistribute it under certain conditions;
        for details type 'autodock4 -C'

                     main.cc  $Revision: 1.213 $

                   Compiled on Feb 20 2022 at 09:48:33


This file was created at:			5:06 21" p.m., 11/03/2024
                   on host:		"ThinkStation-P620"
Current Working Directory = "/home/antonio/Documenti/buccheri/IDROSSAMICO HDAC/HDAC 4/DP/Ligand_4"

      ________________________________________________________________

                   SETTING UP DEFAULT PARAMETER LIBRARY
      ________________________________________________________________


Random number generator was seeded with values 24275, 1730649981.
Docking parameter file (DPF) used for this docking:		ligand_dock.biased.dpf
DPF> autodock_parameter_version 4.2       # used by autodock to validate parameter set

	Autodock parameter version 4.2.
DPF> outlev 1                             # diagnostic output level

Output Level = 1  ADT-COMPATIBLE OUTPUT DURING DOCKING.
DPF> intelec                              # calculate internal electrostatics

Electrostatic energies will be calculated for all non-bonds between moving atoms.
DPF> seed pid time                        # seeds for random generator

Random number generator was seeded with values 24275, 1730649981.
DPF> ligand_types A C HD OA N             # atoms types in ligand

DPF> fld receptor.maps.fld                # grid_data_file

Opening Grid Map Dimensions file:		receptor.maps.fld
Grid Point Spacing =				0.375 Angstroms

Even Number of User-specified Grid Points =	70 x-points
						70 y-points
						70 z-points

Coordinates of Central Grid Point of Maps =	(19.141, -8.645, -3.505)
Macromolecule file used to create Grid Maps =	receptor.pdbqt
Grid Parameter file used to create Grid Maps =	receptor.gpf
Minimum coordinates in grid = (6.016, -21.770, -16.630)
Maximum coordinates in grid = (32.266, 4.480, 9.620)

DPF> map receptor.A.map                   # atom-specific affinity map

DPF> map receptor.C.map                   # atom-specific affinity map

DPF> map receptor.HD.map                  # atom-specific affinity map

DPF> map receptor.OA.biased.map

DPF> map receptor.N.map                   # atom-specific affinity map

DPF> elecmap receptor.e.map               # electrostatics map

DPF> desolvmap receptor.d.map             # desolvation map

DPF> move ligand.pdbqt                    # small molecule

1,4-interactions will be _ignored_ in the non-bonded internal energy calculation.

Ligand PDBQT file = "ligand.pdbqt"

INPUT LIGAND PDBQT FILE:
________________________

INPUT-LIGAND-PDBQT: REMARK  Name = 
INPUT-LIGAND-PDBQT: REMARK  10 active torsions:
INPUT-LIGAND-PDBQT: REMARK  status: ('A' for Active; 'I' for Inactive)
INPUT-LIGAND-PDBQT: REMARK    1  A    between atoms: C_1  and  N_2
INPUT-LIGAND-PDBQT: REMARK    2  A    between atoms: N_2  and  C_3
INPUT-LIGAND-PDBQT: REMARK    3  A    between atoms: N_2  and  C_22
INPUT-LIGAND-PDBQT: REMARK    4  A    between atoms: C_6  and  C_9
INPUT-LIGAND-PDBQT: REMARK    5  A    between atoms: C_9  and  C_10
INPUT-LIGAND-PDBQT: REMARK    6  A    between atoms: C_10  and  C_11
INPUT-LIGAND-PDBQT: REMARK    7  A    between atoms: C_10  and  C_20
INPUT-LIGAND-PDBQT: REMARK    8  A    between atoms: C_12  and  C_13
INPUT-LIGAND-PDBQT: REMARK    9  A    between atoms: C_12  and  C_19
INPUT-LIGAND-PDBQT: REMARK   10  A    between atoms: C_14  and  C_15
INPUT-LIGAND-PDBQT: REMARK                            x       y       z     vdW  Elec       q    Type
INPUT-LIGAND-PDBQT: REMARK                         _______ _______ _______ _____ _____    ______ ____
INPUT-LIGAND-PDBQT: ROOT
INPUT-LIGAND-PDBQT: ATOM      1  C   UNL     1      -0.967   0.598   1.450  0.00  0.00    +0.000 C 
INPUT-LIGAND-PDBQT: ATOM      2  C   UNL     1      -1.034   1.504   2.682  0.00  0.00    +0.000 C 
INPUT-LIGAND-PDBQT: ENDROOT
INPUT-LIGAND-PDBQT: BRANCH   1   3
INPUT-LIGAND-PDBQT: ATOM      3  C   UNL     1      -2.312  -0.061   1.215  0.00  0.00    +0.000 C 
INPUT-LIGAND-PDBQT: ATOM      4  C   UNL     1      -3.289   0.437   0.428  0.00  0.00    +0.000 C 
INPUT-LIGAND-PDBQT: ATOM      5  C   UNL     1      -3.121   1.736  -0.328  0.00  0.00    +0.000 C 
INPUT-LIGAND-PDBQT: BRANCH   4   6
INPUT-LIGAND-PDBQT: ATOM      6  C   UNL     1      -4.536  -0.358   0.284  0.00  0.00    +0.000 C 
INPUT-LIGAND-PDBQT: ATOM      7  C   UNL     1      -5.330  -0.284  -0.795  0.00  0.00    +0.000 C 
INPUT-LIGAND-PDBQT: BRANCH   7   8
INPUT-LIGAND-PDBQT: ATOM      8  C   UNL     1      -6.570  -1.072  -0.950  0.00  0.00    +0.000 C 
INPUT-LIGAND-PDBQT: ATOM      9  N   UNL     1      -6.846  -2.233  -0.158  0.00  0.00    +0.000 N 
INPUT-LIGAND-PDBQT: ATOM     10  O   UNL     1      -8.041  -2.859  -0.265  0.00  0.00    +0.000 OA
INPUT-LIGAND-PDBQT: ATOM     11  O   UNL     1      -7.399  -0.717  -1.830  0.00  0.00    +0.000 OA
INPUT-LIGAND-PDBQT: ATOM     12  H   UNL     1      -6.165  -2.576   0.466  0.00  0.00    +0.000 HD
INPUT-LIGAND-PDBQT: ENDBRANCH   7   8
INPUT-LIGAND-PDBQT: ENDBRANCH   4   6
INPUT-LIGAND-PDBQT: ENDBRANCH   1   3
INPUT-LIGAND-PDBQT: BRANCH   1  13
INPUT-LIGAND-PDBQT: ATOM     13  C   UNL     1       0.117  -0.445   1.637  0.00  0.00    +0.000 C 
INPUT-LIGAND-PDBQT: ATOM     14  O   UNL     1      -0.099  -1.422   2.408  0.00  0.00    +0.000 OA
INPUT-LIGAND-PDBQT: BRANCH  13  18
INPUT-LIGAND-PDBQT: ATOM     15  C   UNL     1       3.982  -0.185  -0.283  0.00  0.00    +0.000 A 
INPUT-LIGAND-PDBQT: ATOM     16  C   UNL     1       3.435  -1.427   0.094  0.00  0.00    +0.000 A 
INPUT-LIGAND-PDBQT: ATOM     17  C   UNL     1       2.186  -1.502   0.715  0.00  0.00    +0.000 A 
INPUT-LIGAND-PDBQT: ATOM     18  C   UNL     1       1.441  -0.340   0.970  0.00  0.00    +0.000 A 
INPUT-LIGAND-PDBQT: ATOM     19  C   UNL     1       1.986   0.904   0.608  0.00  0.00    +0.000 A 
INPUT-LIGAND-PDBQT: ATOM     20  C   UNL     1       3.236   0.980  -0.012  0.00  0.00    +0.000 A 
INPUT-LIGAND-PDBQT: BRANCH  15  22
INPUT-LIGAND-PDBQT: ATOM     21  C   UNL     1       6.045   1.148  -0.918  0.00  0.00    +0.000 C 
INPUT-LIGAND-PDBQT: ATOM     22  N   UNL     1       5.280  -0.106  -0.929  0.00  0.00    +0.000 N 
INPUT-LIGAND-PDBQT: ATOM     23  C   UNL     1       5.850  -1.278  -1.604  0.00  0.00    +0.000 C 
INPUT-LIGAND-PDBQT: ENDBRANCH  15  22
INPUT-LIGAND-PDBQT: ENDBRANCH  13  18
INPUT-LIGAND-PDBQT: ENDBRANCH   1  13
INPUT-LIGAND-PDBQT: TORSDOF 6
________________________________________________________________________________

Total charge on ligand                               =	+0.000 e
REMARK  Name = 
REMARK  10 active torsions:
REMARK  status: ('A' for Active; 'I' for Inactive)
REMARK    1  A    between atoms: C_1  and  N_2
REMARK    2  A    between atoms: N_2  and  C_3
REMARK    3  A    between atoms: N_2  and  C_22
REMARK    4  A    between atoms: C_6  and  C_9
REMARK    5  A    between atoms: C_9  and  C_10
REMARK    6  A    between atoms: C_10  and  C_11
REMARK    7  A    between atoms: C_10  and  C_20
REMARK    8  A    between atoms: C_12  and  C_13
REMARK    9  A    between atoms: C_12  and  C_19
REMARK   10  A    between atoms: C_14  and  C_15
REMARK                            x       y       z     vdW  Elec       q    Type
REMARK                         _______ _______ _______ _____ _____    ______ ____


Number of Rotatable Bonds in Small Molecule =	6 torsions
Number of atoms in ligand:  23

Number of non-hydrogen atoms in ligand:  22

Number of vibrational degrees of freedom of ligand:  63


Number of torsional degrees of freedom = 6
Estimated loss of torsional free energy upon binding = +1.7898 kcal/mol


DPF> about -0.963 -0.416 0.212            # small molecule center

Small molecule center of rotation =	(-0.963, -0.416, +0.212)

DPF> tran0 random                         # initial coordinates/A or random

Initial translation =			(29.643, -15.195, -7.094) Angstroms
DPF> quaternion0 random                   # initial orientation

Each run will begin with a new, random initial orientation.
Initial quaternion,  (x,y,z,w) =	( -0.639, 0.379, -0.221, 0.632 ),
DPF> dihe0 random                         # initial dihedrals (relative) or random

DPF> torsdof 6                            # torsional degrees of freedom

Number of torsional degrees of freedom = 6
Free energy coefficient for torsional degrees of freedom = 0.2983, the factory default value.

Estimated loss of torsional free energy upon binding = +1.7898 kcal/mol

DPF> rmstol 2.0                           # cluster_tolerance/A

Maximum RMS tolerance for conformational cluster analysis = 2.00 Angstroms
DPF> extnrg 1000.0                        # external grid energy

External grid energy (beyond grid map walls) = 1000.00

DPF> e0max 0.0 10000                      # max initial energy; max number of retries

Using user-specified maximum number of retries for simanneal initialization, 10000 retries.
If the simanneal initial energy is greater than e0max, 0.000,
then a new, random initial state will be created.

DPF> ga_pop_size 150                      # number of individuals in population

A population of 150 individuals will be used
DPF> ga_num_evals 2500000                 # maximum number of energy evaluations

There will be at most 2500000 function evaluations used.
DPF> ga_num_generations 27000             # maximum number of generations

The GA will run for at most 27000 generations.
DPF> ga_elitism 1                         # number of top individuals to survive to next generation

The 1 best will be preserved each GA generation.
DPF> ga_mutation_rate 0.02                # rate of gene mutation

The mutation rate is 0.020000.
DPF> ga_crossover_rate 0.8                # rate of crossover

The crossover rate is 0.800000.
DPF> ga_window_size 10                    # 

The GA's selection window is 10 generations.
DPF> ga_cauchy_alpha 0.0                  # Alpha parameter of Cauchy distribution

The alpha parameter (for the Cauchy distribution) is being set to 0.000000.
DPF> ga_cauchy_beta 1.0                   # Beta parameter Cauchy distribution

The beta parameter (for the Cauchy distribution) is being set to 1.000000.
DPF> set_ga                               # set the above parameters for GA or LGA

DPF> sw_max_its 300                       # iterations of Solis & Wets local search

Solis & Wets algorithms will perform at most 300 iterations.
DPF> sw_max_succ 4                        # consecutive successes before changing rho

Solis & Wets algorithms expand rho every 4 in a row successes.
DPF> sw_max_fail 4                        # consecutive failures before changing rho

Solis & Wets algorithms contract rho every 4 in a row failures.
DPF> sw_rho 1.0                           # size of local search space to sample

rho is set to 1.000000.
DPF> sw_lb_rho 0.01                       # lower bound on rho

rho will never get smaller than 0.010000.
DPF> ls_search_freq 0.06                  # probability of performing local search on individual

Local search will be performed with frequency 0.060000.
DPF> set_psw1                             # set the above pseudo-Solis & Wets parameters

Creating a new Local Search object using the pseudo-Solis-Wets algorithm (pSW1) with the current settings.

DPF> unbound_model bound                  # state of unbound ligand

DPF> ga_run 100

centering ligand on specified point: -0.963 -0.416 0.212
Furthest true ligand atom from "about" center is 7.503 Angstroms (maxrad).
Number of requested GA dockings = 100 runs
Unbound model to be used is 'same as bound' [AutoDock 4.2 default].

	BEGINNING GENETIC ALGORITHM DOCKING 1 of 100
Run: 1 Seed: 304949573 1641061252 [ Run 1 of 100 GA/GALS ]
Beginning LAMARCKIAN GENETIC ALGORITHM (LGA), with a maximum of 2500000 energy evaluations.

Final-Value: -13.312


	FINAL GENETIC ALGORITHM DOCKED STATE
	_______________________________________________


Detailed state:  trans 19.124 -10.812 -3.362 quatxyzw 0.021546 -0.734473 0.094157 0.671729 center -0.963 -0.416 0.212 ntor 6 -102.5443 -85.0717 159.9665 -102.5108 63.7592 88.5268
State:	 19.124 -10.812  -3.362   0.029 -0.991  0.127 95.599   -102.54  -85.07  159.97 -102.51   63.76   88.53

DOCKED: MODEL        1
DOCKED: USER    Run = 1
DOCKED: USER    DPF = ligand_dock.biased.dpf
DOCKED: USER  
DOCKED: USER    Estimated Free Energy of Binding    =  -10.39 kcal/mol  [=(1)+(2)+(3)-(4)]
DOCKED: USER    Estimated Inhibition Constant, Ki   =   24.23 nM (nanomolar)  [Temperature = 298.15 K]
DOCKED: USER    
DOCKED: USER    (1) Final Intermolecular Energy     =  -12.18 kcal/mol
DOCKED: USER        vdW + Hbond + desolv Energy     =  -12.18 kcal/mol
DOCKED: USER        Electrostatic Energy            =   +0.00 kcal/mol
DOCKED: USER    (2) Final Total Internal Energy     =   -1.13 kcal/mol
DOCKED: USER    (3) Torsional Free Energy           =   +1.79 kcal/mol
DOCKED: USER    (4) Unbound System's Energy  [=(2)] =   -1.13 kcal/mol
DOCKED: USER    
DOCKED: USER    
DOCKED: USER    NEWDPF move ligand.pdbqt
DOCKED: USER    NEWDPF about -0.963000 -0.416000 0.212000
DOCKED: USER    NEWDPF tran0 19.123728 -10.812118 -3.361646
DOCKED: USER    NEWDPF quaternion0 0.021546 -0.734473 0.094157 0.671729
DOCKED: USER    NEWDPF axisangle0 0.029085 -0.991463 0.127102 95.598737
DOCKED: USER    NEWDPF quat0 0.029085 -0.991463 0.127102 95.598737
DOCKED: USER    NEWDPF dihe0 -102.54 -85.07 159.97 -102.51 63.76 88.53 
DOCKED: USER  keepresnum = 1 
DOCKED: USER  
DOCKED: REMARK  Name = 
DOCKED: REMARK  10 active torsions:
DOCKED: REMARK  status: ('A' for Active; 'I' for Inactive)
DOCKED: REMARK    1  A    between atoms: C_1  and  N_2
DOCKED: REMARK    2  A    between atoms: N_2  and  C_3
DOCKED: REMARK    3  A    between atoms: N_2  and  C_22
DOCKED: REMARK    4  A    between atoms: C_6  and  C_9
DOCKED: REMARK    5  A    between atoms: C_9  and  C_10
DOCKED: REMARK    6  A    between atoms: C_10  and  C_11
DOCKED: REMARK    7  A    between atoms: C_10  and  C_20
DOCKED: REMARK    8  A    between atoms: C_12  and  C_13
DOCKED: REMARK    9  A    between atoms: C_12  and  C_19
DOCKED: REMARK   10  A    between atoms: C_14  and  C_15
DOCKED: REMARK                            x       y       z     vdW  Elec       q    Type
DOCKED: REMARK                         _______ _______ _______ _____ _____    ______ ____
DOCKED: USER                              x       y       z     vdW  Elec       q    Type
DOCKED: USER                           _______ _______ _______ _____ _____    ______ ____
DOCKED: ROOT
DOCKED: ATOM      1  C   UNL     1      20.447  -9.952  -3.626 -0.45 -0.00    +0.000 C 
DOCKED: ATOM      2  C   UNL     1      21.760  -9.187  -3.810 -0.34 -0.00    +0.000 C 
DOCKED: ENDROOT
DOCKED: BRANCH   1   3
DOCKED: ATOM      3  C   UNL     1      20.282 -10.360  -2.175 -0.52 -0.00    +0.000 C 
DOCKED: ATOM      4  C   UNL     1      19.100 -10.609  -1.573 -0.42 -0.00    +0.000 C 
DOCKED: ATOM      5  C   UNL     1      17.787 -10.514  -2.319 -0.27 -0.00    +0.000 C 
DOCKED: BRANCH   4   6
DOCKED: ATOM      6  C   UNL     1      19.123 -11.031  -0.149 -0.53 -0.00    +0.000 C 
DOCKED: ATOM      7  C   UNL     1      20.242 -11.051   0.590 -0.68 -0.00    +0.000 C 
DOCKED: BRANCH   7   8
DOCKED: ATOM      8  C   UNL     1      20.276 -11.465   2.008 -0.78 -0.00    +0.000 C 
DOCKED: ATOM      9  N   UNL     1      20.356 -10.521   3.082 -0.67 -0.00    +0.000 N 
DOCKED: ATOM     10  O   UNL     1      20.279 -10.945   4.365 -0.95 -0.00    +0.000 OA
DOCKED: ATOM     11  O   UNL     1      20.258 -12.697   2.272 -1.58 -0.00    +0.000 OA
DOCKED: ATOM     12  H   UNL     1      20.467  -9.562   2.887 -0.57 -0.00    +0.000 HD
DOCKED: ENDBRANCH   7   8
DOCKED: ENDBRANCH   4   6
DOCKED: ENDBRANCH   1   3
DOCKED: BRANCH   1  13
DOCKED: ATOM     13  C   UNL     1      20.428 -11.167  -4.532 -0.51 -0.00    +0.000 C 
DOCKED: ATOM     14  O   UNL     1      19.585 -12.081  -4.314 -0.58 -0.00    +0.000 OA
DOCKED: BRANCH  13  18
DOCKED: ATOM     15  C   UNL     1      23.271 -11.678  -7.749 -0.42 -0.00    +0.000 A 
DOCKED: ATOM     16  C   UNL     1      23.400 -12.388  -6.540 -0.37 -0.00    +0.000 A 
DOCKED: ATOM     17  C   UNL     1      22.478 -12.216  -5.505 -0.42 -0.00    +0.000 A 
DOCKED: ATOM     18  C   UNL     1      21.393 -11.337  -5.649 -0.44 -0.00    +0.000 A 
DOCKED: ATOM     19  C   UNL     1      21.265 -10.615  -6.849 -0.29 -0.00    +0.000 A 
DOCKED: ATOM     20  C   UNL     1      22.188 -10.786  -7.884 -0.28 -0.00    +0.000 A 
DOCKED: BRANCH  15  22
DOCKED: ATOM     21  C   UNL     1      23.933 -12.758  -9.947 -0.37 -0.00    +0.000 C 
DOCKED: ATOM     22  N   UNL     1      24.229 -11.856  -8.826 -0.36 -0.00    +0.000 N 
DOCKED: ATOM     23  C   UNL     1      25.509 -11.138  -8.812 -0.39 -0.00    +0.000 C 
DOCKED: ENDBRANCH  15  22
DOCKED: ENDBRANCH  13  18
DOCKED: ENDBRANCH   1  13
DOCKED: TORSDOF 6
DOCKED: TER
DOCKED: ENDMDL
________________________________________________________________________________


	BEGINNING GENETIC ALGORITHM DOCKING 2 of 100
Run: 2 Seed: 1932899967 537869715 [ Run 2 of 100 GA/GALS ]
Beginning LAMARCKIAN GENETIC ALGORITHM (LGA), with a maximum of 2500000 energy evaluations.

Final-Value: -12.157


	FINAL GENETIC ALGORITHM DOCKED STATE
	_______________________________________________


Detailed state:  trans 15.295 -9.406 -0.846 quatxyzw 0.195850 0.632303 -0.738754 0.126797 center -0.963 -0.416 0.212 ntor 6 154.7259 -171.4932 -130.8024 35.4378 -150.2842 -117.3988
State:	 15.295  -9.406  -0.846   0.197  0.637 -0.745 165.431    154.73 -171.49 -130.80   35.44 -150.28 -117.40

DOCKED: MODEL        2
DOCKED: USER    Run = 2
DOCKED: USER    DPF = ligand_dock.biased.dpf
DOCKED: USER  
DOCKED: USER    Estimated Free Energy of Binding    =   -8.87 kcal/mol  [=(1)+(2)+(3)-(4)]
DOCKED: USER    Estimated Inhibition Constant, Ki   =  315.46 nM (nanomolar)  [Temperature = 298.15 K]
DOCKED: USER    
DOCKED: USER    (1) Final Intermolecular Energy     =  -10.66 kcal/mol
DOCKED: USER        vdW + Hbond + desolv Energy     =  -10.66 kcal/mol
DOCKED: USER        Electrostatic Energy            =   +0.00 kcal/mol
DOCKED: USER    (2) Final Total Internal Energy     =   -1.50 kcal/mol
DOCKED: USER    (3) Torsional Free Energy           =   +1.79 kcal/mol
DOCKED: USER    (4) Unbound System's Energy  [=(2)] =   -1.50 kcal/mol
DOCKED: USER    
DOCKED: USER    
DOCKED: USER    NEWDPF move ligand.pdbqt
DOCKED: USER    NEWDPF about -0.963000 -0.416000 0.212000
DOCKED: USER    NEWDPF tran0 15.295198 -9.406040 -0.845948
DOCKED: USER    NEWDPF quaternion0 0.195850 0.632303 -0.738754 0.126797
DOCKED: USER    NEWDPF axisangle0 0.197444 0.637448 -0.744766 165.430864
DOCKED: USER    NEWDPF quat0 0.197444 0.637448 -0.744766 165.430864
DOCKED: USER    NEWDPF dihe0 154.73 -171.49 -130.80 35.44 -150.28 -117.40 
DOCKED: USER  keepresnum = 1 
DOCKED: USER  
DOCKED: REMARK  Name = 
DOCKED: REMARK  10 active torsions:
DOCKED: REMARK  status: ('A' for Active; 'I' for Inactive)
DOCKED: REMARK    1  A    between atoms: C_1  and  N_2
DOCKED: REMARK    2  A    between atoms: N_2  and  C_3
DOCKED: REMARK    3  A    between atoms: N_2  and  C_22
DOCKED: REMARK    4  A    between atoms: C_6  and  C_9
DOCKED: REMARK    5  A    between atoms: C_9  and  C_10
DOCKED: REMARK    6  A    between atoms: C_10  and  C_11
DOCKED: REMARK    7  A    between atoms: C_10  and  C_20
DOCKED: REMARK    8  A    between atoms: C_12  and  C_13
DOCKED: REMARK    9  A    between atoms: C_12  and  C_19
DOCKED: REMARK   10  A    between atoms: C_14  and  C_15
DOCKED: REMARK                            x       y       z     vdW  Elec       q    Type
DOCKED: REMARK                         _______ _______ _______ _____ _____    ______ ____
DOCKED: USER                              x       y       z     vdW  Elec       q    Type
DOCKED: USER                           _______ _______ _______ _____ _____    ______ ____
DOCKED: ROOT
DOCKED: ATOM      1  C   UNL     1      14.803 -10.673  -1.690 -0.31 -0.00    +0.000 C 
DOCKED: ATOM      2  C   UNL     1      14.363 -11.945  -2.420 -0.27 -0.00    +0.000 C 
DOCKED: ENDROOT
DOCKED: BRANCH   1   3
DOCKED: ATOM      3  C   UNL     1      16.068 -10.940  -0.897 -0.33 -0.00    +0.000 C 
DOCKED: ATOM      4  C   UNL     1      16.190 -11.872   0.071 -0.46 +0.00    +0.000 C 
DOCKED: ATOM      5  C   UNL     1      15.041 -12.776   0.459 -0.48 +0.00    +0.000 C 
DOCKED: BRANCH   4   6
DOCKED: ATOM      6  C   UNL     1      17.515 -12.021   0.726 -0.53 +0.00    +0.000 C 
DOCKED: ATOM      7  C   UNL     1      17.983 -11.154   1.637 -0.51 -0.00    +0.000 C 
DOCKED: BRANCH   7   8
DOCKED: ATOM      8  C   UNL     1      19.298 -11.295   2.296 -0.68 -0.00    +0.000 C 
DOCKED: ATOM      9  N   UNL     1      19.858 -10.264   3.118 -0.62 -0.00    +0.000 N 
DOCKED: ATOM     10  O   UNL     1      21.016 -10.482   3.784 -0.90 -0.00    +0.000 OA
DOCKED: ATOM     11  O   UNL     1      19.954 -12.353   2.104 -1.82 -0.00    +0.000 OA
DOCKED: ATOM     12  H   UNL     1      19.400  -9.396   3.199 -0.51 -0.00    +0.000 HD
DOCKED: ENDBRANCH   7   8
DOCKED: ENDBRANCH   4   6
DOCKED: ENDBRANCH   1   3
DOCKED: BRANCH   1  13
DOCKED: ATOM     13  C   UNL     1      13.690 -10.192  -0.781 -0.26 +0.00    +0.000 C 
DOCKED: ATOM     14  O   UNL     1      12.500 -10.219  -1.201 -0.27 -0.00    +0.000 OA
DOCKED: BRANCH  13  18
DOCKED: ATOM     15  C   UNL     1      14.418  -8.653   3.194 -0.27 +0.00    +0.000 A 
DOCKED: ATOM     16  C   UNL     1      13.639  -9.809   2.988 -0.26 +0.00    +0.000 A 
DOCKED: ATOM     17  C   UNL     1      13.408 -10.299   1.701 -0.25 +0.00    +0.000 A 
DOCKED: ATOM     18  C   UNL     1      13.955  -9.655   0.580 -0.19 +0.00    +0.000 A 
DOCKED: ATOM     19  C   UNL     1      14.723  -8.494   0.776 -0.23 +0.00    +0.000 A 
DOCKED: ATOM     20  C   UNL     1      14.954  -8.003   2.064 -0.24 +0.00    +0.000 A 
DOCKED: BRANCH  15  22
DOCKED: ATOM     21  C   UNL     1      14.011  -8.763   5.696 -0.50 +0.00    +0.000 C 
DOCKED: ATOM     22  N   UNL     1      14.659  -8.144   4.532 -0.36 +0.00    +0.000 N 
DOCKED: ATOM     23  C   UNL     1      15.556  -7.001   4.745 -0.40 +0.00    +0.000 C 
DOCKED: ENDBRANCH  15  22
DOCKED: ENDBRANCH  13  18
DOCKED: ENDBRANCH   1  13
DOCKED: TORSDOF 6
DOCKED: TER
DOCKED: ENDMDL
________________________________________________________________________________


	BEGINNING GENETIC ALGORITHM DOCKING 3 of 100
Run: 3 Seed: 780102293 1793749413 [ Run 3 of 100 GA/GALS ]
Beginning LAMARCKIAN GENETIC ALGORITHM (LGA), with a maximum of 2500000 energy evaluations.

Final-Value: -13.041


	FINAL GENETIC ALGORITHM DOCKED STATE
	_______________________________________________


Detailed state:  trans 21.081 -8.937 -3.531 quatxyzw -0.666780 -0.531844 0.472017 0.223040 center -0.963 -0.416 0.212 ntor 6 161.8530 -62.5566 -140.5103 63.3957 71.1009 160.8013
State:	 21.081  -8.937  -3.531  -0.684 -0.546  0.484 154.225    161.85  -62.56 -140.51   63.40   71.10  160.80

DOCKED: MODEL        3
DOCKED: USER    Run = 3
DOCKED: USER    DPF = ligand_dock.biased.dpf
DOCKED: USER  
DOCKED: USER    Estimated Free Energy of Binding    =   -9.98 kcal/mol  [=(1)+(2)+(3)-(4)]
DOCKED: USER    Estimated Inhibition Constant, Ki   =   48.57 nM (nanomolar)  [Temperature = 298.15 K]
DOCKED: USER    
DOCKED: USER    (1) Final Intermolecular Energy     =  -11.77 kcal/mol
DOCKED: USER        vdW + Hbond + desolv Energy     =  -11.77 kcal/mol
DOCKED: USER        Electrostatic Energy            =   +0.00 kcal/mol
DOCKED: USER    (2) Final Total Internal Energy     =   -1.27 kcal/mol
DOCKED: USER    (3) Torsional Free Energy           =   +1.79 kcal/mol
DOCKED: USER    (4) Unbound System's Energy  [=(2)] =   -1.27 kcal/mol
DOCKED: USER    
DOCKED: USER    
DOCKED: USER    NEWDPF move ligand.pdbqt
DOCKED: USER    NEWDPF about -0.963000 -0.416000 0.212000
DOCKED: USER    NEWDPF tran0 21.081327 -8.937329 -3.530901
DOCKED: USER    NEWDPF quaternion0 -0.666780 -0.531844 0.472017 0.223040
DOCKED: USER    NEWDPF axisangle0 -0.684010 -0.545588 0.484215 154.224754
DOCKED: USER    NEWDPF quat0 -0.684010 -0.545588 0.484215 154.224754
DOCKED: USER    NEWDPF dihe0 161.85 -62.56 -140.51 63.40 71.10 160.80 
DOCKED: USER  keepresnum = 1 
DOCKED: USER  
DOCKED: REMARK  Name = 
DOCKED: REMARK  10 active torsions:
DOCKED: REMARK  status: ('A' for Active; 'I' for Inactive)
DOCKED: REMARK    1  A    between atoms: C_1  and  N_2
DOCKED: REMARK    2  A    between atoms: N_2  and  C_3
DOCKED: REMARK    3  A    between atoms: N_2  and  C_22
DOCKED: REMARK    4  A    between atoms: C_6  and  C_9
DOCKED: REMARK    5  A    between atoms: C_9  and  C_10
DOCKED: REMARK    6  A    between atoms: C_10  and  C_11
DOCKED: REMARK    7  A    between atoms: C_10  and  C_20
DOCKED: REMARK    8  A    between atoms: C_12  and  C_13
DOCKED: REMARK    9  A    between atoms: C_12  and  C_19
DOCKED: REMARK   10  A    between atoms: C_14  and  C_15
DOCKED: REMARK                            x       y       z     vdW  Elec       q    Type
DOCKED: REMARK                         _______ _______ _______ _____ _____    ______ ____
DOCKED: USER                              x       y       z     vdW  Elec       q    Type
DOCKED: USER                           _______ _______ _______ _____ _____    ______ ____
DOCKED: ROOT
DOCKED: ATOM      1  C   UNL     1      21.528 -10.269  -4.298 -0.47 -0.00    +0.000 C 
DOCKED: ATOM      2  C   UNL     1      21.879 -11.590  -4.986 -0.51 -0.00    +0.000 C 
DOCKED: ENDROOT
DOCKED: BRANCH   1   3
DOCKED: ATOM      3  C   UNL     1      21.030 -10.531  -2.891 -0.54 -0.00    +0.000 C 
DOCKED: ATOM      4  C   UNL     1      20.951  -9.603  -1.914 -0.58 -0.00    +0.000 C 
DOCKED: ATOM      5  C   UNL     1      21.355  -8.164  -2.145 -0.49 -0.00    +0.000 C 
DOCKED: BRANCH   4   6
DOCKED: ATOM      6  C   UNL     1      20.406 -10.026  -0.598 -0.60 -0.00    +0.000 C 
DOCKED: ATOM      7  C   UNL     1      21.027 -10.906   0.202 -0.69 -0.00    +0.000 C 
DOCKED: BRANCH   7   8
DOCKED: ATOM      8  C   UNL     1      20.497 -11.331   1.513 -0.75 -0.00    +0.000 C 
DOCKED: ATOM      9  N   UNL     1      20.644 -10.537   2.696 -0.61 -0.00    +0.000 N 
DOCKED: ATOM     10  O   UNL     1      20.050 -10.920   3.850 -1.06 -0.00    +0.000 OA
DOCKED: ATOM     11  O   UNL     1      19.915 -12.447   1.591 -1.71 -0.00    +0.000 OA
DOCKED: ATOM     12  H   UNL     1      21.178  -9.709   2.669 -0.58 -0.00    +0.000 HD
DOCKED: ENDBRANCH   7   8
DOCKED: ENDBRANCH   4   6
DOCKED: ENDBRANCH   1   3
DOCKED: BRANCH   1  13
DOCKED: ATOM     13  C   UNL     1      20.484  -9.528  -5.109 -0.30 -0.00    +0.000 C 
DOCKED: ATOM     14  O   UNL     1      20.730  -8.352  -5.499 -0.19 -0.00    +0.000 OA
DOCKED: BRANCH  13  18
DOCKED: ATOM     15  C   UNL     1      16.653 -11.269  -6.103 -0.29 -0.00    +0.000 A 
DOCKED: ATOM     16  C   UNL     1      17.768 -11.425  -6.949 -0.33 -0.00    +0.000 A 
DOCKED: ATOM     17  C   UNL     1      19.002 -10.858  -6.621 -0.32 -0.00    +0.000 A 
DOCKED: ATOM     18  C   UNL     1      19.162 -10.127  -5.434 -0.26 -0.00    +0.000 A 
DOCKED: ATOM     19  C   UNL     1      18.050  -9.957  -4.591 -0.24 -0.00    +0.000 A 
DOCKED: ATOM     20  C   UNL     1      16.816 -10.522  -4.919 -0.22 -0.00    +0.000 A 
DOCKED: BRANCH  15  22
DOCKED: ATOM     21  C   UNL     1      15.221 -12.676  -7.654 -0.42 -0.00    +0.000 C 
DOCKED: ATOM     22  N   UNL     1      15.370 -11.859  -6.443 -0.31 -0.00    +0.000 N 
DOCKED: ATOM     23  C   UNL     1      14.201 -11.647  -5.582 -0.30 -0.00    +0.000 C 
DOCKED: ENDBRANCH  15  22
DOCKED: ENDBRANCH  13  18
DOCKED: ENDBRANCH   1  13
DOCKED: TORSDOF 6
DOCKED: TER
DOCKED: ENDMDL
________________________________________________________________________________


	BEGINNING GENETIC ALGORITHM DOCKING 4 of 100
Run: 4 Seed: 962400313 2032630529 [ Run 4 of 100 GA/GALS ]
Beginning LAMARCKIAN GENETIC ALGORITHM (LGA), with a maximum of 2500000 energy evaluations.

Final-Value: -13.224


	FINAL GENETIC ALGORITHM DOCKED STATE
	_______________________________________________


Detailed state:  trans 18.912 -11.385 2.989 quatxyzw 0.910965 -0.386163 -0.120125 0.081185 center -0.963 -0.416 0.212 ntor 6 -65.1987 -126.4884 -33.1683 -85.8210 -25.3334 150.7039
State:	 18.912 -11.385   2.989   0.914 -0.387 -0.121 170.687    -65.20 -126.49  -33.17  -85.82  -25.33  150.70

DOCKED: MODEL        4
DOCKED: USER    Run = 4
DOCKED: USER    DPF = ligand_dock.biased.dpf
DOCKED: USER  
DOCKED: USER    Estimated Free Energy of Binding    =  -10.57 kcal/mol  [=(1)+(2)+(3)-(4)]
DOCKED: USER    Estimated Inhibition Constant, Ki   =   17.77 nM (nanomolar)  [Temperature = 298.15 K]
DOCKED: USER    
DOCKED: USER    (1) Final Intermolecular Energy     =  -12.36 kcal/mol
DOCKED: USER        vdW + Hbond + desolv Energy     =  -12.36 kcal/mol
DOCKED: USER        Electrostatic Energy            =   +0.00 kcal/mol
DOCKED: USER    (2) Final Total Internal Energy     =   -0.86 kcal/mol
DOCKED: USER    (3) Torsional Free Energy           =   +1.79 kcal/mol
DOCKED: USER    (4) Unbound System's Energy  [=(2)] =   -0.86 kcal/mol
DOCKED: USER    
DOCKED: USER    
DOCKED: USER    NEWDPF move ligand.pdbqt
DOCKED: USER    NEWDPF about -0.963000 -0.416000 0.212000
DOCKED: USER    NEWDPF tran0 18.912012 -11.384662 2.988687
DOCKED: USER    NEWDPF quaternion0 0.910965 -0.386163 -0.120125 0.081185
DOCKED: USER    NEWDPF axisangle0 0.913982 -0.387442 -0.120523 170.686603
DOCKED: USER    NEWDPF quat0 0.913982 -0.387442 -0.120523 170.686603
DOCKED: USER    NEWDPF dihe0 -65.20 -126.49 -33.17 -85.82 -25.33 150.70 
DOCKED: USER  keepresnum = 1 
DOCKED: USER  
DOCKED: REMARK  Name = 
DOCKED: REMARK  10 active torsions:
DOCKED: REMARK  status: ('A' for Active; 'I' for Inactive)
DOCKED: REMARK    1  A    between atoms: C_1  and  N_2
DOCKED: REMARK    2  A    between atoms: N_2  and  C_3
DOCKED: REMARK    3  A    between atoms: N_2  and  C_22
DOCKED: REMARK    4  A    between atoms: C_6  and  C_9
DOCKED: REMARK    5  A    between atoms: C_9  and  C_10
DOCKED: REMARK    6  A    between atoms: C_10  and  C_11
DOCKED: REMARK    7  A    between atoms: C_10  and  C_20
DOCKED: REMARK    8  A    between atoms: C_12  and  C_13
DOCKED: REMARK    9  A    between atoms: C_12  and  C_19
DOCKED: REMARK   10  A    between atoms: C_14  and  C_15
DOCKED: REMARK                            x       y       z     vdW  Elec       q    Type
DOCKED: REMARK                         _______ _______ _______ _____ _____    ______ ____
DOCKED: USER                              x       y       z     vdW  Elec       q    Type
DOCKED: USER                           _______ _______ _______ _____ _____    ______ ____
DOCKED: ROOT
DOCKED: ATOM      1  C   UNL     1      17.983 -11.782   1.748 -0.45 +0.00    +0.000 C 
DOCKED: ATOM      2  C   UNL     1      17.090 -12.064   0.537 -0.51 +0.00    +0.000 C 
DOCKED: ENDROOT
DOCKED: BRANCH   1   3
DOCKED: ATOM      3  C   UNL     1      17.591 -10.465   2.388 -0.51 +0.00    +0.000 C 
DOCKED: ATOM      4  C   UNL     1      16.415 -10.227   3.007 -0.47 +0.00    +0.000 C 
DOCKED: ATOM      5  C   UNL     1      15.350 -11.292   3.135 -0.54 +0.00    +0.000 C 
DOCKED: BRANCH   4   6
DOCKED: ATOM      6  C   UNL     1      16.209  -8.884   3.610 -0.31 +0.00    +0.000 C 
DOCKED: ATOM      7  C   UNL     1      15.039  -8.491   4.135 -0.39 +0.00    +0.000 C 
DOCKED: BRANCH   7   8
DOCKED: ATOM      8  C   UNL     1      14.823  -7.160   4.740 -0.44 +0.00    +0.000 C 
DOCKED: ATOM      9  N   UNL     1      13.980  -6.962   5.880 -0.46 +0.00    +0.000 N 
DOCKED: ATOM     10  O   UNL     1      13.897  -5.742   6.460 -1.12 +0.00    +0.000 OA
DOCKED: ATOM     11  O   UNL     1      15.387  -6.164   4.212 -0.47 +0.00    +0.000 OA
DOCKED: ATOM     12  H   UNL     1      13.459  -7.716   6.243 -0.04 +0.00    +0.000 HD
DOCKED: ENDBRANCH   7   8
DOCKED: ENDBRANCH   4   6
DOCKED: ENDBRANCH   1   3
DOCKED: BRANCH   1  13
DOCKED: ATOM     13  C   UNL     1      19.437 -11.760   1.321 -0.69 -0.00    +0.000 C 
DOCKED: ATOM     14  O   UNL     1      20.288 -12.389   2.011 -1.86 -0.00    +0.000 OA
DOCKED: BRANCH  13  18
DOCKED: ATOM     15  C   UNL     1      20.808  -9.496  -2.097 -0.49 -0.00    +0.000 A 
DOCKED: ATOM     16  C   UNL     1      21.306  -9.241  -0.804 -0.54 -0.00    +0.000 A 
DOCKED: ATOM     17  C   UNL     1      20.856  -9.977   0.295 -0.58 -0.00    +0.000 A 
DOCKED: ATOM     18  C   UNL     1      19.904 -10.995   0.135 -0.55 -0.00    +0.000 A 
DOCKED: ATOM     19  C   UNL     1      19.393 -11.246  -1.150 -0.36 -0.00    +0.000 A 
DOCKED: ATOM     20  C   UNL     1      19.841 -10.510  -2.250 -0.42 -0.00    +0.000 A 
DOCKED: BRANCH  15  22
DOCKED: ATOM     21  C   UNL     1      21.618  -9.406  -4.499 -0.37 -0.00    +0.000 C 
DOCKED: ATOM     22  N   UNL     1      21.274  -8.732  -3.240 -0.41 -0.00    +0.000 N 
DOCKED: ATOM     23  C   UNL     1      21.410  -7.273  -3.158 -0.40 -0.00    +0.000 C 
DOCKED: ENDBRANCH  15  22
DOCKED: ENDBRANCH  13  18
DOCKED: ENDBRANCH   1  13
DOCKED: TORSDOF 6
DOCKED: TER
DOCKED: ENDMDL
________________________________________________________________________________


	BEGINNING GENETIC ALGORITHM DOCKING 5 of 100
Run: 5 Seed: 1708222393 1823872778 [ Run 5 of 100 GA/GALS ]
Beginning LAMARCKIAN GENETIC ALGORITHM (LGA), with a maximum of 2500000 energy evaluations.

Final-Value: -11.587


	FINAL GENETIC ALGORITHM DOCKED STATE
	_______________________________________________


Detailed state:  trans 14.956 -11.131 -0.350 quatxyzw 0.302426 -0.840246 -0.289740 0.344349 center -0.963 -0.416 0.212 ntor 6 154.6310 -22.0404 76.8447 19.8497 58.5811 171.8475
State:	 14.956 -11.131  -0.350   0.322 -0.895 -0.309 139.716    154.63  -22.04   76.84   19.85   58.58  171.85

DOCKED: MODEL        5
DOCKED: USER    Run = 5
DOCKED: USER    DPF = ligand_dock.biased.dpf
DOCKED: USER  
DOCKED: USER    Estimated Free Energy of Binding    =   -8.54 kcal/mol  [=(1)+(2)+(3)-(4)]
DOCKED: USER    Estimated Inhibition Constant, Ki   =  552.95 nM (nanomolar)  [Temperature = 298.15 K]
DOCKED: USER    
DOCKED: USER    (1) Final Intermolecular Energy     =  -10.33 kcal/mol
DOCKED: USER        vdW + Hbond + desolv Energy     =  -10.33 kcal/mol
DOCKED: USER        Electrostatic Energy            =   +0.00 kcal/mol
DOCKED: USER    (2) Final Total Internal Energy     =   -1.26 kcal/mol
DOCKED: USER    (3) Torsional Free Energy           =   +1.79 kcal/mol
DOCKED: USER    (4) Unbound System's Energy  [=(2)] =   -1.26 kcal/mol
DOCKED: USER    
DOCKED: USER    
DOCKED: USER    NEWDPF move ligand.pdbqt
DOCKED: USER    NEWDPF about -0.963000 -0.416000 0.212000
DOCKED: USER    NEWDPF tran0 14.955992 -11.131208 -0.349543
DOCKED: USER    NEWDPF quaternion0 0.302426 -0.840246 -0.289740 0.344349
DOCKED: USER    NEWDPF axisangle0 0.322127 -0.894981 -0.308615 139.715888
DOCKED: USER    NEWDPF quat0 0.322127 -0.894981 -0.308615 139.715888
DOCKED: USER    NEWDPF dihe0 154.63 -22.04 76.84 19.85 58.58 171.85 
DOCKED: USER  keepresnum = 1 
DOCKED: USER  
DOCKED: REMARK  Name = 
DOCKED: REMARK  10 active torsions:
DOCKED: REMARK  status: ('A' for Active; 'I' for Inactive)
DOCKED: REMARK    1  A    between atoms: C_1  and  N_2
DOCKED: REMARK    2  A    between atoms: N_2  and  C_3
DOCKED: REMARK    3  A    between atoms: N_2  and  C_22
DOCKED: REMARK    4  A    between atoms: C_6  and  C_9
DOCKED: REMARK    5  A    between atoms: C_9  and  C_10
DOCKED: REMARK    6  A    between atoms: C_10  and  C_11
DOCKED: REMARK    7  A    between atoms: C_10  and  C_20
DOCKED: REMARK    8  A    between atoms: C_12  and  C_13
DOCKED: REMARK    9  A    between atoms: C_12  and  C_19
DOCKED: REMARK   10  A    between atoms: C_14  and  C_15
DOCKED: REMARK                            x       y       z     vdW  Elec       q    Type
DOCKED: REMARK                         _______ _______ _______ _____ _____    ______ ____
DOCKED: USER                              x       y       z     vdW  Elec       q    Type
DOCKED: USER                           _______ _______ _______ _____ _____    ______ ____
DOCKED: ROOT
DOCKED: ATOM      1  C   UNL     1      14.740  -9.611  -0.801 -0.26 -0.00    +0.000 C 
DOCKED: ATOM      2  C   UNL     1      14.635  -8.146  -1.231 -0.21 -0.00    +0.000 C 
DOCKED: ENDROOT
DOCKED: BRANCH   1   3
DOCKED: ATOM      3  C   UNL     1      15.892  -9.787   0.170 -0.24 +0.00    +0.000 C 
DOCKED: ATOM      4  C   UNL     1      15.943 -10.717   1.147 -0.37 +0.00    +0.000 C 
DOCKED: ATOM      5  C   UNL     1      14.824 -11.711   1.363 -0.46 +0.00    +0.000 C 
DOCKED: BRANCH   4   6
DOCKED: ATOM      6  C   UNL     1      17.166 -10.770   1.989 -0.46 +0.00    +0.000 C 
DOCKED: ATOM      7  C   UNL     1      18.321 -11.309   1.569 -0.55 -0.00    +0.000 C 
DOCKED: BRANCH   7   8
DOCKED: ATOM      8  C   UNL     1      19.543 -11.364   2.397 -0.72 -0.00    +0.000 C 
DOCKED: ATOM      9  N   UNL     1      19.946 -10.282   3.245 -0.63 -0.00    +0.000 N 
DOCKED: ATOM     10  O   UNL     1      21.015 -10.422   4.062 -0.80 -0.00    +0.000 OA
DOCKED: ATOM     11  O   UNL     1      20.265 -12.395   2.331 -1.93 -0.00    +0.000 OA
DOCKED: ATOM     12  H   UNL     1      19.443  -9.435   3.234 -0.51 -0.00    +0.000 HD
DOCKED: ENDBRANCH   7   8
DOCKED: ENDBRANCH   4   6
DOCKED: ENDBRANCH   1   3
DOCKED: BRANCH   1  13
DOCKED: ATOM     13  C   UNL     1      14.925 -10.493  -2.020 -0.30 -0.00    +0.000 C 
DOCKED: ATOM     14  O   UNL     1      14.001 -11.290  -2.346 -0.38 -0.00    +0.000 OA
DOCKED: BRANCH  13  18
DOCKED: ATOM     15  C   UNL     1      18.529 -10.466  -4.408 -0.29 -0.00    +0.000 A 
DOCKED: ATOM     16  C   UNL     1      17.255 -10.427  -5.007 -0.23 -0.00    +0.000 A 
DOCKED: ATOM     17  C   UNL     1      16.095 -10.437  -4.228 -0.20 -0.00    +0.000 A 
DOCKED: ATOM     18  C   UNL     1      16.173 -10.477  -2.827 -0.19 -0.00    +0.000 A 
DOCKED: ATOM     19  C   UNL     1      17.441 -10.529  -2.222 -0.20 -0.00    +0.000 A 
DOCKED: ATOM     20  C   UNL     1      18.601 -10.520  -3.001 -0.31 -0.00    +0.000 A 
DOCKED: BRANCH  15  22
DOCKED: ATOM     21  C   UNL     1      19.652 -10.509  -6.682 -0.32 -0.00    +0.000 C 
DOCKED: ATOM     22  N   UNL     1      19.735 -10.455  -5.217 -0.31 -0.00    +0.000 N 
DOCKED: ATOM     23  C   UNL     1      21.057 -10.389  -4.584 -0.47 -0.00    +0.000 C 
DOCKED: ENDBRANCH  15  22
DOCKED: ENDBRANCH  13  18
DOCKED: ENDBRANCH   1  13
DOCKED: TORSDOF 6
DOCKED: TER
DOCKED: ENDMDL
________________________________________________________________________________


	BEGINNING GENETIC ALGORITHM DOCKING 6 of 100
Run: 6 Seed: 689239400 823551523 [ Run 6 of 100 GA/GALS ]
Beginning LAMARCKIAN GENETIC ALGORITHM (LGA), with a maximum of 2500000 energy evaluations.

Final-Value: -13.268


	FINAL GENETIC ALGORITHM DOCKED STATE
	_______________________________________________


Detailed state:  trans 18.992 -10.410 -3.429 quatxyzw -0.042516 -0.743458 0.087007 0.661735 center -0.963 -0.416 0.212 ntor 6 69.2629 -105.1566 165.0777 69.7344 74.0292 101.6466
State:	 18.992 -10.410  -3.429  -0.057 -0.992  0.116 97.135     69.26 -105.16  165.08   69.73   74.03  101.65

DOCKED: MODEL        6
DOCKED: USER    Run = 6
DOCKED: USER    DPF = ligand_dock.biased.dpf
DOCKED: USER  
DOCKED: USER    Estimated Free Energy of Binding    =  -10.44 kcal/mol  [=(1)+(2)+(3)-(4)]
DOCKED: USER    Estimated Inhibition Constant, Ki   =   22.31 nM (nanomolar)  [Temperature = 298.15 K]
DOCKED: USER    
DOCKED: USER    (1) Final Intermolecular Energy     =  -12.23 kcal/mol
DOCKED: USER        vdW + Hbond + desolv Energy     =  -12.23 kcal/mol
DOCKED: USER        Electrostatic Energy            =   +0.00 kcal/mol
DOCKED: USER    (2) Final Total Internal Energy     =   -1.04 kcal/mol
DOCKED: USER    (3) Torsional Free Energy           =   +1.79 kcal/mol
DOCKED: USER    (4) Unbound System's Energy  [=(2)] =   -1.04 kcal/mol
DOCKED: USER    
DOCKED: USER    
DOCKED: USER    NEWDPF move ligand.pdbqt
DOCKED: USER    NEWDPF about -0.963000 -0.416000 0.212000
DOCKED: USER    NEWDPF tran0 18.992095 -10.410409 -3.428908
DOCKED: USER    NEWDPF quaternion0 -0.042516 -0.743458 0.087007 0.661735
DOCKED: USER    NEWDPF axisangle0 -0.056707 -0.991623 0.116050 97.135396
DOCKED: USER    NEWDPF quat0 -0.056707 -0.991623 0.116050 97.135396
DOCKED: USER    NEWDPF dihe0 69.26 -105.16 165.08 69.73 74.03 101.65 
DOCKED: USER  keepresnum = 1 
DOCKED: USER  
DOCKED: REMARK  Name = 
DOCKED: REMARK  10 active torsions:
DOCKED: REMARK  status: ('A' for Active; 'I' for Inactive)
DOCKED: REMARK    1  A    between atoms: C_1  and  N_2
DOCKED: REMARK    2  A    between atoms: N_2  and  C_3
DOCKED: REMARK    3  A    between atoms: N_2  and  C_22
DOCKED: REMARK    4  A    between atoms: C_6  and  C_9
DOCKED: REMARK    5  A    between atoms: C_9  and  C_10
DOCKED: REMARK    6  A    between atoms: C_10  and  C_11
DOCKED: REMARK    7  A    between atoms: C_10  and  C_20
DOCKED: REMARK    8  A    between atoms: C_12  and  C_13
DOCKED: REMARK    9  A    between atoms: C_12  and  C_19
DOCKED: REMARK   10  A    between atoms: C_14  and  C_15
DOCKED: REMARK                            x       y       z     vdW  Elec       q    Type
DOCKED: REMARK                         _______ _______ _______ _____ _____    ______ ____
DOCKED: USER                              x       y       z     vdW  Elec       q    Type
DOCKED: USER                           _______ _______ _______ _____ _____    ______ ____
DOCKED: ROOT
DOCKED: ATOM      1  C   UNL     1      20.382  -9.645  -3.634 -0.42 -0.00    +0.000 C 
DOCKED: ATOM      2  C   UNL     1      21.755  -8.981  -3.768 -0.33 -0.00    +0.000 C 
DOCKED: ENDROOT
DOCKED: BRANCH   1   3
DOCKED: ATOM      3  C   UNL     1      20.198 -10.178  -2.227 -0.51 -0.00    +0.000 C 
DOCKED: ATOM      4  C   UNL     1      19.019 -10.569  -1.698 -0.41 -0.00    +0.000 C 
DOCKED: ATOM      5  C   UNL     1      17.732 -10.521  -2.491 -0.25 -0.00    +0.000 C 
DOCKED: BRANCH   4   6
DOCKED: ATOM      6  C   UNL     1      19.024 -11.098  -0.309 -0.51 -0.00    +0.000 C 
DOCKED: ATOM      7  C   UNL     1      20.082 -10.996   0.509 -0.66 -0.00    +0.000 C 
DOCKED: BRANCH   7   8
DOCKED: ATOM      8  C   UNL     1      20.097 -11.516   1.891 -0.76 -0.00    +0.000 C 
DOCKED: ATOM      9  N   UNL     1      20.371 -10.681   3.023 -0.68 -0.00    +0.000 N 
DOCKED: ATOM     10  O   UNL     1      20.270 -11.182   4.276 -1.05 -0.00    +0.000 OA
DOCKED: ATOM     11  O   UNL     1      19.884 -12.745   2.071 -1.60 -0.00    +0.000 OA
DOCKED: ATOM     12  H   UNL     1      20.633  -9.741   2.888 -0.58 -0.00    +0.000 HD
DOCKED: ENDBRANCH   7   8
DOCKED: ENDBRANCH   4   6
DOCKED: ENDBRANCH   1   3
DOCKED: BRANCH   1  13
DOCKED: ATOM     13  C   UNL     1      20.248 -10.759  -4.653 -0.46 -0.00    +0.000 C 
DOCKED: ATOM     14  O   UNL     1      19.198 -11.461  -4.659 -0.48 -0.00    +0.000 OA
DOCKED: BRANCH  13  18
DOCKED: ATOM     15  C   UNL     1      23.356 -11.666  -7.519 -0.44 -0.00    +0.000 A 
DOCKED: ATOM     16  C   UNL     1      22.413 -10.647  -7.760 -0.28 -0.00    +0.000 A 
DOCKED: ATOM     17  C   UNL     1      21.412 -10.361  -6.829 -0.29 -0.00    +0.000 A 
DOCKED: ATOM     18  C   UNL     1      21.326 -11.078  -5.625 -0.44 -0.00    +0.000 A 
DOCKED: ATOM     19  C   UNL     1      22.255 -12.105  -5.384 -0.43 -0.00    +0.000 A 
DOCKED: ATOM     20  C   UNL     1      23.257 -12.392  -6.315 -0.38 -0.00    +0.000 A 
DOCKED: BRANCH  15  22
DOCKED: ATOM     21  C   UNL     1      24.173 -12.957  -9.544 -0.41 -0.00    +0.000 C 
DOCKED: ATOM     22  N   UNL     1      24.397 -11.963  -8.486 -0.43 -0.00    +0.000 N 
DOCKED: ATOM     23  C   UNL     1      25.693 -11.276  -8.422 -0.42 -0.00    +0.000 C 
DOCKED: ENDBRANCH  15  22
DOCKED: ENDBRANCH  13  18
DOCKED: ENDBRANCH   1  13
DOCKED: TORSDOF 6
DOCKED: TER
DOCKED: ENDMDL
________________________________________________________________________________


	BEGINNING GENETIC ALGORITHM DOCKING 7 of 100
Run: 7 Seed: 2139100504 811371883 [ Run 7 of 100 GA/GALS ]
Beginning LAMARCKIAN GENETIC ALGORITHM (LGA), with a maximum of 2500000 energy evaluations.

Final-Value: -12.461


	FINAL GENETIC ALGORITHM DOCKED STATE
	_______________________________________________


Detailed state:  trans 19.556 -9.468 -3.349 quatxyzw -0.361183 -0.706629 0.456451 0.402336 center -0.963 -0.416 0.212 ntor 6 82.0106 7.5331 155.3688 -84.6840 27.2843 -90.7650
State:	 19.556  -9.468  -3.349  -0.395 -0.772  0.499 132.551     82.01    7.53  155.37  -84.68   27.28  -90.76

DOCKED: MODEL        7
DOCKED: USER    Run = 7
DOCKED: USER    DPF = ligand_dock.biased.dpf
DOCKED: USER  
DOCKED: USER    Estimated Free Energy of Binding    =   -9.39 kcal/mol  [=(1)+(2)+(3)-(4)]
DOCKED: USER    Estimated Inhibition Constant, Ki   =  130.39 nM (nanomolar)  [Temperature = 298.15 K]
DOCKED: USER    
DOCKED: USER    (1) Final Intermolecular Energy     =  -11.18 kcal/mol
DOCKED: USER        vdW + Hbond + desolv Energy     =  -11.18 kcal/mol
DOCKED: USER        Electrostatic Energy            =   +0.00 kcal/mol
DOCKED: USER    (2) Final Total Internal Energy     =   -1.28 kcal/mol
DOCKED: USER    (3) Torsional Free Energy           =   +1.79 kcal/mol
DOCKED: USER    (4) Unbound System's Energy  [=(2)] =   -1.28 kcal/mol
DOCKED: USER    
DOCKED: USER    
DOCKED: USER    NEWDPF move ligand.pdbqt
DOCKED: USER    NEWDPF about -0.963000 -0.416000 0.212000
DOCKED: USER    NEWDPF tran0 19.555715 -9.468393 -3.349424
DOCKED: USER    NEWDPF quaternion0 -0.361183 -0.706629 0.456451 0.402336
DOCKED: USER    NEWDPF axisangle0 -0.394524 -0.771857 0.498585 132.551401
DOCKED: USER    NEWDPF quat0 -0.394524 -0.771857 0.498585 132.551401
DOCKED: USER    NEWDPF dihe0 82.01 7.53 155.37 -84.68 27.28 -90.76 
DOCKED: USER  keepresnum = 1 
DOCKED: USER  
DOCKED: REMARK  Name = 
DOCKED: REMARK  10 active torsions:
DOCKED: REMARK  status: ('A' for Active; 'I' for Inactive)
DOCKED: REMARK    1  A    between atoms: C_1  and  N_2
DOCKED: REMARK    2  A    between atoms: N_2  and  C_3
DOCKED: REMARK    3  A    between atoms: N_2  and  C_22
DOCKED: REMARK    4  A    between atoms: C_6  and  C_9
DOCKED: REMARK    5  A    between atoms: C_9  and  C_10
DOCKED: REMARK    6  A    between atoms: C_10  and  C_11
DOCKED: REMARK    7  A    between atoms: C_10  and  C_20
DOCKED: REMARK    8  A    between atoms: C_12  and  C_13
DOCKED: REMARK    9  A    between atoms: C_12  and  C_19
DOCKED: REMARK   10  A    between atoms: C_14  and  C_15
DOCKED: REMARK                            x       y       z     vdW  Elec       q    Type
DOCKED: REMARK                         _______ _______ _______ _____ _____    ______ ____
DOCKED: USER                              x       y       z     vdW  Elec       q    Type
DOCKED: USER                           _______ _______ _______ _____ _____    ______ ____
DOCKED: ROOT
DOCKED: ATOM      1  C   UNL     1      20.743 -10.300  -4.027 -0.47 -0.00    +0.000 C 
DOCKED: ATOM      2  C   UNL     1      21.860 -11.171  -4.607 -0.46 -0.00    +0.000 C 
DOCKED: ENDROOT
DOCKED: BRANCH   1   3
DOCKED: ATOM      3  C   UNL     1      20.667 -10.486  -2.524 -0.54 -0.00    +0.000 C 
DOCKED: ATOM      4  C   UNL     1      20.850  -9.505  -1.615 -0.58 -0.00    +0.000 C 
DOCKED: ATOM      5  C   UNL     1      21.145  -8.080  -2.026 -0.48 -0.00    +0.000 C 
DOCKED: BRANCH   4   6
DOCKED: ATOM      6  C   UNL     1      20.707  -9.856  -0.178 -0.65 -0.00    +0.000 C 
DOCKED: ATOM      7  C   UNL     1      20.445 -11.101   0.248 -0.65 -0.00    +0.000 C 
DOCKED: BRANCH   7   8
DOCKED: ATOM      8  C   UNL     1      20.304 -11.461   1.674 -0.77 -0.00    +0.000 C 
DOCKED: ATOM      9  N   UNL     1      20.642 -10.557   2.732 -0.62 -0.00    +0.000 N 
DOCKED: ATOM     10  O   UNL     1      20.397 -10.896   4.019 -1.11 -0.00    +0.000 OA
DOCKED: ATOM     11  O   UNL     1      19.893 -12.617   1.961 -1.68 -0.00    +0.000 OA
DOCKED: ATOM     12  H   UNL     1      21.054  -9.687   2.522 -0.58 -0.00    +0.000 HD
DOCKED: ENDBRANCH   7   8
DOCKED: ENDBRANCH   4   6
DOCKED: ENDBRANCH   1   3
DOCKED: BRANCH   1  13
DOCKED: ATOM     13  C   UNL     1      19.422 -10.657  -4.679 -0.40 -0.00    +0.000 C 
DOCKED: ATOM     14  O   UNL     1      19.428 -11.336  -5.744 -0.45 -0.00    +0.000 OA
DOCKED: BRANCH  13  18
DOCKED: ATOM     15  C   UNL     1      15.629  -9.302  -3.108 -0.20 -0.00    +0.000 A 
DOCKED: ATOM     16  C   UNL     1      16.035  -8.979  -4.417 -0.16 -0.00    +0.000 A 
DOCKED: ATOM     17  C   UNL     1      17.263  -9.420  -4.917 -0.18 -0.00    +0.000 A 
DOCKED: ATOM     18  C   UNL     1      18.118 -10.204  -4.127 -0.26 -0.00    +0.000 A 
DOCKED: ATOM     19  C   UNL     1      17.726 -10.519  -2.815 -0.18 -0.00    +0.000 A 
DOCKED: ATOM     20  C   UNL     1      16.498 -10.077  -2.314 -0.20 -0.00    +0.000 A 
DOCKED: BRANCH  15  22
DOCKED: ATOM     21  C   UNL     1      14.183  -7.456  -2.139 -0.18 -0.00    +0.000 C 
DOCKED: ATOM     22  N   UNL     1      14.353  -8.844  -2.588 -0.17 -0.00    +0.000 N 
DOCKED: ATOM     23  C   UNL     1      13.210  -9.761  -2.501 -0.23 -0.00    +0.000 C 
DOCKED: ENDBRANCH  15  22
DOCKED: ENDBRANCH  13  18
DOCKED: ENDBRANCH   1  13
DOCKED: TORSDOF 6
DOCKED: TER
DOCKED: ENDMDL
________________________________________________________________________________


	BEGINNING GENETIC ALGORITHM DOCKING 8 of 100
Run: 8 Seed: 329918139 841035080 [ Run 8 of 100 GA/GALS ]
Beginning LAMARCKIAN GENETIC ALGORITHM (LGA), with a maximum of 2500000 energy evaluations.

Final-Value: -11.973


	FINAL GENETIC ALGORITHM DOCKED STATE
	_______________________________________________


Detailed state:  trans 19.483 -9.578 1.487 quatxyzw 0.539029 0.065406 -0.396074 -0.740470 center -0.963 -0.416 0.212 ntor 6 113.5837 -166.9716 95.6681 -166.7507 -171.4611 -56.4845
State:	 19.483  -9.578   1.487   0.802  0.097 -0.589 -84.457    113.58 -166.97   95.67 -166.75 -171.46  -56.48

DOCKED: MODEL        8
DOCKED: USER    Run = 8
DOCKED: USER    DPF = ligand_dock.biased.dpf
DOCKED: USER  
DOCKED: USER    Estimated Free Energy of Binding    =   -9.41 kcal/mol  [=(1)+(2)+(3)-(4)]
DOCKED: USER    Estimated Inhibition Constant, Ki   =  126.74 nM (nanomolar)  [Temperature = 298.15 K]
DOCKED: USER    
DOCKED: USER    (1) Final Intermolecular Energy     =  -11.20 kcal/mol
DOCKED: USER        vdW + Hbond + desolv Energy     =  -11.20 kcal/mol
DOCKED: USER        Electrostatic Energy            =   +0.00 kcal/mol
DOCKED: USER    (2) Final Total Internal Energy     =   -0.77 kcal/mol
DOCKED: USER    (3) Torsional Free Energy           =   +1.79 kcal/mol
DOCKED: USER    (4) Unbound System's Energy  [=(2)] =   -0.77 kcal/mol
DOCKED: USER    
DOCKED: USER    
DOCKED: USER    NEWDPF move ligand.pdbqt
DOCKED: USER    NEWDPF about -0.963000 -0.416000 0.212000
DOCKED: USER    NEWDPF tran0 19.482869 -9.578096 1.486613
DOCKED: USER    NEWDPF quaternion0 0.539029 0.065406 -0.396074 -0.740470
DOCKED: USER    NEWDPF axisangle0 0.802019 0.097318 -0.589318 -84.457104
DOCKED: USER    NEWDPF quat0 0.802019 0.097318 -0.589318 -84.457104
DOCKED: USER    NEWDPF dihe0 113.58 -166.97 95.67 -166.75 -171.46 -56.48 
DOCKED: USER  keepresnum = 1 
DOCKED: USER  
DOCKED: REMARK  Name = 
DOCKED: REMARK  10 active torsions:
DOCKED: REMARK  status: ('A' for Active; 'I' for Inactive)
DOCKED: REMARK    1  A    between atoms: C_1  and  N_2
DOCKED: REMARK    2  A    between atoms: N_2  and  C_3
DOCKED: REMARK    3  A    between atoms: N_2  and  C_22
DOCKED: REMARK    4  A    between atoms: C_6  and  C_9
DOCKED: REMARK    5  A    between atoms: C_9  and  C_10
DOCKED: REMARK    6  A    between atoms: C_10  and  C_11
DOCKED: REMARK    7  A    between atoms: C_10  and  C_20
DOCKED: REMARK    8  A    between atoms: C_12  and  C_13
DOCKED: REMARK    9  A    between atoms: C_12  and  C_19
DOCKED: REMARK   10  A    between atoms: C_14  and  C_15
DOCKED: REMARK                            x       y       z     vdW  Elec       q    Type
DOCKED: REMARK                         _______ _______ _______ _____ _____    ______ ____
DOCKED: USER                              x       y       z     vdW  Elec       q    Type
DOCKED: USER                           _______ _______ _______ _____ _____    ______ ____
DOCKED: ROOT
DOCKED: ATOM      1  C   UNL     1      19.738 -10.522   2.754 -0.68 -0.00    +0.000 C 
DOCKED: ATOM      2  C   UNL     1      19.881 -11.439   3.971 -0.56 -0.00    +0.000 C 
DOCKED: ENDROOT
DOCKED: BRANCH   1   3
DOCKED: ATOM      3  C   UNL     1      18.471  -9.697   2.870 -0.43 -0.00    +0.000 C 
DOCKED: ATOM      4  C   UNL     1      17.230 -10.143   2.579 -0.48 +0.00    +0.000 C 
DOCKED: ATOM      5  C   UNL     1      16.980 -11.557   2.107 -0.37 +0.00    +0.000 C 
DOCKED: BRANCH   4   6
DOCKED: ATOM      6  C   UNL     1      16.093  -9.208   2.781 -0.40 +0.00    +0.000 C 
DOCKED: ATOM      7  C   UNL     1      15.817  -8.637   3.964 -0.28 +0.00    +0.000 C 
DOCKED: BRANCH   7   8
DOCKED: ATOM      8  C   UNL     1      14.691  -7.704   4.175 -0.39 +0.00    +0.000 C 
DOCKED: ATOM      9  N   UNL     1      14.359  -7.181   5.467 -0.43 +0.00    +0.000 N 
DOCKED: ATOM     10  O   UNL     1      13.386  -6.250   5.592 -0.63 +0.00    +0.000 OA
DOCKED: ATOM     11  O   UNL     1      13.988  -7.379   3.181 -0.24 +0.00    +0.000 OA
DOCKED: ATOM     12  H   UNL     1      14.841  -7.500   6.265 -0.04 +0.00    +0.000 HD
DOCKED: ENDBRANCH   7   8
DOCKED: ENDBRANCH   4   6
DOCKED: ENDBRANCH   1   3
DOCKED: BRANCH   1  13
DOCKED: ATOM     13  C   UNL     1      19.725 -11.350   1.484 -0.70 -0.00    +0.000 C 
DOCKED: ATOM     14  O   UNL     1      19.462 -12.583   1.559 -1.47 -0.00    +0.000 OA
DOCKED: BRANCH  13  18
DOCKED: ATOM     15  C   UNL     1      20.679  -9.614  -2.359 -0.47 -0.00    +0.000 A 
DOCKED: ATOM     16  C   UNL     1      21.389  -9.253  -1.197 -0.53 -0.00    +0.000 A 
DOCKED: ATOM     17  C   UNL     1      21.073  -9.817   0.041 -0.60 -0.00    +0.000 A 
DOCKED: ATOM     18  C   UNL     1      20.046 -10.767   0.155 -0.56 -0.00    +0.000 A 
DOCKED: ATOM     19  C   UNL     1      19.325 -11.123  -0.998 -0.40 -0.00    +0.000 A 
DOCKED: ATOM     20  C   UNL     1      19.639 -10.557  -2.237 -0.40 -0.00    +0.000 A 
DOCKED: BRANCH  15  22
DOCKED: ATOM     21  C   UNL     1      21.219  -7.580  -3.776 -0.35 -0.00    +0.000 C 
DOCKED: ATOM     22  N   UNL     1      21.007  -9.027  -3.646 -0.38 -0.00    +0.000 N 
DOCKED: ATOM     23  C   UNL     1      21.132  -9.872  -4.840 -0.40 -0.00    +0.000 C 
DOCKED: ENDBRANCH  15  22
DOCKED: ENDBRANCH  13  18
DOCKED: ENDBRANCH   1  13
DOCKED: TORSDOF 6
DOCKED: TER
DOCKED: ENDMDL
________________________________________________________________________________


	BEGINNING GENETIC ALGORITHM DOCKING 9 of 100
Run: 9 Seed: 1173440276 63218576 [ Run 9 of 100 GA/GALS ]
Beginning LAMARCKIAN GENETIC ALGORITHM (LGA), with a maximum of 2500000 energy evaluations.

Final-Value: -13.194


	FINAL GENETIC ALGORITHM DOCKED STATE
	_______________________________________________


Detailed state:  trans 19.301 -10.114 -3.681 quatxyzw -0.076616 -0.829807 0.044019 0.551010 center -0.963 -0.416 0.212 ntor 6 -98.8822 146.1880 47.6342 -138.4057 -28.3165 126.0926
State:	 19.301 -10.114  -3.681  -0.092 -0.994  0.053 113.127    -98.88  146.19   47.63 -138.41  -28.32  126.09

DOCKED: MODEL        9
DOCKED: USER    Run = 9
DOCKED: USER    DPF = ligand_dock.biased.dpf
DOCKED: USER  
DOCKED: USER    Estimated Free Energy of Binding    =  -10.40 kcal/mol  [=(1)+(2)+(3)-(4)]
DOCKED: USER    Estimated Inhibition Constant, Ki   =   23.91 nM (nanomolar)  [Temperature = 298.15 K]
DOCKED: USER    
DOCKED: USER    (1) Final Intermolecular Energy     =  -12.19 kcal/mol
DOCKED: USER        vdW + Hbond + desolv Energy     =  -12.19 kcal/mol
DOCKED: USER        Electrostatic Energy            =   +0.00 kcal/mol
DOCKED: USER    (2) Final Total Internal Energy     =   -1.01 kcal/mol
DOCKED: USER    (3) Torsional Free Energy           =   +1.79 kcal/mol
DOCKED: USER    (4) Unbound System's Energy  [=(2)] =   -1.01 kcal/mol
DOCKED: USER    
DOCKED: USER    
DOCKED: USER    NEWDPF move ligand.pdbqt
DOCKED: USER    NEWDPF about -0.963000 -0.416000 0.212000
DOCKED: USER    NEWDPF tran0 19.300746 -10.113870 -3.681115
DOCKED: USER    NEWDPF quaternion0 -0.076616 -0.829807 0.044019 0.551010
DOCKED: USER    NEWDPF axisangle0 -0.091811 -0.994378 0.052750 113.127293
DOCKED: USER    NEWDPF quat0 -0.091811 -0.994378 0.052750 113.127293
DOCKED: USER    NEWDPF dihe0 -98.88 146.19 47.63 -138.41 -28.32 126.09 
DOCKED: USER  keepresnum = 1 
DOCKED: USER  
DOCKED: REMARK  Name = 
DOCKED: REMARK  10 active torsions:
DOCKED: REMARK  status: ('A' for Active; 'I' for Inactive)
DOCKED: REMARK    1  A    between atoms: C_1  and  N_2
DOCKED: REMARK    2  A    between atoms: N_2  and  C_3
DOCKED: REMARK    3  A    between atoms: N_2  and  C_22
DOCKED: REMARK    4  A    between atoms: C_6  and  C_9
DOCKED: REMARK    5  A    between atoms: C_9  and  C_10
DOCKED: REMARK    6  A    between atoms: C_10  and  C_11
DOCKED: REMARK    7  A    between atoms: C_10  and  C_20
DOCKED: REMARK    8  A    between atoms: C_12  and  C_13
DOCKED: REMARK    9  A    between atoms: C_12  and  C_19
DOCKED: REMARK   10  A    between atoms: C_14  and  C_15
DOCKED: REMARK                            x       y       z     vdW  Elec       q    Type
DOCKED: REMARK                         _______ _______ _______ _____ _____    ______ ____
DOCKED: USER                              x       y       z     vdW  Elec       q    Type
DOCKED: USER                           _______ _______ _______ _____ _____    ______ ____
DOCKED: ROOT
DOCKED: ATOM      1  C   UNL     1      20.604  -9.311  -4.147 -0.37 -0.00    +0.000 C 
DOCKED: ATOM      2  C   UNL     1      21.907  -8.618  -4.554 -0.20 -0.00    +0.000 C 
DOCKED: ENDROOT
DOCKED: BRANCH   1   3
DOCKED: ATOM      3  C   UNL     1      20.788 -10.028  -2.824 -0.53 -0.00    +0.000 C 
DOCKED: ATOM      4  C   UNL     1      21.069  -9.424  -1.651 -0.60 -0.00    +0.000 C 
DOCKED: ATOM      5  C   UNL     1      21.219  -7.923  -1.541 -0.42 -0.00    +0.000 C 
DOCKED: BRANCH   4   6
DOCKED: ATOM      6  C   UNL     1      21.184 -10.279  -0.441 -0.70 -0.00    +0.000 C 
DOCKED: ATOM      7  C   UNL     1      20.242 -10.326   0.513 -0.63 -0.00    +0.000 C 
DOCKED: BRANCH   7   8
DOCKED: ATOM      8  C   UNL     1      20.344 -11.175   1.718 -0.75 -0.00    +0.000 C 
DOCKED: ATOM      9  N   UNL     1      20.159 -10.657   3.041 -0.68 -0.00    +0.000 N 
DOCKED: ATOM     10  O   UNL     1      20.159 -11.494   4.104 -1.14 -0.00    +0.000 OA
DOCKED: ATOM     11  O   UNL     1      20.630 -12.393   1.570 -1.57 -0.00    +0.000 OA
DOCKED: ATOM     12  H   UNL     1      20.030  -9.689   3.176 -0.53 -0.00    +0.000 HD
DOCKED: ENDBRANCH   7   8
DOCKED: ENDBRANCH   4   6
DOCKED: ENDBRANCH   1   3
DOCKED: BRANCH   1  13
DOCKED: ATOM     13  C   UNL     1      20.178 -10.282  -5.231 -0.36 -0.00    +0.000 C 
DOCKED: ATOM     14  O   UNL     1      18.967 -10.636  -5.294 -0.33 -0.00    +0.000 OA
DOCKED: BRANCH  13  18
DOCKED: ATOM     15  C   UNL     1      23.020 -11.973  -8.015 -0.38 -0.00    +0.000 A 
DOCKED: ATOM     16  C   UNL     1      23.053 -12.302  -6.646 -0.41 -0.00    +0.000 A 
DOCKED: ATOM     17  C   UNL     1      22.132 -11.750  -5.753 -0.49 -0.00    +0.000 A 
DOCKED: ATOM     18  C   UNL     1      21.143 -10.860  -6.201 -0.36 -0.00    +0.000 A 
DOCKED: ATOM     19  C   UNL     1      21.112 -10.517  -7.564 -0.25 -0.00    +0.000 A 
DOCKED: ATOM     20  C   UNL     1      22.034 -11.067  -8.458 -0.25 -0.00    +0.000 A 
DOCKED: BRANCH  15  22
DOCKED: ATOM     21  C   UNL     1      23.590 -13.658  -9.824 -0.41 -0.00    +0.000 C 
DOCKED: ATOM     22  N   UNL     1      23.977 -12.546  -8.945 -0.41 -0.00    +0.000 N 
DOCKED: ATOM     23  C   UNL     1      25.346 -12.025  -9.022 -0.42 -0.00    +0.000 C 
DOCKED: ENDBRANCH  15  22
DOCKED: ENDBRANCH  13  18
DOCKED: ENDBRANCH   1  13
DOCKED: TORSDOF 6
DOCKED: TER
DOCKED: ENDMDL
________________________________________________________________________________


	BEGINNING GENETIC ALGORITHM DOCKING 10 of 100
Run: 10 Seed: 823478586 1350952544 [ Run 10 of 100 GA/GALS ]
Beginning LAMARCKIAN GENETIC ALGORITHM (LGA), with a maximum of 2500000 energy evaluations.

Final-Value: -13.018


	FINAL GENETIC ALGORITHM DOCKED STATE
	_______________________________________________


Detailed state:  trans 18.758 -10.931 3.176 quatxyzw 0.933899 -0.352273 -0.057218 -0.021494 center -0.963 -0.416 0.212 ntor 6 82.0670 -49.6227 -7.7506 -45.9453 -8.1193 152.6858
State:	 18.758 -10.931   3.176   0.934 -0.352 -0.057 -177.537     82.07  -49.62   -7.75  -45.95   -8.12  152.69

DOCKED: MODEL       10
DOCKED: USER    Run = 10
DOCKED: USER    DPF = ligand_dock.biased.dpf
DOCKED: USER  
DOCKED: USER    Estimated Free Energy of Binding    =  -10.49 kcal/mol  [=(1)+(2)+(3)-(4)]
DOCKED: USER    Estimated Inhibition Constant, Ki   =   20.52 nM (nanomolar)  [Temperature = 298.15 K]
DOCKED: USER    
DOCKED: USER    (1) Final Intermolecular Energy     =  -12.28 kcal/mol
DOCKED: USER        vdW + Hbond + desolv Energy     =  -12.28 kcal/mol
DOCKED: USER        Electrostatic Energy            =   +0.00 kcal/mol
DOCKED: USER    (2) Final Total Internal Energy     =   -0.74 kcal/mol
DOCKED: USER    (3) Torsional Free Energy           =   +1.79 kcal/mol
DOCKED: USER    (4) Unbound System's Energy  [=(2)] =   -0.74 kcal/mol
DOCKED: USER    
DOCKED: USER    
DOCKED: USER    NEWDPF move ligand.pdbqt
DOCKED: USER    NEWDPF about -0.963000 -0.416000 0.212000
DOCKED: USER    NEWDPF tran0 18.757612 -10.931383 3.176409
DOCKED: USER    NEWDPF quaternion0 0.933899 -0.352273 -0.057218 -0.021494
DOCKED: USER    NEWDPF axisangle0 0.934115 -0.352355 -0.057231 -177.536814
DOCKED: USER    NEWDPF quat0 0.934115 -0.352355 -0.057231 -177.536814
DOCKED: USER    NEWDPF dihe0 82.07 -49.62 -7.75 -45.95 -8.12 152.69 
DOCKED: USER  keepresnum = 1 
DOCKED: USER  
DOCKED: REMARK  Name = 
DOCKED: REMARK  10 active torsions:
DOCKED: REMARK  status: ('A' for Active; 'I' for Inactive)
DOCKED: REMARK    1  A    between atoms: C_1  and  N_2
DOCKED: REMARK    2  A    between atoms: N_2  and  C_3
DOCKED: REMARK    3  A    between atoms: N_2  and  C_22
DOCKED: REMARK    4  A    between atoms: C_6  and  C_9
DOCKED: REMARK    5  A    between atoms: C_9  and  C_10
DOCKED: REMARK    6  A    between atoms: C_10  and  C_11
DOCKED: REMARK    7  A    between atoms: C_10  and  C_20
DOCKED: REMARK    8  A    between atoms: C_12  and  C_13
DOCKED: REMARK    9  A    between atoms: C_12  and  C_19
DOCKED: REMARK   10  A    between atoms: C_14  and  C_15
DOCKED: REMARK                            x       y       z     vdW  Elec       q    Type
DOCKED: REMARK                         _______ _______ _______ _____ _____    ______ ____
DOCKED: USER                              x       y       z     vdW  Elec       q    Type
DOCKED: USER                           _______ _______ _______ _____ _____    ______ ____
DOCKED: ROOT
DOCKED: ATOM      1  C   UNL     1      17.939 -11.690   2.030 -0.36 +0.00    +0.000 C 
DOCKED: ATOM      2  C   UNL     1      17.145 -12.326   0.886 -0.51 +0.00    +0.000 C 
DOCKED: ENDROOT
DOCKED: BRANCH   1   3
DOCKED: ATOM      3  C   UNL     1      17.397 -10.307   2.333 -0.48 +0.00    +0.000 C 
DOCKED: ATOM      4  C   UNL     1      16.336 -10.050   3.127 -0.47 +0.00    +0.000 C 
DOCKED: ATOM      5  C   UNL     1      15.571 -11.156   3.820 -0.54 +0.00    +0.000 C 
DOCKED: BRANCH   4   6
DOCKED: ATOM      6  C   UNL     1      15.959  -8.629   3.342 -0.34 +0.00    +0.000 C 
DOCKED: ATOM      7  C   UNL     1      15.189  -8.224   4.363 -0.35 +0.00    +0.000 C 
DOCKED: BRANCH   7   8
DOCKED: ATOM      8  C   UNL     1      14.811  -6.813   4.589 -0.43 +0.00    +0.000 C 
DOCKED: ATOM      9  N   UNL     1      15.766  -5.812   4.956 -0.47 +0.00    +0.000 N 
DOCKED: ATOM     10  O   UNL     1      15.389  -4.516   5.049 -0.52 +0.00    +0.000 OA
DOCKED: ATOM     11  O   UNL     1      13.597  -6.493   4.476 -0.28 +0.00    +0.000 OA
DOCKED: ATOM     12  H   UNL     1      16.700  -6.067   5.140 -0.62 -0.00    +0.000 HD
DOCKED: ENDBRANCH   7   8
DOCKED: ENDBRANCH   4   6
DOCKED: ENDBRANCH   1   3
DOCKED: BRANCH   1  13
DOCKED: ATOM     13  C   UNL     1      19.408 -11.623   1.661 -0.70 -0.00    +0.000 C 
DOCKED: ATOM     14  O   UNL     1      20.268 -12.027   2.493 -1.99 -0.00    +0.000 OA
DOCKED: BRANCH  13  18
DOCKED: ATOM     15  C   UNL     1      20.802  -9.975  -2.085 -0.51 -0.00    +0.000 A 
DOCKED: ATOM     16  C   UNL     1      21.661 -10.097  -0.975 -0.49 -0.00    +0.000 A 
DOCKED: ATOM     17  C   UNL     1      21.202 -10.630   0.232 -0.59 -0.00    +0.000 A 
DOCKED: ATOM     18  C   UNL     1      19.874 -11.065   0.364 -0.56 -0.00    +0.000 A 
DOCKED: ATOM     19  C   UNL     1      19.008 -10.934  -0.735 -0.42 -0.00    +0.000 A 
DOCKED: ATOM     20  C   UNL     1      19.466 -10.401  -1.942 -0.38 -0.00    +0.000 A 
DOCKED: BRANCH  15  22
DOCKED: ATOM     21  C   UNL     1      21.451  -7.972  -3.501 -0.37 -0.00    +0.000 C 
DOCKED: ATOM     22  N   UNL     1      21.279  -9.422  -3.341 -0.44 -0.00    +0.000 N 
DOCKED: ATOM     23  C   UNL     1      21.597 -10.303  -4.471 -0.46 -0.00    +0.000 C 
DOCKED: ENDBRANCH  15  22
DOCKED: ENDBRANCH  13  18
DOCKED: ENDBRANCH   1  13
DOCKED: TORSDOF 6
DOCKED: TER
DOCKED: ENDMDL
________________________________________________________________________________


	BEGINNING GENETIC ALGORITHM DOCKING 11 of 100
Run: 11 Seed: 1884044405 534233678 [ Run 11 of 100 GA/GALS ]
Beginning LAMARCKIAN GENETIC ALGORITHM (LGA), with a maximum of 2500000 energy evaluations.

Final-Value: -12.759


	FINAL GENETIC ALGORITHM DOCKED STATE
	_______________________________________________


Detailed state:  trans 21.828 -8.983 -2.860 quatxyzw -0.752211 -0.434320 0.494140 -0.037027 center -0.963 -0.416 0.212 ntor 6 -71.9053 -125.6051 179.9169 -86.2712 -154.6392 -68.3346
State:	 21.828  -8.983  -2.860  -0.753 -0.435  0.494 -175.756    -71.91 -125.61  179.92  -86.27 -154.64  -68.33

DOCKED: MODEL       11
DOCKED: USER    Run = 11
DOCKED: USER    DPF = ligand_dock.biased.dpf
DOCKED: USER  
DOCKED: USER    Estimated Free Energy of Binding    =   -9.81 kcal/mol  [=(1)+(2)+(3)-(4)]
DOCKED: USER    Estimated Inhibition Constant, Ki   =   64.54 nM (nanomolar)  [Temperature = 298.15 K]
DOCKED: USER    
DOCKED: USER    (1) Final Intermolecular Energy     =  -11.60 kcal/mol
DOCKED: USER        vdW + Hbond + desolv Energy     =  -11.60 kcal/mol
DOCKED: USER        Electrostatic Energy            =   +0.00 kcal/mol
DOCKED: USER    (2) Final Total Internal Energy     =   -1.16 kcal/mol
DOCKED: USER    (3) Torsional Free Energy           =   +1.79 kcal/mol
DOCKED: USER    (4) Unbound System's Energy  [=(2)] =   -1.16 kcal/mol
DOCKED: USER    
DOCKED: USER    
DOCKED: USER    NEWDPF move ligand.pdbqt
DOCKED: USER    NEWDPF about -0.963000 -0.416000 0.212000
DOCKED: USER    NEWDPF tran0 21.827719 -8.982741 -2.859986
DOCKED: USER    NEWDPF quaternion0 -0.752211 -0.434320 0.494140 -0.037027
DOCKED: USER    NEWDPF axisangle0 -0.752727 -0.434618 0.494479 -175.756054
DOCKED: USER    NEWDPF quat0 -0.752727 -0.434618 0.494479 -175.756054
DOCKED: USER    NEWDPF dihe0 -71.91 -125.61 179.92 -86.27 -154.64 -68.33 
DOCKED: USER  keepresnum = 1 
DOCKED: USER  
DOCKED: REMARK  Name = 
DOCKED: REMARK  10 active torsions:
DOCKED: REMARK  status: ('A' for Active; 'I' for Inactive)
DOCKED: REMARK    1  A    between atoms: C_1  and  N_2
DOCKED: REMARK    2  A    between atoms: N_2  and  C_3
DOCKED: REMARK    3  A    between atoms: N_2  and  C_22
DOCKED: REMARK    4  A    between atoms: C_6  and  C_9
DOCKED: REMARK    5  A    between atoms: C_9  and  C_10
DOCKED: REMARK    6  A    between atoms: C_10  and  C_11
DOCKED: REMARK    7  A    between atoms: C_10  and  C_20
DOCKED: REMARK    8  A    between atoms: C_12  and  C_13
DOCKED: REMARK    9  A    between atoms: C_12  and  C_19
DOCKED: REMARK   10  A    between atoms: C_14  and  C_15
DOCKED: REMARK                            x       y       z     vdW  Elec       q    Type
DOCKED: REMARK                         _______ _______ _______ _____ _____    ______ ____
DOCKED: USER                              x       y       z     vdW  Elec       q    Type
DOCKED: USER                           _______ _______ _______ _____ _____    ______ ____
DOCKED: ROOT
DOCKED: ATOM      1  C   UNL     1      21.492 -10.077  -3.979 -0.47 -0.00    +0.000 C 
DOCKED: ATOM      2  C   UNL     1      21.087 -11.145  -4.998 -0.53 -0.00    +0.000 C 
DOCKED: ENDROOT
DOCKED: BRANCH   1   3
DOCKED: ATOM      3  C   UNL     1      21.088 -10.508  -2.583 -0.56 -0.00    +0.000 C 
DOCKED: ATOM      4  C   UNL     1      19.817 -10.712  -2.176 -0.46 -0.00    +0.000 C 
DOCKED: ATOM      5  C   UNL     1      18.641 -10.535  -3.110 -0.35 -0.00    +0.000 C 
DOCKED: BRANCH   4   6
DOCKED: ATOM      6  C   UNL     1      19.601 -11.166  -0.778 -0.47 -0.00    +0.000 C 
DOCKED: ATOM      7  C   UNL     1      20.461 -10.903   0.218 -0.67 -0.00    +0.000 C 
DOCKED: BRANCH   7   8
DOCKED: ATOM      8  C   UNL     1      20.256 -11.346   1.612 -0.76 -0.00    +0.000 C 
DOCKED: ATOM      9  N   UNL     1      20.628 -10.542   2.736 -0.62 -0.00    +0.000 N 
DOCKED: ATOM     10  O   UNL     1      20.323 -10.947   3.991 -1.14 -0.00    +0.000 OA
DOCKED: ATOM     11  O   UNL     1      19.756 -12.486   1.810 -1.70 -0.00    +0.000 OA
DOCKED: ATOM     12  H   UNL     1      21.106  -9.691   2.596 -0.58 -0.00    +0.000 HD
DOCKED: ENDBRANCH   7   8
DOCKED: ENDBRANCH   4   6
DOCKED: ENDBRANCH   1   3
DOCKED: BRANCH   1  13
DOCKED: ATOM     13  C   UNL     1      20.850  -8.752  -4.339 -0.34 -0.00    +0.000 C 
DOCKED: ATOM     14  O   UNL     1      20.004  -8.716  -5.277 -0.19 -0.00    +0.000 OA
DOCKED: BRANCH  13  18
DOCKED: ATOM     15  C   UNL     1      21.920  -5.054  -2.371 -0.34 -0.00    +0.000 A 
DOCKED: ATOM     16  C   UNL     1      22.095  -5.221  -3.758 -0.21 -0.00    +0.000 A 
DOCKED: ATOM     17  C   UNL     1      21.747  -6.419  -4.386 -0.22 -0.00    +0.000 A 
DOCKED: ATOM     18  C   UNL     1      21.206  -7.485  -3.649 -0.32 -0.00    +0.000 A 
DOCKED: ATOM     19  C   UNL     1      21.041  -7.330  -2.262 -0.40 -0.00    +0.000 A 
DOCKED: ATOM     20  C   UNL     1      21.390  -6.132  -1.633 -0.31 +0.00    +0.000 A 
DOCKED: BRANCH  15  22
DOCKED: ATOM     21  C   UNL     1      21.323  -3.119  -0.843 -0.38 +0.00    +0.000 C 
DOCKED: ATOM     22  N   UNL     1      22.281  -3.809  -1.717 -0.31 +0.00    +0.000 N 
DOCKED: ATOM     23  C   UNL     1      23.609  -3.218  -1.919 -0.29 -0.00    +0.000 C 
DOCKED: ENDBRANCH  15  22
DOCKED: ENDBRANCH  13  18
DOCKED: ENDBRANCH   1  13
DOCKED: TORSDOF 6
DOCKED: TER
DOCKED: ENDMDL
________________________________________________________________________________


	BEGINNING GENETIC ALGORITHM DOCKING 12 of 100
Run: 12 Seed: 2138267372 1787831089 [ Run 12 of 100 GA/GALS ]
Beginning LAMARCKIAN GENETIC ALGORITHM (LGA), with a maximum of 2500000 energy evaluations.

Final-Value: -12.274


	FINAL GENETIC ALGORITHM DOCKED STATE
	_______________________________________________


Detailed state:  trans 14.498 -6.758 3.712 quatxyzw -0.158700 0.143299 -0.850115 0.481233 center -0.963 -0.416 0.212 ntor 6 -159.3398 -151.6053 -179.3002 -178.8557 22.8811 -81.6280
State:	 14.498  -6.758   3.712  -0.181  0.163 -0.970 122.468   -159.34 -151.61 -179.30 -178.86   22.88  -81.63

DOCKED: MODEL       12
DOCKED: USER    Run = 12
DOCKED: USER    DPF = ligand_dock.biased.dpf
DOCKED: USER  
DOCKED: USER    Estimated Free Energy of Binding    =   -9.18 kcal/mol  [=(1)+(2)+(3)-(4)]
DOCKED: USER    Estimated Inhibition Constant, Ki   =  186.94 nM (nanomolar)  [Temperature = 298.15 K]
DOCKED: USER    
DOCKED: USER    (1) Final Intermolecular Energy     =  -10.97 kcal/mol
DOCKED: USER        vdW + Hbond + desolv Energy     =  -10.97 kcal/mol
DOCKED: USER        Electrostatic Energy            =   +0.00 kcal/mol
DOCKED: USER    (2) Final Total Internal Energy     =   -1.31 kcal/mol
DOCKED: USER    (3) Torsional Free Energy           =   +1.79 kcal/mol
DOCKED: USER    (4) Unbound System's Energy  [=(2)] =   -1.31 kcal/mol
DOCKED: USER    
DOCKED: USER    
DOCKED: USER    NEWDPF move ligand.pdbqt
DOCKED: USER    NEWDPF about -0.963000 -0.416000 0.212000
DOCKED: USER    NEWDPF tran0 14.498105 -6.757894 3.711966
DOCKED: USER    NEWDPF quaternion0 -0.158700 0.143299 -0.850115 0.481233
DOCKED: USER    NEWDPF axisangle0 -0.181041 0.163473 -0.969794 122.468129
DOCKED: USER    NEWDPF quat0 -0.181041 0.163473 -0.969794 122.468129
DOCKED: USER    NEWDPF dihe0 -159.34 -151.61 -179.30 -178.86 22.88 -81.63 
DOCKED: USER  keepresnum = 1 
DOCKED: USER  
DOCKED: REMARK  Name = 
DOCKED: REMARK  10 active torsions:
DOCKED: REMARK  status: ('A' for Active; 'I' for Inactive)
DOCKED: REMARK    1  A    between atoms: C_1  and  N_2
DOCKED: REMARK    2  A    between atoms: N_2  and  C_3
DOCKED: REMARK    3  A    between atoms: N_2  and  C_22
DOCKED: REMARK    4  A    between atoms: C_6  and  C_9
DOCKED: REMARK    5  A    between atoms: C_9  and  C_10
DOCKED: REMARK    6  A    between atoms: C_10  and  C_11
DOCKED: REMARK    7  A    between atoms: C_10  and  C_20
DOCKED: REMARK    8  A    between atoms: C_12  and  C_13
DOCKED: REMARK    9  A    between atoms: C_12  and  C_19
DOCKED: REMARK   10  A    between atoms: C_14  and  C_15
DOCKED: REMARK                            x       y       z     vdW  Elec       q    Type
DOCKED: REMARK                         _______ _______ _______ _____ _____    ______ ____
DOCKED: USER                              x       y       z     vdW  Elec       q    Type
DOCKED: USER                           _______ _______ _______ _____ _____    ______ ____
DOCKED: ROOT
DOCKED: ATOM      1  C   UNL     1      13.788  -7.754   4.743 -0.36 +0.00    +0.000 C 
DOCKED: ATOM      2  C   UNL     1      13.200  -8.744   5.753 -0.48 +0.00    +0.000 C 
DOCKED: ENDROOT
DOCKED: BRANCH   1   3
DOCKED: ATOM      3  C   UNL     1      14.980  -8.374   4.041 -0.39 +0.00    +0.000 C 
DOCKED: ATOM      4  C   UNL     1      15.034  -8.669   2.725 -0.34 +0.00    +0.000 C 
DOCKED: ATOM      5  C   UNL     1      13.874  -8.388   1.796 -0.23 +0.00    +0.000 C 
DOCKED: BRANCH   4   6
DOCKED: ATOM      6  C   UNL     1      16.297  -9.245   2.195 -0.29 +0.00    +0.000 C 
DOCKED: ATOM      7  C   UNL     1      17.147  -9.959   2.947 -0.45 +0.00    +0.000 C 
DOCKED: BRANCH   7   8
DOCKED: ATOM      8  C   UNL     1      18.404 -10.539   2.429 -0.57 -0.00    +0.000 C 
DOCKED: ATOM      9  N   UNL     1      19.181 -11.480   3.178 -0.60 -0.00    +0.000 N 
DOCKED: ATOM     10  O   UNL     1      20.268 -12.060   2.619 -1.93 -0.00    +0.000 OA
DOCKED: ATOM     11  O   UNL     1      18.812 -10.168   1.296 -0.52 -0.00    +0.000 OA
DOCKED: ATOM     12  H   UNL     1      18.924 -11.705   4.102 -0.04 -0.00    +0.000 HD
DOCKED: ENDBRANCH   7   8
DOCKED: ENDBRANCH   4   6
DOCKED: ENDBRANCH   1   3
DOCKED: BRANCH   1  13
DOCKED: ATOM     13  C   UNL     1      14.186  -6.474   5.450 -0.46 +0.00    +0.000 C 
DOCKED: ATOM     14  O   UNL     1      13.896  -6.332   6.671 -1.00 +0.00    +0.000 OA
DOCKED: BRANCH  13  18
DOCKED: ATOM     15  C   UNL     1      16.192  -3.266   3.357 -0.39 -0.00    +0.000 A 
DOCKED: ATOM     16  C   UNL     1      15.339  -4.160   2.680 -0.17 -0.00    +0.000 A 
DOCKED: ATOM     17  C   UNL     1      14.695  -5.194   3.364 -0.26 +0.00    +0.000 A 
DOCKED: ATOM     18  C   UNL     1      14.877  -5.362   4.746 -0.38 +0.00    +0.000 A 
DOCKED: ATOM     19  C   UNL     1      15.737  -4.482   5.425 -0.46 +0.00    +0.000 A 
DOCKED: ATOM     20  C   UNL     1      16.382  -3.448   4.742 -0.47 -0.00    +0.000 A 
DOCKED: BRANCH  15  22
DOCKED: ATOM     21  C   UNL     1      16.149  -1.415   1.623 -0.28 -0.00    +0.000 C 
DOCKED: ATOM     22  N   UNL     1      16.861  -2.191   2.647 -0.39 -0.00    +0.000 N 
DOCKED: ATOM     23  C   UNL     1      18.260  -1.859   2.942 -0.50 -0.00    +0.000 C 
DOCKED: ENDBRANCH  15  22
DOCKED: ENDBRANCH  13  18
DOCKED: ENDBRANCH   1  13
DOCKED: TORSDOF 6
DOCKED: TER
DOCKED: ENDMDL
________________________________________________________________________________


	BEGINNING GENETIC ALGORITHM DOCKING 13 of 100
Run: 13 Seed: 1300215987 575558411 [ Run 13 of 100 GA/GALS ]
Beginning LAMARCKIAN GENETIC ALGORITHM (LGA), with a maximum of 2500000 energy evaluations.

Final-Value: -12.281


	FINAL GENETIC ALGORITHM DOCKED STATE
	_______________________________________________


Detailed state:  trans 18.608 -9.944 -4.434 quatxyzw 0.005887 -0.684201 0.144037 0.714903 center -0.963 -0.416 0.212 ntor 6 73.2031 157.4358 -22.5637 -110.0823 -143.2911 95.9125
State:	 18.608  -9.944  -4.434   0.008 -0.979  0.206 88.729     73.20  157.44  -22.56 -110.08 -143.29   95.91

DOCKED: MODEL       13
DOCKED: USER    Run = 13
DOCKED: USER    DPF = ligand_dock.biased.dpf
DOCKED: USER  
DOCKED: USER    Estimated Free Energy of Binding    =   -9.48 kcal/mol  [=(1)+(2)+(3)-(4)]
DOCKED: USER    Estimated Inhibition Constant, Ki   =  113.19 nM (nanomolar)  [Temperature = 298.15 K]
DOCKED: USER    
DOCKED: USER    (1) Final Intermolecular Energy     =  -11.27 kcal/mol
DOCKED: USER        vdW + Hbond + desolv Energy     =  -11.27 kcal/mol
DOCKED: USER        Electrostatic Energy            =   +0.00 kcal/mol
DOCKED: USER    (2) Final Total Internal Energy     =   -1.01 kcal/mol
DOCKED: USER    (3) Torsional Free Energy           =   +1.79 kcal/mol
DOCKED: USER    (4) Unbound System's Energy  [=(2)] =   -1.01 kcal/mol
DOCKED: USER    
DOCKED: USER    
DOCKED: USER    NEWDPF move ligand.pdbqt
DOCKED: USER    NEWDPF about -0.963000 -0.416000 0.212000
DOCKED: USER    NEWDPF tran0 18.608318 -9.943884 -4.433781
DOCKED: USER    NEWDPF quaternion0 0.005887 -0.684201 0.144037 0.714903
DOCKED: USER    NEWDPF axisangle0 0.008419 -0.978517 0.205996 88.729421
DOCKED: USER    NEWDPF quat0 0.008419 -0.978517 0.205996 88.729421
DOCKED: USER    NEWDPF dihe0 73.20 157.44 -22.56 -110.08 -143.29 95.91 
DOCKED: USER  keepresnum = 1 
DOCKED: USER  
DOCKED: REMARK  Name = 
DOCKED: REMARK  10 active torsions:
DOCKED: REMARK  status: ('A' for Active; 'I' for Inactive)
DOCKED: REMARK    1  A    between atoms: C_1  and  N_2
DOCKED: REMARK    2  A    between atoms: N_2  and  C_3
DOCKED: REMARK    3  A    between atoms: N_2  and  C_22
DOCKED: REMARK    4  A    between atoms: C_6  and  C_9
DOCKED: REMARK    5  A    between atoms: C_9  and  C_10
DOCKED: REMARK    6  A    between atoms: C_10  and  C_11
DOCKED: REMARK    7  A    between atoms: C_10  and  C_20
DOCKED: REMARK    8  A    between atoms: C_12  and  C_13
DOCKED: REMARK    9  A    between atoms: C_12  and  C_19
DOCKED: REMARK   10  A    between atoms: C_14  and  C_15
DOCKED: REMARK                            x       y       z     vdW  Elec       q    Type
DOCKED: REMARK                         _______ _______ _______ _____ _____    ______ ____
DOCKED: USER                              x       y       z     vdW  Elec       q    Type
DOCKED: USER                           _______ _______ _______ _____ _____    ______ ____
DOCKED: ROOT
DOCKED: ATOM      1  C   UNL     1      20.022  -9.205  -4.559 -0.29 -0.00    +0.000 C 
DOCKED: ATOM      2  C   UNL     1      21.407  -8.555  -4.602 -0.32 -0.00    +0.000 C 
DOCKED: ENDROOT
DOCKED: BRANCH   1   3
DOCKED: ATOM      3  C   UNL     1      19.631  -9.504  -3.125 -0.33 -0.00    +0.000 C 
DOCKED: ATOM      4  C   UNL     1      20.396 -10.179  -2.242 -0.53 -0.00    +0.000 C 
DOCKED: ATOM      5  C   UNL     1      21.766 -10.705  -2.609 -0.31 -0.00    +0.000 C 
DOCKED: BRANCH   4   6
DOCKED: ATOM      6  C   UNL     1      19.871 -10.356  -0.863 -0.52 -0.00    +0.000 C 
DOCKED: ATOM      7  C   UNL     1      20.575 -10.939   0.119 -0.66 -0.00    +0.000 C 
DOCKED: BRANCH   7   8
DOCKED: ATOM      8  C   UNL     1      20.064 -11.117   1.494 -0.72 -0.00    +0.000 C 
DOCKED: ATOM      9  N   UNL     1      20.294 -12.311   2.250 -0.70 -0.00    +0.000 N 
DOCKED: ATOM     10  O   UNL     1      19.895 -12.384   3.541 -1.36 -0.00    +0.000 OA
DOCKED: ATOM     11  O   UNL     1      19.380 -10.189   2.003 -0.68 -0.00    +0.000 OA
DOCKED: ATOM     12  H   UNL     1      20.744 -13.080   1.830 -0.62 -0.00    +0.000 HD
DOCKED: ENDBRANCH   7   8
DOCKED: ENDBRANCH   4   6
DOCKED: ENDBRANCH   1   3
DOCKED: BRANCH   1  13
DOCKED: ATOM     13  C   UNL     1      20.023 -10.472  -5.392 -0.37 -0.00    +0.000 C 
DOCKED: ATOM     14  O   UNL     1      19.017 -11.235  -5.348 -0.44 -0.00    +0.000 OA
DOCKED: BRANCH  13  18
DOCKED: ATOM     15  C   UNL     1      23.423 -11.630  -7.798 -0.42 -0.00    +0.000 A 
DOCKED: ATOM     16  C   UNL     1      23.239 -12.142  -6.498 -0.42 -0.00    +0.000 A 
DOCKED: ATOM     17  C   UNL     1      22.138 -11.761  -5.727 -0.49 -0.00    +0.000 A 
DOCKED: ATOM     18  C   UNL     1      21.183 -10.866  -6.234 -0.36 -0.00    +0.000 A 
DOCKED: ATOM     19  C   UNL     1      21.367 -10.342  -7.525 -0.25 -0.00    +0.000 A 
DOCKED: ATOM     20  C   UNL     1      22.469 -10.721  -8.296 -0.26 -0.00    +0.000 A 
DOCKED: BRANCH  15  22
DOCKED: ATOM     21  C   UNL     1      25.847 -11.315  -8.478 -0.41 -0.00    +0.000 C 
DOCKED: ATOM     22  N   UNL     1      24.567 -12.025  -8.600 -0.43 -0.00    +0.000 N 
DOCKED: ATOM     23  C   UNL     1      24.464 -13.142  -9.547 -0.39 -0.00    +0.000 C 
DOCKED: ENDBRANCH  15  22
DOCKED: ENDBRANCH  13  18
DOCKED: ENDBRANCH   1  13
DOCKED: TORSDOF 6
DOCKED: TER
DOCKED: ENDMDL
________________________________________________________________________________


	BEGINNING GENETIC ALGORITHM DOCKING 14 of 100
Run: 14 Seed: 1727026980 869700901 [ Run 14 of 100 GA/GALS ]
Beginning LAMARCKIAN GENETIC ALGORITHM (LGA), with a maximum of 2500000 energy evaluations.

Final-Value: -12.606


	FINAL GENETIC ALGORITHM DOCKED STATE
	_______________________________________________


Detailed state:  trans 21.251 -8.889 -3.577 quatxyzw -0.632895 -0.524820 0.534995 0.194391 center -0.963 -0.416 0.212 ntor 6 -33.1107 -7.6812 156.3874 51.0277 83.4386 -180.0000
State:	 21.251  -8.889  -3.577  -0.645 -0.535  0.545 157.582    -33.11   -7.68  156.39   51.03   83.44 -180.00

DOCKED: MODEL       14
DOCKED: USER    Run = 14
DOCKED: USER    DPF = ligand_dock.biased.dpf
DOCKED: USER  
DOCKED: USER    Estimated Free Energy of Binding    =   -9.44 kcal/mol  [=(1)+(2)+(3)-(4)]
DOCKED: USER    Estimated Inhibition Constant, Ki   =  120.95 nM (nanomolar)  [Temperature = 298.15 K]
DOCKED: USER    
DOCKED: USER    (1) Final Intermolecular Energy     =  -11.23 kcal/mol
DOCKED: USER        vdW + Hbond + desolv Energy     =  -11.23 kcal/mol
DOCKED: USER        Electrostatic Energy            =   +0.00 kcal/mol
DOCKED: USER    (2) Final Total Internal Energy     =   -1.38 kcal/mol
DOCKED: USER    (3) Torsional Free Energy           =   +1.79 kcal/mol
DOCKED: USER    (4) Unbound System's Energy  [=(2)] =   -1.38 kcal/mol
DOCKED: USER    
DOCKED: USER    
DOCKED: USER    NEWDPF move ligand.pdbqt
DOCKED: USER    NEWDPF about -0.963000 -0.416000 0.212000
DOCKED: USER    NEWDPF tran0 21.250757 -8.888979 -3.576735
DOCKED: USER    NEWDPF quaternion0 -0.632895 -0.524820 0.534995 0.194391
DOCKED: USER    NEWDPF axisangle0 -0.645203 -0.535026 0.545399 157.581739
DOCKED: USER    NEWDPF quat0 -0.645203 -0.535026 0.545399 157.581739
DOCKED: USER    NEWDPF dihe0 -33.11 -7.68 156.39 51.03 83.44 -180.00 
DOCKED: USER  keepresnum = 1 
DOCKED: USER  
DOCKED: REMARK  Name = 
DOCKED: REMARK  10 active torsions:
DOCKED: REMARK  status: ('A' for Active; 'I' for Inactive)
DOCKED: REMARK    1  A    between atoms: C_1  and  N_2
DOCKED: REMARK    2  A    between atoms: N_2  and  C_3
DOCKED: REMARK    3  A    between atoms: N_2  and  C_22
DOCKED: REMARK    4  A    between atoms: C_6  and  C_9
DOCKED: REMARK    5  A    between atoms: C_9  and  C_10
DOCKED: REMARK    6  A    between atoms: C_10  and  C_11
DOCKED: REMARK    7  A    between atoms: C_10  and  C_20
DOCKED: REMARK    8  A    between atoms: C_12  and  C_13
DOCKED: REMARK    9  A    between atoms: C_12  and  C_19
DOCKED: REMARK   10  A    between atoms: C_14  and  C_15
DOCKED: REMARK                            x       y       z     vdW  Elec       q    Type
DOCKED: REMARK                         _______ _______ _______ _____ _____    ______ ____
DOCKED: USER                              x       y       z     vdW  Elec       q    Type
DOCKED: USER                           _______ _______ _______ _____ _____    ______ ____
DOCKED: ROOT
DOCKED: ATOM      1  C   UNL     1      21.550 -10.269  -4.329 -0.47 -0.00    +0.000 C 
DOCKED: ATOM      2  C   UNL     1      21.766 -11.633  -4.989 -0.53 -0.00    +0.000 C 
DOCKED: ENDROOT
DOCKED: BRANCH   1   3
DOCKED: ATOM      3  C   UNL     1      21.252 -10.447  -2.853 -0.55 -0.00    +0.000 C 
DOCKED: ATOM      4  C   UNL     1      21.106  -9.439  -1.968 -0.57 -0.00    +0.000 C 
DOCKED: ATOM      5  C   UNL     1      21.216  -7.989  -2.384 -0.47 -0.00    +0.000 C 
DOCKED: BRANCH   4   6
DOCKED: ATOM      6  C   UNL     1      20.783  -9.793  -0.561 -0.65 -0.00    +0.000 C 
DOCKED: ATOM      7  C   UNL     1      20.689 -11.059  -0.129 -0.55 -0.00    +0.000 C 
DOCKED: BRANCH   7   8
DOCKED: ATOM      8  C   UNL     1      20.372 -11.422   1.268 -0.74 -0.00    +0.000 C 
DOCKED: ATOM      9  N   UNL     1      20.647 -10.549   2.370 -0.60 -0.00    +0.000 N 
DOCKED: ATOM     10  O   UNL     1      20.243 -10.883   3.617 -1.22 -0.00    +0.000 OA
DOCKED: ATOM     11  O   UNL     1      19.864 -12.553   1.492 -1.61 -0.00    +0.000 OA
DOCKED: ATOM     12  H   UNL     1      21.130  -9.704   2.219 -0.57 -0.00    +0.000 HD
DOCKED: ENDBRANCH   7   8
DOCKED: ENDBRANCH   4   6
DOCKED: ENDBRANCH   1   3
DOCKED: BRANCH   1  13
DOCKED: ATOM     13  C   UNL     1      20.418  -9.536  -5.021 -0.30 -0.00    +0.000 C 
DOCKED: ATOM     14  O   UNL     1      20.693  -8.587  -5.808 -0.18 -0.00    +0.000 OA
DOCKED: BRANCH  13  18
DOCKED: ATOM     15  C   UNL     1      16.260 -10.523  -4.368 -0.19 -0.00    +0.000 A 
DOCKED: ATOM     16  C   UNL     1      16.936 -10.939  -5.532 -0.24 -0.00    +0.000 A 
DOCKED: ATOM     17  C   UNL     1      18.279 -10.615  -5.735 -0.29 -0.00    +0.000 A 
DOCKED: ATOM     18  C   UNL     1      18.991  -9.873  -4.779 -0.25 -0.00    +0.000 A 
DOCKED: ATOM     19  C   UNL     1      18.319  -9.443  -3.622 -0.18 -0.00    +0.000 A 
DOCKED: ATOM     20  C   UNL     1      16.975  -9.766  -3.418 -0.21 -0.00    +0.000 A 
DOCKED: BRANCH  15  22
DOCKED: ATOM     21  C   UNL     1      14.240 -10.667  -2.839 -0.30 -0.00    +0.000 C 
DOCKED: ATOM     22  N   UNL     1      14.863 -10.859  -4.156 -0.26 -0.00    +0.000 N 
DOCKED: ATOM     23  C   UNL     1      14.050 -11.397  -5.253 -0.28 -0.00    +0.000 C 
DOCKED: ENDBRANCH  15  22
DOCKED: ENDBRANCH  13  18
DOCKED: ENDBRANCH   1  13
DOCKED: TORSDOF 6
DOCKED: TER
DOCKED: ENDMDL
________________________________________________________________________________


	BEGINNING GENETIC ALGORITHM DOCKING 15 of 100
Run: 15 Seed: 1360057170 1599009950 [ Run 15 of 100 GA/GALS ]
Beginning LAMARCKIAN GENETIC ALGORITHM (LGA), with a maximum of 2500000 energy evaluations.

Final-Value: -12.603


	FINAL GENETIC ALGORITHM DOCKED STATE
	_______________________________________________


Detailed state:  trans 14.856 -6.631 3.790 quatxyzw -0.105638 0.130448 -0.878850 0.446595 center -0.963 -0.416 0.212 ntor 6 -158.7688 -88.3534 -119.1285 18.0669 -0.2343 -85.5781
State:	 14.856  -6.631   3.790  -0.118  0.146 -0.982 126.949   -158.77  -88.35 -119.13   18.07   -0.23  -85.58

DOCKED: MODEL       15
DOCKED: USER    Run = 15
DOCKED: USER    DPF = ligand_dock.biased.dpf
DOCKED: USER  
DOCKED: USER    Estimated Free Energy of Binding    =   -9.62 kcal/mol  [=(1)+(2)+(3)-(4)]
DOCKED: USER    Estimated Inhibition Constant, Ki   =   88.85 nM (nanomolar)  [Temperature = 298.15 K]
DOCKED: USER    
DOCKED: USER    (1) Final Intermolecular Energy     =  -11.41 kcal/mol
DOCKED: USER        vdW + Hbond + desolv Energy     =  -11.41 kcal/mol
DOCKED: USER        Electrostatic Energy            =   +0.00 kcal/mol
DOCKED: USER    (2) Final Total Internal Energy     =   -1.19 kcal/mol
DOCKED: USER    (3) Torsional Free Energy           =   +1.79 kcal/mol
DOCKED: USER    (4) Unbound System's Energy  [=(2)] =   -1.19 kcal/mol
DOCKED: USER    
DOCKED: USER    
DOCKED: USER    NEWDPF move ligand.pdbqt
DOCKED: USER    NEWDPF about -0.963000 -0.416000 0.212000
DOCKED: USER    NEWDPF tran0 14.855620 -6.631346 3.790407
DOCKED: USER    NEWDPF quaternion0 -0.105638 0.130448 -0.878850 0.446595
DOCKED: USER    NEWDPF axisangle0 -0.118066 0.145795 -0.982245 126.949113
DOCKED: USER    NEWDPF quat0 -0.118066 0.145795 -0.982245 126.949113
DOCKED: USER    NEWDPF dihe0 -158.77 -88.35 -119.13 18.07 -0.23 -85.58 
DOCKED: USER  keepresnum = 1 
DOCKED: USER  
DOCKED: REMARK  Name = 
DOCKED: REMARK  10 active torsions:
DOCKED: REMARK  status: ('A' for Active; 'I' for Inactive)
DOCKED: REMARK    1  A    between atoms: C_1  and  N_2
DOCKED: REMARK    2  A    between atoms: N_2  and  C_3
DOCKED: REMARK    3  A    between atoms: N_2  and  C_22
DOCKED: REMARK    4  A    between atoms: C_6  and  C_9
DOCKED: REMARK    5  A    between atoms: C_9  and  C_10
DOCKED: REMARK    6  A    between atoms: C_10  and  C_11
DOCKED: REMARK    7  A    between atoms: C_10  and  C_20
DOCKED: REMARK    8  A    between atoms: C_12  and  C_13
DOCKED: REMARK    9  A    between atoms: C_12  and  C_19
DOCKED: REMARK   10  A    between atoms: C_14  and  C_15
DOCKED: REMARK                            x       y       z     vdW  Elec       q    Type
DOCKED: REMARK                         _______ _______ _______ _____ _____    ______ ____
DOCKED: USER                              x       y       z     vdW  Elec       q    Type
DOCKED: USER                           _______ _______ _______ _____ _____    ______ ____
DOCKED: ROOT
DOCKED: ATOM      1  C   UNL     1      14.120  -7.610   4.821 -0.40 +0.00    +0.000 C 
DOCKED: ATOM      2  C   UNL     1      13.507  -8.573   5.841 -0.51 +0.00    +0.000 C 
DOCKED: ENDROOT
DOCKED: BRANCH   1   3
DOCKED: ATOM      3  C   UNL     1      15.417  -8.179   4.281 -0.31 +0.00    +0.000 C 
DOCKED: ATOM      4  C   UNL     1      15.523  -8.950   3.179 -0.39 +0.00    +0.000 C 
DOCKED: ATOM      5  C   UNL     1      14.317  -9.320   2.344 -0.28 +0.00    +0.000 C 
DOCKED: BRANCH   4   6
DOCKED: ATOM      6  C   UNL     1      16.881  -9.397   2.773 -0.40 +0.00    +0.000 C 
DOCKED: ATOM      7  C   UNL     1      17.456 -10.513   3.246 -0.43 +0.00    +0.000 C 
DOCKED: BRANCH   7   8
DOCKED: ATOM      8  C   UNL     1      18.803 -10.968   2.847 -0.62 -0.00    +0.000 C 
DOCKED: ATOM      9  N   UNL     1      19.009 -12.078   1.965 -0.57 -0.00    +0.000 N 
DOCKED: ATOM     10  O   UNL     1      20.258 -12.390   1.547 -1.71 -0.00    +0.000 OA
DOCKED: ATOM     11  O   UNL     1      19.803 -10.368   3.323 -0.80 -0.00    +0.000 OA
DOCKED: ATOM     12  H   UNL     1      18.241 -12.615   1.662 -0.05 +0.00    +0.000 HD
DOCKED: ENDBRANCH   7   8
DOCKED: ENDBRANCH   4   6
DOCKED: ENDBRANCH   1   3
DOCKED: BRANCH   1  13
DOCKED: ATOM     13  C   UNL     1      14.353  -6.258   5.465 -0.46 +0.00    +0.000 C 
DOCKED: ATOM     14  O   UNL     1      13.868  -6.033   6.610 -1.11 +0.00    +0.000 OA
DOCKED: BRANCH  13  18
DOCKED: ATOM     15  C   UNL     1      16.547  -3.080   3.522 -0.42 -0.00    +0.000 A 
DOCKED: ATOM     16  C   UNL     1      16.767  -3.398   4.876 -0.40 -0.00    +0.000 A 
DOCKED: ATOM     17  C   UNL     1      16.053  -4.426   5.497 -0.36 -0.00    +0.000 A 
DOCKED: ATOM     18  C   UNL     1      15.104  -5.173   4.782 -0.40 +0.00    +0.000 A 
DOCKED: ATOM     19  C   UNL     1      14.870  -4.853   3.433 -0.28 -0.00    +0.000 A 
DOCKED: ATOM     20  C   UNL     1      15.583  -3.824   2.812 -0.23 -0.00    +0.000 A 
DOCKED: BRANCH  15  22
DOCKED: ATOM     21  C   UNL     1      18.728  -1.847   3.123 -0.53 -0.00    +0.000 C 
DOCKED: ATOM     22  N   UNL     1      17.289  -2.012   2.876 -0.43 -0.00    +0.000 N 
DOCKED: ATOM     23  C   UNL     1      16.614  -1.080   1.965 -0.31 -0.00    +0.000 C 
DOCKED: ENDBRANCH  15  22
DOCKED: ENDBRANCH  13  18
DOCKED: ENDBRANCH   1  13
DOCKED: TORSDOF 6
DOCKED: TER
DOCKED: ENDMDL
________________________________________________________________________________


	BEGINNING GENETIC ALGORITHM DOCKING 16 of 100
Run: 16 Seed: 1397433202 979880659 [ Run 16 of 100 GA/GALS ]
Beginning LAMARCKIAN GENETIC ALGORITHM (LGA), with a maximum of 2500000 energy evaluations.

Final-Value: -11.293


	FINAL GENETIC ALGORITHM DOCKED STATE
	_______________________________________________


Detailed state:  trans 21.444 -11.881 -4.194 quatxyzw -0.769041 0.111949 0.452713 -0.437144 center -0.963 -0.416 0.212 ntor 6 -58.9543 120.8750 -139.0471 44.8587 -130.5111 180.0000
State:	 21.444 -11.881  -4.194  -0.855  0.124  0.503 -128.156    -58.95  120.87 -139.05   44.86 -130.51  180.00

DOCKED: MODEL       16
DOCKED: USER    Run = 16
DOCKED: USER    DPF = ligand_dock.biased.dpf
DOCKED: USER  
DOCKED: USER    Estimated Free Energy of Binding    =   -8.59 kcal/mol  [=(1)+(2)+(3)-(4)]
DOCKED: USER    Estimated Inhibition Constant, Ki   =  508.59 nM (nanomolar)  [Temperature = 298.15 K]
DOCKED: USER    
DOCKED: USER    (1) Final Intermolecular Energy     =  -10.38 kcal/mol
DOCKED: USER        vdW + Hbond + desolv Energy     =  -10.38 kcal/mol
DOCKED: USER        Electrostatic Energy            =   +0.00 kcal/mol
DOCKED: USER    (2) Final Total Internal Energy     =   -0.92 kcal/mol
DOCKED: USER    (3) Torsional Free Energy           =   +1.79 kcal/mol
DOCKED: USER    (4) Unbound System's Energy  [=(2)] =   -0.92 kcal/mol
DOCKED: USER    
DOCKED: USER    
DOCKED: USER    NEWDPF move ligand.pdbqt
DOCKED: USER    NEWDPF about -0.963000 -0.416000 0.212000
DOCKED: USER    NEWDPF tran0 21.444129 -11.881087 -4.193695
DOCKED: USER    NEWDPF quaternion0 -0.769041 0.111949 0.452713 -0.437144
DOCKED: USER    NEWDPF axisangle0 -0.855068 0.124472 0.503354 -128.156412
DOCKED: USER    NEWDPF quat0 -0.855068 0.124472 0.503354 -128.156412
DOCKED: USER    NEWDPF dihe0 -58.95 120.87 -139.05 44.86 -130.51 180.00 
DOCKED: USER  keepresnum = 1 
DOCKED: USER  
DOCKED: REMARK  Name = 
DOCKED: REMARK  10 active torsions:
DOCKED: REMARK  status: ('A' for Active; 'I' for Inactive)
DOCKED: REMARK    1  A    between atoms: C_1  and  N_2
DOCKED: REMARK    2  A    between atoms: N_2  and  C_3
DOCKED: REMARK    3  A    between atoms: N_2  and  C_22
DOCKED: REMARK    4  A    between atoms: C_6  and  C_9
DOCKED: REMARK    5  A    between atoms: C_9  and  C_10
DOCKED: REMARK    6  A    between atoms: C_10  and  C_11
DOCKED: REMARK    7  A    between atoms: C_10  and  C_20
DOCKED: REMARK    8  A    between atoms: C_12  and  C_13
DOCKED: REMARK    9  A    between atoms: C_12  and  C_19
DOCKED: REMARK   10  A    between atoms: C_14  and  C_15
DOCKED: REMARK                            x       y       z     vdW  Elec       q    Type
DOCKED: REMARK                         _______ _______ _______ _____ _____    ______ ____
DOCKED: USER                              x       y       z     vdW  Elec       q    Type
DOCKED: USER                           _______ _______ _______ _____ _____    ______ ____
DOCKED: ROOT
DOCKED: ATOM      1  C   UNL     1      20.125 -11.525  -5.027 -0.52 -0.00    +0.000 C 
DOCKED: ATOM      2  C   UNL     1      18.835 -11.124  -5.747 -0.40 -0.00    +0.000 C 
DOCKED: ENDROOT
DOCKED: BRANCH   1   3
DOCKED: ATOM      3  C   UNL     1      19.880 -11.617  -3.534 -0.19 -0.00    +0.000 C 
DOCKED: ATOM      4  C   UNL     1      19.100 -10.773  -2.826 -0.41 -0.00    +0.000 C 
DOCKED: ATOM      5  C   UNL     1      18.363  -9.627  -3.481 -0.23 -0.00    +0.000 C 
DOCKED: BRANCH   4   6
DOCKED: ATOM      6  C   UNL     1      18.944 -11.029  -1.370 -0.45 -0.00    +0.000 C 
DOCKED: ATOM      7  C   UNL     1      19.950 -10.899  -0.493 -0.57 -0.00    +0.000 C 
DOCKED: BRANCH   7   8
DOCKED: ATOM      8  C   UNL     1      19.806 -11.148   0.956 -0.67 -0.00    +0.000 C 
DOCKED: ATOM      9  N   UNL     1      20.289 -12.342   1.582 -0.70 -0.00    +0.000 N 
DOCKED: ATOM     10  O   UNL     1      20.226 -12.477   2.927 -1.67 -0.00    +0.000 OA
DOCKED: ATOM     11  O   UNL     1      19.213 -10.284   1.656 -0.65 -0.00    +0.000 OA
DOCKED: ATOM     12  H   UNL     1      20.668 -13.066   1.033 -0.49 -0.00    +0.000 HD
DOCKED: ENDBRANCH   7   8
DOCKED: ENDBRANCH   4   6
DOCKED: ENDBRANCH   1   3
DOCKED: BRANCH   1  13
DOCKED: ATOM     13  C   UNL     1      21.218 -10.520  -5.331 -0.45 -0.00    +0.000 C 
DOCKED: ATOM     14  O   UNL     1      22.130 -10.834  -6.146 -0.44 -0.00    +0.000 OA
DOCKED: BRANCH  13  18
DOCKED: ATOM     15  C   UNL     1      21.385  -6.620  -3.472 -0.31 -0.00    +0.000 A 
DOCKED: ATOM     16  C   UNL     1      21.045  -6.768  -4.831 -0.19 -0.00    +0.000 A 
DOCKED: ATOM     17  C   UNL     1      20.995  -8.032  -5.424 -0.19 -0.00    +0.000 A 
DOCKED: ATOM     18  C   UNL     1      21.273  -9.187  -4.676 -0.31 -0.00    +0.000 A 
DOCKED: ATOM     19  C   UNL     1      21.625  -9.046  -3.323 -0.32 -0.00    +0.000 A 
DOCKED: ATOM     20  C   UNL     1      21.677  -7.782  -2.729 -0.29 -0.00    +0.000 A 
DOCKED: BRANCH  15  22
DOCKED: ATOM     21  C   UNL     1      20.964  -5.109  -1.479 -0.45 +0.00    +0.000 C 
DOCKED: ATOM     22  N   UNL     1      21.438  -5.307  -2.855 -0.31 -0.00    +0.000 N 
DOCKED: ATOM     23  C   UNL     1      21.965  -4.155  -3.595 -0.18 -0.00    +0.000 C 
DOCKED: ENDBRANCH  15  22
DOCKED: ENDBRANCH  13  18
DOCKED: ENDBRANCH   1  13
DOCKED: TORSDOF 6
DOCKED: TER
DOCKED: ENDMDL
________________________________________________________________________________


	BEGINNING GENETIC ALGORITHM DOCKING 17 of 100
Run: 17 Seed: 739487752 703997375 [ Run 17 of 100 GA/GALS ]
Beginning LAMARCKIAN GENETIC ALGORITHM (LGA), with a maximum of 2500000 energy evaluations.

Final-Value: -12.609


	FINAL GENETIC ALGORITHM DOCKED STATE
	_______________________________________________


Detailed state:  trans 21.247 -8.917 -3.685 quatxyzw -0.641690 -0.533237 0.494544 0.243553 center -0.963 -0.416 0.212 ntor 6 154.3440 -36.3350 179.9510 47.8305 80.6560 -180.0000
State:	 21.247  -8.917  -3.685  -0.662 -0.550  0.510 151.807    154.34  -36.34  179.95   47.83   80.66 -180.00

DOCKED: MODEL       17
DOCKED: USER    Run = 17
DOCKED: USER    DPF = ligand_dock.biased.dpf
DOCKED: USER  
DOCKED: USER    Estimated Free Energy of Binding    =   -9.48 kcal/mol  [=(1)+(2)+(3)-(4)]
DOCKED: USER    Estimated Inhibition Constant, Ki   =  112.73 nM (nanomolar)  [Temperature = 298.15 K]
DOCKED: USER    
DOCKED: USER    (1) Final Intermolecular Energy     =  -11.27 kcal/mol
DOCKED: USER        vdW + Hbond + desolv Energy     =  -11.27 kcal/mol
DOCKED: USER        Electrostatic Energy            =   +0.00 kcal/mol
DOCKED: USER    (2) Final Total Internal Energy     =   -1.34 kcal/mol
DOCKED: USER    (3) Torsional Free Energy           =   +1.79 kcal/mol
DOCKED: USER    (4) Unbound System's Energy  [=(2)] =   -1.34 kcal/mol
DOCKED: USER    
DOCKED: USER    
DOCKED: USER    NEWDPF move ligand.pdbqt
DOCKED: USER    NEWDPF about -0.963000 -0.416000 0.212000
DOCKED: USER    NEWDPF tran0 21.247328 -8.917300 -3.685162
DOCKED: USER    NEWDPF quaternion0 -0.641690 -0.533237 0.494544 0.243553
DOCKED: USER    NEWDPF axisangle0 -0.661613 -0.549793 0.509898 151.807320
DOCKED: USER    NEWDPF quat0 -0.661613 -0.549793 0.509898 151.807320
DOCKED: USER    NEWDPF dihe0 154.34 -36.34 179.95 47.83 80.66 -180.00 
DOCKED: USER  keepresnum = 1 
DOCKED: USER  
DOCKED: REMARK  Name = 
DOCKED: REMARK  10 active torsions:
DOCKED: REMARK  status: ('A' for Active; 'I' for Inactive)
DOCKED: REMARK    1  A    between atoms: C_1  and  N_2
DOCKED: REMARK    2  A    between atoms: N_2  and  C_3
DOCKED: REMARK    3  A    between atoms: N_2  and  C_22
DOCKED: REMARK    4  A    between atoms: C_6  and  C_9
DOCKED: REMARK    5  A    between atoms: C_9  and  C_10
DOCKED: REMARK    6  A    between atoms: C_10  and  C_11
DOCKED: REMARK    7  A    between atoms: C_10  and  C_20
DOCKED: REMARK    8  A    between atoms: C_12  and  C_13
DOCKED: REMARK    9  A    between atoms: C_12  and  C_19
DOCKED: REMARK   10  A    between atoms: C_14  and  C_15
DOCKED: REMARK                            x       y       z     vdW  Elec       q    Type
DOCKED: REMARK                         _______ _______ _______ _____ _____    ______ ____
DOCKED: USER                              x       y       z     vdW  Elec       q    Type
DOCKED: USER                           _______ _______ _______ _____ _____    ______ ____
DOCKED: ROOT
DOCKED: ATOM      1  C   UNL     1      21.722 -10.276  -4.385 -0.45 -0.00    +0.000 C 
DOCKED: ATOM      2  C   UNL     1      22.102 -11.624  -5.003 -0.48 -0.00    +0.000 C 
DOCKED: ENDROOT
DOCKED: BRANCH   1   3
DOCKED: ATOM      3  C   UNL     1      21.278 -10.469  -2.948 -0.55 -0.00    +0.000 C 
DOCKED: ATOM      4  C   UNL     1      21.018  -9.469  -2.079 -0.57 -0.00    +0.000 C 
DOCKED: ATOM      5  C   UNL     1      21.137  -8.015  -2.477 -0.46 -0.00    +0.000 C 
DOCKED: BRANCH   4   6
DOCKED: ATOM      6  C   UNL     1      20.560  -9.838  -0.715 -0.61 -0.00    +0.000 C 
DOCKED: ATOM      7  C   UNL     1      20.868 -11.007  -0.131 -0.57 -0.00    +0.000 C 
DOCKED: BRANCH   7   8
DOCKED: ATOM      8  C   UNL     1      20.421 -11.383   1.226 -0.74 -0.00    +0.000 C 
DOCKED: ATOM      9  N   UNL     1      20.659 -10.554   2.369 -0.59 -0.00    +0.000 N 
DOCKED: ATOM     10  O   UNL     1      20.139 -10.892   3.572 -1.16 -0.00    +0.000 OA
DOCKED: ATOM     11  O   UNL     1      19.831 -12.486   1.378 -1.59 -0.00    +0.000 OA
DOCKED: ATOM     12  H   UNL     1      21.201  -9.736   2.280 -0.57 -0.00    +0.000 HD
DOCKED: ENDBRANCH   7   8
DOCKED: ENDBRANCH   4   6
DOCKED: ENDBRANCH   1   3
DOCKED: BRANCH   1  13
DOCKED: ATOM     13  C   UNL     1      20.624  -9.626  -5.204 -0.31 -0.00    +0.000 C 
DOCKED: ATOM     14  O   UNL     1      20.917  -8.663  -5.967 -0.18 -0.00    +0.000 OA
DOCKED: BRANCH  13  18
DOCKED: ATOM     15  C   UNL     1      16.496 -10.896  -4.996 -0.17 -0.00    +0.000 A 
DOCKED: ATOM     16  C   UNL     1      17.304 -11.213  -6.105 -0.31 -0.00    +0.000 A 
DOCKED: ATOM     17  C   UNL     1      18.636 -10.798  -6.165 -0.32 -0.00    +0.000 A 
DOCKED: ATOM     18  C   UNL     1      19.206 -10.062  -5.115 -0.26 -0.00    +0.000 A 
DOCKED: ATOM     19  C   UNL     1      18.402  -9.731  -4.009 -0.24 -0.00    +0.000 A 
DOCKED: ATOM     20  C   UNL     1      17.069 -10.145  -3.949 -0.22 -0.00    +0.000 A 
DOCKED: BRANCH  15  22
DOCKED: ATOM     21  C   UNL     1      14.488 -12.010  -6.074 -0.33 -0.00    +0.000 C 
DOCKED: ATOM     22  N   UNL     1      15.111 -11.328  -4.932 -0.27 -0.00    +0.000 N 
DOCKED: ATOM     23  C   UNL     1      14.310 -11.091  -3.725 -0.31 -0.00    +0.000 C 
DOCKED: ENDBRANCH  15  22
DOCKED: ENDBRANCH  13  18
DOCKED: ENDBRANCH   1  13
DOCKED: TORSDOF 6
DOCKED: TER
DOCKED: ENDMDL
________________________________________________________________________________


	BEGINNING GENETIC ALGORITHM DOCKING 18 of 100
Run: 18 Seed: 508029055 1021625432 [ Run 18 of 100 GA/GALS ]
Beginning LAMARCKIAN GENETIC ALGORITHM (LGA), with a maximum of 2500000 energy evaluations.

Final-Value: -12.496


	FINAL GENETIC ALGORITHM DOCKED STATE
	_______________________________________________


Detailed state:  trans 22.429 -8.301 -3.481 quatxyzw -0.614276 -0.016558 0.566458 -0.549104 center -0.963 -0.416 0.212 ntor 6 -23.7580 103.5022 -123.6248 -30.5568 -1.6738 167.6861
State:	 22.429  -8.301  -3.481  -0.735 -0.020  0.678 -113.389    -23.76  103.50 -123.62  -30.56   -1.67  167.69

DOCKED: MODEL       18
DOCKED: USER    Run = 18
DOCKED: USER    DPF = ligand_dock.biased.dpf
DOCKED: USER  
DOCKED: USER    Estimated Free Energy of Binding    =   -9.64 kcal/mol  [=(1)+(2)+(3)-(4)]
DOCKED: USER    Estimated Inhibition Constant, Ki   =   85.23 nM (nanomolar)  [Temperature = 298.15 K]
DOCKED: USER    
DOCKED: USER    (1) Final Intermolecular Energy     =  -11.43 kcal/mol
DOCKED: USER        vdW + Hbond + desolv Energy     =  -11.43 kcal/mol
DOCKED: USER        Electrostatic Energy            =   +0.00 kcal/mol
DOCKED: USER    (2) Final Total Internal Energy     =   -1.06 kcal/mol
DOCKED: USER    (3) Torsional Free Energy           =   +1.79 kcal/mol
DOCKED: USER    (4) Unbound System's Energy  [=(2)] =   -1.06 kcal/mol
DOCKED: USER    
DOCKED: USER    
DOCKED: USER    NEWDPF move ligand.pdbqt
DOCKED: USER    NEWDPF about -0.963000 -0.416000 0.212000
DOCKED: USER    NEWDPF tran0 22.429293 -8.301432 -3.480839
DOCKED: USER    NEWDPF quaternion0 -0.614276 -0.016558 0.566458 -0.549104
DOCKED: USER    NEWDPF axisangle0 -0.734997 -0.019812 0.677781 -113.388815
DOCKED: USER    NEWDPF quat0 -0.734997 -0.019812 0.677781 -113.388815
DOCKED: USER    NEWDPF dihe0 -23.76 103.50 -123.62 -30.56 -1.67 167.69 
DOCKED: USER  keepresnum = 1 
DOCKED: USER  
DOCKED: REMARK  Name = 
DOCKED: REMARK  10 active torsions:
DOCKED: REMARK  status: ('A' for Active; 'I' for Inactive)
DOCKED: REMARK    1  A    between atoms: C_1  and  N_2
DOCKED: REMARK    2  A    between atoms: N_2  and  C_3
DOCKED: REMARK    3  A    between atoms: N_2  and  C_22
DOCKED: REMARK    4  A    between atoms: C_6  and  C_9
DOCKED: REMARK    5  A    between atoms: C_9  and  C_10
DOCKED: REMARK    6  A    between atoms: C_10  and  C_11
DOCKED: REMARK    7  A    between atoms: C_10  and  C_20
DOCKED: REMARK    8  A    between atoms: C_12  and  C_13
DOCKED: REMARK    9  A    between atoms: C_12  and  C_19
DOCKED: REMARK   10  A    between atoms: C_14  and  C_15
DOCKED: REMARK                            x       y       z     vdW  Elec       q    Type
DOCKED: REMARK                         _______ _______ _______ _____ _____    ______ ____
DOCKED: USER                              x       y       z     vdW  Elec       q    Type
DOCKED: USER                           _______ _______ _______ _____ _____    ______ ____
DOCKED: ROOT
DOCKED: ATOM      1  C   UNL     1      20.934  -7.894  -3.878 -0.34 -0.00    +0.000 C 
DOCKED: ATOM      2  C   UNL     1      19.485  -7.488  -4.159 -0.17 -0.00    +0.000 C 
DOCKED: ENDROOT
DOCKED: BRANCH   1   3
DOCKED: ATOM      3  C   UNL     1      21.017  -8.651  -2.567 -0.48 -0.00    +0.000 C 
DOCKED: ATOM      4  C   UNL     1      20.898  -9.989  -2.439 -0.56 -0.00    +0.000 C 
DOCKED: ATOM      5  C   UNL     1      20.676 -10.889  -3.635 -0.50 -0.00    +0.000 C 
DOCKED: BRANCH   4   6
DOCKED: ATOM      6  C   UNL     1      21.038 -10.571  -1.079 -0.62 -0.00    +0.000 C 
DOCKED: ATOM      7  C   UNL     1      20.029 -10.618  -0.196 -0.60 -0.00    +0.000 C 
DOCKED: BRANCH   7   8
DOCKED: ATOM      8  C   UNL     1      20.157 -11.196   1.157 -0.72 -0.00    +0.000 C 
DOCKED: ATOM      9  N   UNL     1      20.633 -10.438   2.275 -0.52 -0.00    +0.000 N 
DOCKED: ATOM     10  O   UNL     1      20.632 -10.982   3.514 -1.24 -0.00    +0.000 OA
DOCKED: ATOM     11  O   UNL     1      19.856 -12.409   1.320 -1.59 -0.00    +0.000 OA
DOCKED: ATOM     12  H   UNL     1      20.960  -9.518   2.142 -0.56 -0.00    +0.000 HD
DOCKED: ENDBRANCH   7   8
DOCKED: ENDBRANCH   4   6
DOCKED: ENDBRANCH   1   3
DOCKED: BRANCH   1  13
DOCKED: ATOM     13  C   UNL     1      21.815  -6.662  -3.844 -0.26 -0.00    +0.000 C 
DOCKED: ATOM     14  O   UNL     1      22.731  -6.539  -4.705 -0.15 -0.00    +0.000 OA
DOCKED: BRANCH  13  18
DOCKED: ATOM     15  C   UNL     1      21.419  -3.580  -0.838 -0.35 +0.00    +0.000 A 
DOCKED: ATOM     16  C   UNL     1      22.450  -3.538  -1.796 -0.28 +0.00    +0.000 A 
DOCKED: ATOM     17  C   UNL     1      22.572  -4.538  -2.763 -0.27 -0.00    +0.000 A 
DOCKED: ATOM     18  C   UNL     1      21.662  -5.606  -2.809 -0.34 -0.00    +0.000 A 
DOCKED: ATOM     19  C   UNL     1      20.638  -5.661  -1.848 -0.33 -0.00    +0.000 A 
DOCKED: ATOM     20  C   UNL     1      20.516  -4.661  -0.879 -0.36 +0.00    +0.000 A 
DOCKED: BRANCH  15  22
DOCKED: ATOM     21  C   UNL     1      20.172  -2.554   1.119 -0.47 -0.00    +0.000 C 
DOCKED: ATOM     22  N   UNL     1      21.291  -2.540   0.168 -0.39 -0.00    +0.000 N 
DOCKED: ATOM     23  C   UNL     1      22.279  -1.457   0.251 -0.33 -0.00    +0.000 C 
DOCKED: ENDBRANCH  15  22
DOCKED: ENDBRANCH  13  18
DOCKED: ENDBRANCH   1  13
DOCKED: TORSDOF 6
DOCKED: TER
DOCKED: ENDMDL
________________________________________________________________________________


	BEGINNING GENETIC ALGORITHM DOCKING 19 of 100
Run: 19 Seed: 58362859 28263486 [ Run 19 of 100 GA/GALS ]
Beginning LAMARCKIAN GENETIC ALGORITHM (LGA), with a maximum of 2500000 energy evaluations.

Final-Value: -12.173


	FINAL GENETIC ALGORITHM DOCKED STATE
	_______________________________________________


Detailed state:  trans 21.803 -8.288 -2.553 quatxyzw 0.712416 0.435575 -0.546781 -0.061385 center -0.963 -0.416 0.212 ntor 6 -45.7302 -28.4585 78.7932 -35.1700 -152.4192 -80.4873
State:	 21.803  -8.288  -2.553   0.714  0.436 -0.548 -172.961    -45.73  -28.46   78.79  -35.17 -152.42  -80.49

DOCKED: MODEL       19
DOCKED: USER    Run = 19
DOCKED: USER    DPF = ligand_dock.biased.dpf
DOCKED: USER  
DOCKED: USER    Estimated Free Energy of Binding    =   -9.36 kcal/mol  [=(1)+(2)+(3)-(4)]
DOCKED: USER    Estimated Inhibition Constant, Ki   =  137.83 nM (nanomolar)  [Temperature = 298.15 K]
DOCKED: USER    
DOCKED: USER    (1) Final Intermolecular Energy     =  -11.15 kcal/mol
DOCKED: USER        vdW + Hbond + desolv Energy     =  -11.15 kcal/mol
DOCKED: USER        Electrostatic Energy            =   +0.00 kcal/mol
DOCKED: USER    (2) Final Total Internal Energy     =   -1.02 kcal/mol
DOCKED: USER    (3) Torsional Free Energy           =   +1.79 kcal/mol
DOCKED: USER    (4) Unbound System's Energy  [=(2)] =   -1.02 kcal/mol
DOCKED: USER    
DOCKED: USER    
DOCKED: USER    NEWDPF move ligand.pdbqt
DOCKED: USER    NEWDPF about -0.963000 -0.416000 0.212000
DOCKED: USER    NEWDPF tran0 21.803328 -8.288153 -2.552509
DOCKED: USER    NEWDPF quaternion0 0.712416 0.435575 -0.546781 -0.061385
DOCKED: USER    NEWDPF axisangle0 0.713762 0.436398 -0.547814 -172.961362
DOCKED: USER    NEWDPF quat0 0.713762 0.436398 -0.547814 -172.961362
DOCKED: USER    NEWDPF dihe0 -45.73 -28.46 78.79 -35.17 -152.42 -80.49 
DOCKED: USER  keepresnum = 1 
DOCKED: USER  
DOCKED: REMARK  Name = 
DOCKED: REMARK  10 active torsions:
DOCKED: REMARK  status: ('A' for Active; 'I' for Inactive)
DOCKED: REMARK    1  A    between atoms: C_1  and  N_2
DOCKED: REMARK    2  A    between atoms: N_2  and  C_3
DOCKED: REMARK    3  A    between atoms: N_2  and  C_22
DOCKED: REMARK    4  A    between atoms: C_6  and  C_9
DOCKED: REMARK    5  A    between atoms: C_9  and  C_10
DOCKED: REMARK    6  A    between atoms: C_10  and  C_11
DOCKED: REMARK    7  A    between atoms: C_10  and  C_20
DOCKED: REMARK    8  A    between atoms: C_12  and  C_13
DOCKED: REMARK    9  A    between atoms: C_12  and  C_19
DOCKED: REMARK   10  A    between atoms: C_14  and  C_15
DOCKED: REMARK                            x       y       z     vdW  Elec       q    Type
DOCKED: REMARK                         _______ _______ _______ _____ _____    ______ ____
DOCKED: USER                              x       y       z     vdW  Elec       q    Type
DOCKED: USER                           _______ _______ _______ _____ _____    ______ ____
DOCKED: ROOT
DOCKED: ATOM      1  C   UNL     1      21.602  -9.610  -3.432 -0.41 -0.00    +0.000 C 
DOCKED: ATOM      2  C   UNL     1      21.330 -10.897  -4.214 -0.53 -0.00    +0.000 C 
DOCKED: ENDROOT
DOCKED: BRANCH   1   3
DOCKED: ATOM      3  C   UNL     1      21.289  -9.818  -1.963 -0.58 -0.00    +0.000 C 
DOCKED: ATOM      4  C   UNL     1      20.077 -10.150  -1.471 -0.52 -0.00    +0.000 C 
DOCKED: ATOM      5  C   UNL     1      18.881 -10.365  -2.373 -0.35 -0.00    +0.000 C 
DOCKED: BRANCH   4   6
DOCKED: ATOM      6  C   UNL     1      19.954 -10.347  -0.004 -0.57 -0.00    +0.000 C 
DOCKED: ATOM      7  C   UNL     1      20.422 -11.433   0.630 -0.65 -0.00    +0.000 C 
DOCKED: BRANCH   7   8
DOCKED: ATOM      8  C   UNL     1      20.308 -11.637   2.089 -0.79 -0.00    +0.000 C 
DOCKED: ATOM      9  N   UNL     1      20.622 -10.609   3.035 -0.64 -0.00    +0.000 N 
DOCKED: ATOM     10  O   UNL     1      20.402 -10.811   4.355 -0.90 -0.00    +0.000 OA
DOCKED: ATOM     11  O   UNL     1      19.945 -12.768   2.508 -1.51 -0.00    +0.000 OA
DOCKED: ATOM     12  H   UNL     1      20.997  -9.753   2.724 -0.60 -0.00    +0.000 HD
DOCKED: ENDBRANCH   7   8
DOCKED: ENDBRANCH   4   6
DOCKED: ENDBRANCH   1   3
DOCKED: BRANCH   1  13
DOCKED: ATOM     13  C   UNL     1      20.774  -8.476  -4.003 -0.35 -0.00    +0.000 C 
DOCKED: ATOM     14  O   UNL     1      20.085  -8.683  -5.041 -0.20 -0.00    +0.000 OA
DOCKED: BRANCH  13  18
DOCKED: ATOM     15  C   UNL     1      20.758  -4.502  -2.301 -0.31 -0.00    +0.000 A 
DOCKED: ATOM     16  C   UNL     1      20.138  -4.770  -3.537 -0.18 -0.00    +0.000 A 
DOCKED: ATOM     17  C   UNL     1      20.149  -6.057  -4.080 -0.18 -0.00    +0.000 A 
DOCKED: ATOM     18  C   UNL     1      20.771  -7.117  -3.402 -0.31 -0.00    +0.000 A 
DOCKED: ATOM     19  C   UNL     1      21.402  -6.854  -2.174 -0.42 -0.00    +0.000 A 
DOCKED: ATOM     20  C   UNL     1      21.393  -5.566  -1.630 -0.38 +0.00    +0.000 A 
DOCKED: BRANCH  15  22
DOCKED: ATOM     21  C   UNL     1      20.873  -2.965  -0.285 -0.42 +0.00    +0.000 C 
DOCKED: ATOM     22  N   UNL     1      20.746  -3.164  -1.735 -0.24 -0.00    +0.000 N 
DOCKED: ATOM     23  C   UNL     1      20.609  -1.988  -2.603 -0.10 -0.00    +0.000 C 
DOCKED: ENDBRANCH  15  22
DOCKED: ENDBRANCH  13  18
DOCKED: ENDBRANCH   1  13
DOCKED: TORSDOF 6
DOCKED: TER
DOCKED: ENDMDL
________________________________________________________________________________


	BEGINNING GENETIC ALGORITHM DOCKING 20 of 100
Run: 20 Seed: 1787908215 1722184620 [ Run 20 of 100 GA/GALS ]
Beginning LAMARCKIAN GENETIC ALGORITHM (LGA), with a maximum of 2500000 energy evaluations.

Final-Value: -12.343


	FINAL GENETIC ALGORITHM DOCKED STATE
	_______________________________________________


Detailed state:  trans 21.764 -8.727 -2.515 quatxyzw -0.709322 -0.484932 0.504576 -0.084300 center -0.963 -0.416 0.212 ntor 6 132.0338 -154.0809 -140.1952 -113.8157 -155.8275 -50.1606
State:	 21.764  -8.727  -2.515  -0.712 -0.487  0.506 -170.328    132.03 -154.08 -140.20 -113.82 -155.83  -50.16

DOCKED: MODEL       20
DOCKED: USER    Run = 20
DOCKED: USER    DPF = ligand_dock.biased.dpf
DOCKED: USER  
DOCKED: USER    Estimated Free Energy of Binding    =   -9.52 kcal/mol  [=(1)+(2)+(3)-(4)]
DOCKED: USER    Estimated Inhibition Constant, Ki   =  105.00 nM (nanomolar)  [Temperature = 298.15 K]
DOCKED: USER    
DOCKED: USER    (1) Final Intermolecular Energy     =  -11.31 kcal/mol
DOCKED: USER        vdW + Hbond + desolv Energy     =  -11.31 kcal/mol
DOCKED: USER        Electrostatic Energy            =   +0.00 kcal/mol
DOCKED: USER    (2) Final Total Internal Energy     =   -1.03 kcal/mol
DOCKED: USER    (3) Torsional Free Energy           =   +1.79 kcal/mol
DOCKED: USER    (4) Unbound System's Energy  [=(2)] =   -1.03 kcal/mol
DOCKED: USER    
DOCKED: USER    
DOCKED: USER    NEWDPF move ligand.pdbqt
DOCKED: USER    NEWDPF about -0.963000 -0.416000 0.212000
DOCKED: USER    NEWDPF tran0 21.764464 -8.727024 -2.514525
DOCKED: USER    NEWDPF quaternion0 -0.709322 -0.484932 0.504576 -0.084300
DOCKED: USER    NEWDPF axisangle0 -0.711856 -0.486664 0.506378 -170.328474
DOCKED: USER    NEWDPF quat0 -0.711856 -0.486664 0.506378 -170.328474
DOCKED: USER    NEWDPF dihe0 132.03 -154.08 -140.20 -113.82 -155.83 -50.16 
DOCKED: USER  keepresnum = 1 
DOCKED: USER  
DOCKED: REMARK  Name = 
DOCKED: REMARK  10 active torsions:
DOCKED: REMARK  status: ('A' for Active; 'I' for Inactive)
DOCKED: REMARK    1  A    between atoms: C_1  and  N_2
DOCKED: REMARK    2  A    between atoms: N_2  and  C_3
DOCKED: REMARK    3  A    between atoms: N_2  and  C_22
DOCKED: REMARK    4  A    between atoms: C_6  and  C_9
DOCKED: REMARK    5  A    between atoms: C_9  and  C_10
DOCKED: REMARK    6  A    between atoms: C_10  and  C_11
DOCKED: REMARK    7  A    between atoms: C_10  and  C_20
DOCKED: REMARK    8  A    between atoms: C_12  and  C_13
DOCKED: REMARK    9  A    between atoms: C_12  and  C_19
DOCKED: REMARK   10  A    between atoms: C_14  and  C_15
DOCKED: REMARK                            x       y       z     vdW  Elec       q    Type
DOCKED: REMARK                         _______ _______ _______ _____ _____    ______ ____
DOCKED: USER                              x       y       z     vdW  Elec       q    Type
DOCKED: USER                           _______ _______ _______ _____ _____    ______ ____
DOCKED: ROOT
DOCKED: ATOM      1  C   UNL     1      21.388  -9.711  -3.719 -0.47 -0.00    +0.000 C 
DOCKED: ATOM      2  C   UNL     1      20.951 -10.685  -4.816 -0.49 -0.00    +0.000 C 
DOCKED: ENDROOT
DOCKED: BRANCH   1   3
DOCKED: ATOM      3  C   UNL     1      21.151 -10.324  -2.353 -0.57 -0.00    +0.000 C 
DOCKED: ATOM      4  C   UNL     1      19.940 -10.643  -1.850 -0.48 -0.00    +0.000 C 
DOCKED: ATOM      5  C   UNL     1      18.666 -10.422  -2.634 -0.35 -0.00    +0.000 C 
DOCKED: BRANCH   4   6
DOCKED: ATOM      6  C   UNL     1      19.892 -11.268  -0.503 -0.48 -0.00    +0.000 C 
DOCKED: ATOM      7  C   UNL     1      20.251 -10.622   0.617 -0.66 -0.00    +0.000 C 
DOCKED: BRANCH   7   8
DOCKED: ATOM      8  C   UNL     1      20.204 -11.232   1.961 -0.75 -0.00    +0.000 C 
DOCKED: ATOM      9  N   UNL     1      20.425 -10.475   3.156 -0.65 -0.00    +0.000 N 
DOCKED: ATOM     10  O   UNL     1      20.269 -11.058   4.368 -0.98 -0.00    +0.000 OA
DOCKED: ATOM     11  O   UNL     1      19.985 -12.470   2.049 -1.77 -0.00    +0.000 OA
DOCKED: ATOM     12  H   UNL     1      20.691  -9.528   3.097 -0.59 -0.00    +0.000 HD
DOCKED: ENDBRANCH   7   8
DOCKED: ENDBRANCH   4   6
DOCKED: ENDBRANCH   1   3
DOCKED: BRANCH   1  13
DOCKED: ATOM     13  C   UNL     1      20.633  -8.404  -3.861 -0.35 -0.00    +0.000 C 
DOCKED: ATOM     14  O   UNL     1      19.504  -8.407  -4.428 -0.22 -0.00    +0.000 OA
DOCKED: BRANCH  13  18
DOCKED: ATOM     15  C   UNL     1      22.289  -4.645  -2.514 -0.29 -0.00    +0.000 A 
DOCKED: ATOM     16  C   UNL     1      22.470  -5.091  -3.838 -0.18 -0.00    +0.000 A 
DOCKED: ATOM     17  C   UNL     1      21.933  -6.308  -4.264 -0.20 -0.00    +0.000 A 
DOCKED: ATOM     18  C   UNL     1      21.190  -7.111  -3.385 -0.33 -0.00    +0.000 A 
DOCKED: ATOM     19  C   UNL     1      21.015  -6.678  -2.059 -0.40 -0.00    +0.000 A 
DOCKED: ATOM     20  C   UNL     1      21.554  -5.462  -1.631 -0.36 +0.00    +0.000 A 
DOCKED: BRANCH  15  22
DOCKED: ATOM     21  C   UNL     1      24.051  -2.830  -2.707 -0.18 -0.00    +0.000 C 
DOCKED: ATOM     22  N   UNL     1      22.847  -3.380  -2.070 -0.24 -0.00    +0.000 N 
DOCKED: ATOM     23  C   UNL     1      22.217  -2.629  -0.977 -0.32 -0.00    +0.000 C 
DOCKED: ENDBRANCH  15  22
DOCKED: ENDBRANCH  13  18
DOCKED: ENDBRANCH   1  13
DOCKED: TORSDOF 6
DOCKED: TER
DOCKED: ENDMDL
________________________________________________________________________________


	BEGINNING GENETIC ALGORITHM DOCKING 21 of 100
Run: 21 Seed: 729289575 683293038 [ Run 21 of 100 GA/GALS ]
Beginning LAMARCKIAN GENETIC ALGORITHM (LGA), with a maximum of 2500000 energy evaluations.

Final-Value: -12.907


	FINAL GENETIC ALGORITHM DOCKED STATE
	_______________________________________________


Detailed state:  trans 21.041 -9.239 -3.732 quatxyzw 0.660357 0.578854 -0.421987 -0.225352 center -0.963 -0.416 0.212 ntor 6 164.0162 -118.1979 -94.4759 58.6803 74.1961 -180.0000
State:	 21.041  -9.239  -3.732   0.678  0.594 -0.433 -153.953    164.02 -118.20  -94.48   58.68   74.20 -180.00

DOCKED: MODEL       21
DOCKED: USER    Run = 21
DOCKED: USER    DPF = ligand_dock.biased.dpf
DOCKED: USER  
DOCKED: USER    Estimated Free Energy of Binding    =   -9.81 kcal/mol  [=(1)+(2)+(3)-(4)]
DOCKED: USER    Estimated Inhibition Constant, Ki   =   64.24 nM (nanomolar)  [Temperature = 298.15 K]
DOCKED: USER    
DOCKED: USER    (1) Final Intermolecular Energy     =  -11.60 kcal/mol
DOCKED: USER        vdW + Hbond + desolv Energy     =  -11.60 kcal/mol
DOCKED: USER        Electrostatic Energy            =   +0.00 kcal/mol
DOCKED: USER    (2) Final Total Internal Energy     =   -1.31 kcal/mol
DOCKED: USER    (3) Torsional Free Energy           =   +1.79 kcal/mol
DOCKED: USER    (4) Unbound System's Energy  [=(2)] =   -1.31 kcal/mol
DOCKED: USER    
DOCKED: USER    
DOCKED: USER    NEWDPF move ligand.pdbqt
DOCKED: USER    NEWDPF about -0.963000 -0.416000 0.212000
DOCKED: USER    NEWDPF tran0 21.041120 -9.238999 -3.732351
DOCKED: USER    NEWDPF quaternion0 0.660357 0.578854 -0.421987 -0.225352
DOCKED: USER    NEWDPF axisangle0 0.677791 0.594137 -0.433128 -153.952855
DOCKED: USER    NEWDPF quat0 0.677791 0.594137 -0.433128 -153.952855
DOCKED: USER    NEWDPF dihe0 164.02 -118.20 -94.48 58.68 74.20 -180.00 
DOCKED: USER  keepresnum = 1 
DOCKED: USER  
DOCKED: REMARK  Name = 
DOCKED: REMARK  10 active torsions:
DOCKED: REMARK  status: ('A' for Active; 'I' for Inactive)
DOCKED: REMARK    1  A    between atoms: C_1  and  N_2
DOCKED: REMARK    2  A    between atoms: N_2  and  C_3
DOCKED: REMARK    3  A    between atoms: N_2  and  C_22
DOCKED: REMARK    4  A    between atoms: C_6  and  C_9
DOCKED: REMARK    5  A    between atoms: C_9  and  C_10
DOCKED: REMARK    6  A    between atoms: C_10  and  C_11
DOCKED: REMARK    7  A    between atoms: C_10  and  C_20
DOCKED: REMARK    8  A    between atoms: C_12  and  C_13
DOCKED: REMARK    9  A    between atoms: C_12  and  C_19
DOCKED: REMARK   10  A    between atoms: C_14  and  C_15
DOCKED: REMARK                            x       y       z     vdW  Elec       q    Type
DOCKED: REMARK                         _______ _______ _______ _____ _____    ______ ____
DOCKED: USER                              x       y       z     vdW  Elec       q    Type
DOCKED: USER                           _______ _______ _______ _____ _____    ______ ____
DOCKED: ROOT
DOCKED: ATOM      1  C   UNL     1      21.642 -10.446  -4.594 -0.47 -0.00    +0.000 C 
DOCKED: ATOM      2  C   UNL     1      22.144 -11.660  -5.380 -0.56 -0.00    +0.000 C 
DOCKED: ENDROOT
DOCKED: BRANCH   1   3
DOCKED: ATOM      3  C   UNL     1      21.118 -10.883  -3.240 -0.45 -0.00    +0.000 C 
DOCKED: ATOM      4  C   UNL     1      20.858 -10.053  -2.208 -0.57 -0.00    +0.000 C 
DOCKED: ATOM      5  C   UNL     1      21.060  -8.558  -2.315 -0.49 -0.00    +0.000 C 
DOCKED: BRANCH   4   6
DOCKED: ATOM      6  C   UNL     1      20.316 -10.649  -0.959 -0.57 -0.00    +0.000 C 
DOCKED: ATOM      7  C   UNL     1      21.009 -10.697   0.189 -0.70 -0.00    +0.000 C 
DOCKED: BRANCH   7   8
DOCKED: ATOM      8  C   UNL     1      20.479 -11.283   1.437 -0.75 -0.00    +0.000 C 
DOCKED: ATOM      9  N   UNL     1      20.633 -10.646   2.710 -0.63 -0.00    +0.000 N 
DOCKED: ATOM     10  O   UNL     1      20.040 -11.171   3.808 -1.17 -0.00    +0.000 OA
DOCKED: ATOM     11  O   UNL     1      19.893 -12.397   1.373 -1.65 -0.00    +0.000 OA
DOCKED: ATOM     12  H   UNL     1      21.171  -9.825   2.788 -0.56 -0.00    +0.000 HD
DOCKED: ENDBRANCH   7   8
DOCKED: ENDBRANCH   4   6
DOCKED: ENDBRANCH   1   3
DOCKED: BRANCH   1  13
DOCKED: ATOM     13  C   UNL     1      20.563  -9.732  -5.383 -0.31 -0.00    +0.000 C 
DOCKED: ATOM     14  O   UNL     1      20.845  -8.648  -5.967 -0.18 -0.00    +0.000 OA
DOCKED: BRANCH  13  18
DOCKED: ATOM     15  C   UNL     1      16.519 -11.235  -5.677 -0.23 -0.00    +0.000 A 
DOCKED: ATOM     16  C   UNL     1      17.481 -11.527  -6.663 -0.32 -0.00    +0.000 A 
DOCKED: ATOM     17  C   UNL     1      18.785 -11.037  -6.561 -0.33 -0.00    +0.000 A 
DOCKED: ATOM     18  C   UNL     1      19.171 -10.247  -5.467 -0.27 -0.00    +0.000 A 
DOCKED: ATOM     19  C   UNL     1      18.213  -9.941  -4.485 -0.24 -0.00    +0.000 A 
DOCKED: ATOM     20  C   UNL     1      16.908 -10.430  -4.587 -0.20 -0.00    +0.000 A 
DOCKED: BRANCH  15  22
DOCKED: ATOM     21  C   UNL     1      14.791 -12.660  -6.869 -0.36 -0.00    +0.000 C 
DOCKED: ATOM     22  N   UNL     1      15.164 -11.744  -5.781 -0.29 -0.00    +0.000 N 
DOCKED: ATOM     23  C   UNL     1      14.142 -11.354  -4.803 -0.28 -0.00    +0.000 C 
DOCKED: ENDBRANCH  15  22
DOCKED: ENDBRANCH  13  18
DOCKED: ENDBRANCH   1  13
DOCKED: TORSDOF 6
DOCKED: TER
DOCKED: ENDMDL
________________________________________________________________________________


	BEGINNING GENETIC ALGORITHM DOCKING 22 of 100
Run: 22 Seed: 355232862 325123545 [ Run 22 of 100 GA/GALS ]
Beginning LAMARCKIAN GENETIC ALGORITHM (LGA), with a maximum of 2500000 energy evaluations.

Final-Value: -13.360


	FINAL GENETIC ALGORITHM DOCKED STATE
	_______________________________________________


Detailed state:  trans 19.372 -10.358 -3.395 quatxyzw 0.023018 -0.836091 0.053343 0.545506 center -0.963 -0.416 0.212 ntor 6 -87.7090 149.9839 -68.7076 -123.8765 74.4373 120.4968
State:	 19.372 -10.358  -3.395   0.027 -0.998  0.064 113.881    -87.71  149.98  -68.71 -123.88   74.44  120.50

DOCKED: MODEL       22
DOCKED: USER    Run = 22
DOCKED: USER    DPF = ligand_dock.biased.dpf
DOCKED: USER  
DOCKED: USER    Estimated Free Energy of Binding    =  -10.51 kcal/mol  [=(1)+(2)+(3)-(4)]
DOCKED: USER    Estimated Inhibition Constant, Ki   =   19.81 nM (nanomolar)  [Temperature = 298.15 K]
DOCKED: USER    
DOCKED: USER    (1) Final Intermolecular Energy     =  -12.30 kcal/mol
DOCKED: USER        vdW + Hbond + desolv Energy     =  -12.30 kcal/mol
DOCKED: USER        Electrostatic Energy            =   +0.00 kcal/mol
DOCKED: USER    (2) Final Total Internal Energy     =   -1.06 kcal/mol
DOCKED: USER    (3) Torsional Free Energy           =   +1.79 kcal/mol
DOCKED: USER    (4) Unbound System's Energy  [=(2)] =   -1.06 kcal/mol
DOCKED: USER    
DOCKED: USER    
DOCKED: USER    NEWDPF move ligand.pdbqt
DOCKED: USER    NEWDPF about -0.963000 -0.416000 0.212000
DOCKED: USER    NEWDPF tran0 19.372494 -10.357860 -3.394930
DOCKED: USER    NEWDPF quaternion0 0.023018 -0.836091 0.053343 0.545506
DOCKED: USER    NEWDPF axisangle0 0.027464 -0.997594 0.063647 113.881440
DOCKED: USER    NEWDPF quat0 0.027464 -0.997594 0.063647 113.881440
DOCKED: USER    NEWDPF dihe0 -87.71 149.98 -68.71 -123.88 74.44 120.50 
DOCKED: USER  keepresnum = 1 
DOCKED: USER  
DOCKED: REMARK  Name = 
DOCKED: REMARK  10 active torsions:
DOCKED: REMARK  status: ('A' for Active; 'I' for Inactive)
DOCKED: REMARK    1  A    between atoms: C_1  and  N_2
DOCKED: REMARK    2  A    between atoms: N_2  and  C_3
DOCKED: REMARK    3  A    between atoms: N_2  and  C_22
DOCKED: REMARK    4  A    between atoms: C_6  and  C_9
DOCKED: REMARK    5  A    between atoms: C_9  and  C_10
DOCKED: REMARK    6  A    between atoms: C_10  and  C_11
DOCKED: REMARK    7  A    between atoms: C_10  and  C_20
DOCKED: REMARK    8  A    between atoms: C_12  and  C_13
DOCKED: REMARK    9  A    between atoms: C_12  and  C_19
DOCKED: REMARK   10  A    between atoms: C_14  and  C_15
DOCKED: REMARK                            x       y       z     vdW  Elec       q    Type
DOCKED: REMARK                         _______ _______ _______ _____ _____    ______ ____
DOCKED: USER                              x       y       z     vdW  Elec       q    Type
DOCKED: USER                           _______ _______ _______ _____ _____    ______ ____
DOCKED: ROOT
DOCKED: ATOM      1  C   UNL     1      20.526  -9.430  -4.001 -0.38 -0.00    +0.000 C 
DOCKED: ATOM      2  C   UNL     1      21.698  -8.602  -4.536 -0.31 -0.00    +0.000 C 
DOCKED: ENDROOT
DOCKED: BRANCH   1   3
DOCKED: ATOM      3  C   UNL     1      20.842  -9.939  -2.609 -0.54 -0.00    +0.000 C 
DOCKED: ATOM      4  C   UNL     1      19.937 -10.466  -1.756 -0.50 -0.00    +0.000 C 
DOCKED: ATOM      5  C   UNL     1      18.479 -10.614  -2.130 -0.34 -0.00    +0.000 C 
DOCKED: BRANCH   4   6
DOCKED: ATOM      6  C   UNL     1      20.426 -10.947  -0.438 -0.56 -0.00    +0.000 C 
DOCKED: ATOM      7  C   UNL     1      19.769 -10.726   0.711 -0.62 -0.00    +0.000 C 
DOCKED: BRANCH   7   8
DOCKED: ATOM      8  C   UNL     1      20.244 -11.202   2.026 -0.76 -0.00    +0.000 C 
DOCKED: ATOM      9  N   UNL     1      20.292 -10.353   3.179 -0.62 -0.00    +0.000 N 
DOCKED: ATOM     10  O   UNL     1      20.636 -10.864   4.384 -0.92 -0.00    +0.000 OA
DOCKED: ATOM     11  O   UNL     1      20.642 -12.394   2.123 -1.85 -0.00    +0.000 OA
DOCKED: ATOM     12  H   UNL     1      20.075  -9.396   3.094 -0.58 -0.00    +0.000 HD
DOCKED: ENDBRANCH   7   8
DOCKED: ENDBRANCH   4   6
DOCKED: ENDBRANCH   1   3
DOCKED: BRANCH   1  13
DOCKED: ATOM     13  C   UNL     1      20.239 -10.582  -4.943 -0.43 -0.00    +0.000 C 
DOCKED: ATOM     14  O   UNL     1      19.137 -11.192  -4.847 -0.44 -0.00    +0.000 OA
DOCKED: BRANCH  13  18
DOCKED: ATOM     15  C   UNL     1      23.142 -11.934  -7.847 -0.41 -0.00    +0.000 A 
DOCKED: ATOM     16  C   UNL     1      23.204 -12.351  -6.503 -0.43 -0.00    +0.000 A 
DOCKED: ATOM     17  C   UNL     1      22.263 -11.909  -5.571 -0.46 -0.00    +0.000 A 
DOCKED: ATOM     18  C   UNL     1      21.226 -11.044  -5.954 -0.38 -0.00    +0.000 A 
DOCKED: ATOM     19  C   UNL     1      21.165 -10.613  -7.291 -0.26 -0.00    +0.000 A 
DOCKED: ATOM     20  C   UNL     1      22.107 -11.055  -8.224 -0.26 -0.00    +0.000 A 
DOCKED: BRANCH  15  22
DOCKED: ATOM     21  C   UNL     1      23.721 -13.281  -9.918 -0.41 -0.00    +0.000 C 
DOCKED: ATOM     22  N   UNL     1      24.120 -12.394  -8.817 -0.42 -0.00    +0.000 N 
DOCKED: ATOM     23  C   UNL     1      25.525 -11.980  -8.714 -0.42 -0.00    +0.000 C 
DOCKED: ENDBRANCH  15  22
DOCKED: ENDBRANCH  13  18
DOCKED: ENDBRANCH   1  13
DOCKED: TORSDOF 6
DOCKED: TER
DOCKED: ENDMDL
________________________________________________________________________________


	BEGINNING GENETIC ALGORITHM DOCKING 23 of 100
Run: 23 Seed: 439455482 888816635 [ Run 23 of 100 GA/GALS ]
Beginning LAMARCKIAN GENETIC ALGORITHM (LGA), with a maximum of 2500000 energy evaluations.

Final-Value: -12.558


	FINAL GENETIC ALGORITHM DOCKED STATE
	_______________________________________________


Detailed state:  trans 19.546 -9.591 -3.348 quatxyzw 0.342259 0.721008 -0.465140 -0.382951 center -0.963 -0.416 0.212 ntor 6 103.8250 25.7676 133.5299 -94.9650 31.5057 -82.8564
State:	 19.546  -9.591  -3.348   0.371  0.781 -0.504 -134.967    103.82   25.77  133.53  -94.96   31.51  -82.86

DOCKED: MODEL       23
DOCKED: USER    Run = 23
DOCKED: USER    DPF = ligand_dock.biased.dpf
DOCKED: USER  
DOCKED: USER    Estimated Free Energy of Binding    =   -9.37 kcal/mol  [=(1)+(2)+(3)-(4)]
DOCKED: USER    Estimated Inhibition Constant, Ki   =  135.99 nM (nanomolar)  [Temperature = 298.15 K]
DOCKED: USER    
DOCKED: USER    (1) Final Intermolecular Energy     =  -11.16 kcal/mol
DOCKED: USER        vdW + Hbond + desolv Energy     =  -11.16 kcal/mol
DOCKED: USER        Electrostatic Energy            =   +0.00 kcal/mol
DOCKED: USER    (2) Final Total Internal Energy     =   -1.40 kcal/mol
DOCKED: USER    (3) Torsional Free Energy           =   +1.79 kcal/mol
DOCKED: USER    (4) Unbound System's Energy  [=(2)] =   -1.40 kcal/mol
DOCKED: USER    
DOCKED: USER    
DOCKED: USER    NEWDPF move ligand.pdbqt
DOCKED: USER    NEWDPF about -0.963000 -0.416000 0.212000
DOCKED: USER    NEWDPF tran0 19.546496 -9.591403 -3.348068
DOCKED: USER    NEWDPF quaternion0 0.342259 0.721008 -0.465140 -0.382951
DOCKED: USER    NEWDPF axisangle0 0.370503 0.780507 -0.503524 -134.966842
DOCKED: USER    NEWDPF quat0 0.370503 0.780507 -0.503524 -134.966842
DOCKED: USER    NEWDPF dihe0 103.82 25.77 133.53 -94.96 31.51 -82.86 
DOCKED: USER  keepresnum = 1 
DOCKED: USER  
DOCKED: REMARK  Name = 
DOCKED: REMARK  10 active torsions:
DOCKED: REMARK  status: ('A' for Active; 'I' for Inactive)
DOCKED: REMARK    1  A    between atoms: C_1  and  N_2
DOCKED: REMARK    2  A    between atoms: N_2  and  C_3
DOCKED: REMARK    3  A    between atoms: N_2  and  C_22
DOCKED: REMARK    4  A    between atoms: C_6  and  C_9
DOCKED: REMARK    5  A    between atoms: C_9  and  C_10
DOCKED: REMARK    6  A    between atoms: C_10  and  C_11
DOCKED: REMARK    7  A    between atoms: C_10  and  C_20
DOCKED: REMARK    8  A    between atoms: C_12  and  C_13
DOCKED: REMARK    9  A    between atoms: C_12  and  C_19
DOCKED: REMARK   10  A    between atoms: C_14  and  C_15
DOCKED: REMARK                            x       y       z     vdW  Elec       q    Type
DOCKED: REMARK                         _______ _______ _______ _____ _____    ______ ____
DOCKED: USER                              x       y       z     vdW  Elec       q    Type
DOCKED: USER                           _______ _______ _______ _____ _____    ______ ____
DOCKED: ROOT
DOCKED: ATOM      1  C   UNL     1      20.700 -10.409  -4.098 -0.48 -0.00    +0.000 C 
DOCKED: ATOM      2  C   UNL     1      21.789 -11.266  -4.748 -0.52 -0.00    +0.000 C 
DOCKED: ENDROOT
DOCKED: BRANCH   1   3
DOCKED: ATOM      3  C   UNL     1      20.720 -10.594  -2.593 -0.51 -0.00    +0.000 C 
DOCKED: ATOM      4  C   UNL     1      20.867  -9.598  -1.695 -0.59 -0.00    +0.000 C 
DOCKED: ATOM      5  C   UNL     1      21.016  -8.154  -2.121 -0.47 -0.00    +0.000 C 
DOCKED: BRANCH   4   6
DOCKED: ATOM      6  C   UNL     1      20.831  -9.954  -0.253 -0.67 -0.00    +0.000 C 
DOCKED: ATOM      7  C   UNL     1      20.291 -11.093   0.206 -0.64 -0.00    +0.000 C 
DOCKED: BRANCH   7   8
DOCKED: ATOM      8  C   UNL     1      20.253 -11.459   1.637 -0.76 -0.00    +0.000 C 
DOCKED: ATOM      9  N   UNL     1      20.639 -10.548   2.673 -0.61 -0.00    +0.000 N 
DOCKED: ATOM     10  O   UNL     1      20.488 -10.894   3.972 -1.11 -0.00    +0.000 OA
DOCKED: ATOM     11  O   UNL     1      19.890 -12.624   1.948 -1.68 -0.00    +0.000 OA
DOCKED: ATOM     12  H   UNL     1      21.015  -9.667   2.439 -0.57 -0.00    +0.000 HD
DOCKED: ENDBRANCH   7   8
DOCKED: ENDBRANCH   4   6
DOCKED: ENDBRANCH   1   3
DOCKED: BRANCH   1  13
DOCKED: ATOM     13  C   UNL     1      19.345 -10.782  -4.667 -0.41 -0.00    +0.000 C 
DOCKED: ATOM     14  O   UNL     1      19.289 -11.585  -5.640 -0.49 -0.00    +0.000 OA
DOCKED: BRANCH  13  18
DOCKED: ATOM     15  C   UNL     1      15.668  -9.072  -3.167 -0.18 -0.00    +0.000 A 
DOCKED: ATOM     16  C   UNL     1      16.151  -8.756  -4.452 -0.15 -0.00    +0.000 A 
DOCKED: ATOM     17  C   UNL     1      17.341  -9.311  -4.928 -0.18 -0.00    +0.000 A 
DOCKED: ATOM     18  C   UNL     1      18.079 -10.208  -4.140 -0.26 -0.00    +0.000 A 
DOCKED: ATOM     19  C   UNL     1      17.610 -10.519  -2.852 -0.16 -0.00    +0.000 A 
DOCKED: ATOM     20  C   UNL     1      16.421  -9.963  -2.375 -0.18 -0.00    +0.000 A 
DOCKED: BRANCH  15  22
DOCKED: ATOM     21  C   UNL     1      14.250  -7.038  -2.630 -0.16 -0.00    +0.000 C 
DOCKED: ATOM     22  N   UNL     1      14.431  -8.495  -2.672 -0.17 -0.00    +0.000 N 
DOCKED: ATOM     23  C   UNL     1      13.340  -9.359  -2.203 -0.20 -0.00    +0.000 C 
DOCKED: ENDBRANCH  15  22
DOCKED: ENDBRANCH  13  18
DOCKED: ENDBRANCH   1  13
DOCKED: TORSDOF 6
DOCKED: TER
DOCKED: ENDMDL
________________________________________________________________________________


	BEGINNING GENETIC ALGORITHM DOCKING 24 of 100
Run: 24 Seed: 1870989670 1676062209 [ Run 24 of 100 GA/GALS ]
Beginning LAMARCKIAN GENETIC ALGORITHM (LGA), with a maximum of 2500000 energy evaluations.

Final-Value: -12.636


	FINAL GENETIC ALGORITHM DOCKED STATE
	_______________________________________________


Detailed state:  trans 21.911 -9.113 -2.978 quatxyzw 0.741450 0.448257 -0.497071 0.047304 center -0.963 -0.416 0.212 ntor 6 -70.8941 -147.5240 -151.8093 -88.3114 -163.2824 -69.5585
State:	 21.911  -9.113  -2.978   0.742  0.449 -0.498 174.577    -70.89 -147.52 -151.81  -88.31 -163.28  -69.56

DOCKED: MODEL       24
DOCKED: USER    Run = 24
DOCKED: USER    DPF = ligand_dock.biased.dpf
DOCKED: USER  
DOCKED: USER    Estimated Free Energy of Binding    =   -9.72 kcal/mol  [=(1)+(2)+(3)-(4)]
DOCKED: USER    Estimated Inhibition Constant, Ki   =   74.51 nM (nanomolar)  [Temperature = 298.15 K]
DOCKED: USER    
DOCKED: USER    (1) Final Intermolecular Energy     =  -11.51 kcal/mol
DOCKED: USER        vdW + Hbond + desolv Energy     =  -11.51 kcal/mol
DOCKED: USER        Electrostatic Energy            =   +0.00 kcal/mol
DOCKED: USER    (2) Final Total Internal Energy     =   -1.12 kcal/mol
DOCKED: USER    (3) Torsional Free Energy           =   +1.79 kcal/mol
DOCKED: USER    (4) Unbound System's Energy  [=(2)] =   -1.12 kcal/mol
DOCKED: USER    
DOCKED: USER    
DOCKED: USER    NEWDPF move ligand.pdbqt
DOCKED: USER    NEWDPF about -0.963000 -0.416000 0.212000
DOCKED: USER    NEWDPF tran0 21.910519 -9.112710 -2.977567
DOCKED: USER    NEWDPF quaternion0 0.741450 0.448257 -0.497071 0.047304
DOCKED: USER    NEWDPF axisangle0 0.742281 0.448759 -0.497628 174.577341
DOCKED: USER    NEWDPF quat0 0.742281 0.448759 -0.497628 174.577341
DOCKED: USER    NEWDPF dihe0 -70.89 -147.52 -151.81 -88.31 -163.28 -69.56 
DOCKED: USER  keepresnum = 1 
DOCKED: USER  
DOCKED: REMARK  Name = 
DOCKED: REMARK  10 active torsions:
DOCKED: REMARK  status: ('A' for Active; 'I' for Inactive)
DOCKED: REMARK    1  A    between atoms: C_1  and  N_2
DOCKED: REMARK    2  A    between atoms: N_2  and  C_3
DOCKED: REMARK    3  A    between atoms: N_2  and  C_22
DOCKED: REMARK    4  A    between atoms: C_6  and  C_9
DOCKED: REMARK    5  A    between atoms: C_9  and  C_10
DOCKED: REMARK    6  A    between atoms: C_10  and  C_11
DOCKED: REMARK    7  A    between atoms: C_10  and  C_20
DOCKED: REMARK    8  A    between atoms: C_12  and  C_13
DOCKED: REMARK    9  A    between atoms: C_12  and  C_19
DOCKED: REMARK   10  A    between atoms: C_14  and  C_15
DOCKED: REMARK                            x       y       z     vdW  Elec       q    Type
DOCKED: REMARK                         _______ _______ _______ _____ _____    ______ ____
DOCKED: USER                              x       y       z     vdW  Elec       q    Type
DOCKED: USER                           _______ _______ _______ _____ _____    ______ ____
DOCKED: ROOT
DOCKED: ATOM      1  C   UNL     1      21.571 -10.182  -4.118 -0.46 -0.00    +0.000 C 
DOCKED: ATOM      2  C   UNL     1      21.164 -11.231  -5.157 -0.54 -0.00    +0.000 C 
DOCKED: ENDROOT
DOCKED: BRANCH   1   3
DOCKED: ATOM      3  C   UNL     1      21.208 -10.660  -2.726 -0.49 -0.00    +0.000 C 
DOCKED: ATOM      4  C   UNL     1      19.950 -10.743  -2.242 -0.45 -0.00    +0.000 C 
DOCKED: ATOM      5  C   UNL     1      18.747 -10.367  -3.077 -0.36 -0.00    +0.000 C 
DOCKED: BRANCH   4   6
DOCKED: ATOM      6  C   UNL     1      19.772 -11.266  -0.863 -0.39 -0.00    +0.000 C 
DOCKED: ATOM      7  C   UNL     1      20.398 -10.744   0.203 -0.66 -0.00    +0.000 C 
DOCKED: BRANCH   7   8
DOCKED: ATOM      8  C   UNL     1      20.225 -11.253   1.579 -0.75 -0.00    +0.000 C 
DOCKED: ATOM      9  N   UNL     1      20.643 -10.511   2.731 -0.60 -0.00    +0.000 N 
DOCKED: ATOM     10  O   UNL     1      20.368 -10.973   3.973 -1.13 -0.00    +0.000 OA
DOCKED: ATOM     11  O   UNL     1      19.713 -12.394   1.736 -1.72 -0.00    +0.000 OA
DOCKED: ATOM     12  H   UNL     1      21.130  -9.662   2.618 -0.58 -0.00    +0.000 HD
DOCKED: ENDBRANCH   7   8
DOCKED: ENDBRANCH   4   6
DOCKED: ENDBRANCH   1   3
DOCKED: BRANCH   1  13
DOCKED: ATOM     13  C   UNL     1      20.894  -8.862  -4.427 -0.34 -0.00    +0.000 C 
DOCKED: ATOM     14  O   UNL     1      20.043  -8.813  -5.359 -0.19 -0.00    +0.000 OA
DOCKED: BRANCH  13  18
DOCKED: ATOM     15  C   UNL     1      21.883  -5.214  -2.327 -0.36 -0.00    +0.000 A 
DOCKED: ATOM     16  C   UNL     1      22.094  -5.340  -3.714 -0.22 -0.00    +0.000 A 
DOCKED: ATOM     17  C   UNL     1      21.773  -6.522  -4.385 -0.22 -0.00    +0.000 A 
DOCKED: ATOM     18  C   UNL     1      21.222  -7.612  -3.693 -0.32 -0.00    +0.000 A 
DOCKED: ATOM     19  C   UNL     1      21.020  -7.499  -2.306 -0.40 -0.00    +0.000 A 
DOCKED: ATOM     20  C   UNL     1      21.342  -6.317  -1.635 -0.30 +0.00    +0.000 A 
DOCKED: BRANCH  15  22
DOCKED: ATOM     21  C   UNL     1      21.237  -3.341  -0.743 -0.41 +0.00    +0.000 C 
DOCKED: ATOM     22  N   UNL     1      22.216  -3.985  -1.629 -0.33 +0.00    +0.000 N 
DOCKED: ATOM     23  C   UNL     1      23.536  -3.366  -1.797 -0.32 -0.00    +0.000 C 
DOCKED: ENDBRANCH  15  22
DOCKED: ENDBRANCH  13  18
DOCKED: ENDBRANCH   1  13
DOCKED: TORSDOF 6
DOCKED: TER
DOCKED: ENDMDL
________________________________________________________________________________


	BEGINNING GENETIC ALGORITHM DOCKING 25 of 100
Run: 25 Seed: 1293029578 499677967 [ Run 25 of 100 GA/GALS ]
Beginning LAMARCKIAN GENETIC ALGORITHM (LGA), with a maximum of 2500000 energy evaluations.

Final-Value: -12.589


	FINAL GENETIC ALGORITHM DOCKED STATE
	_______________________________________________


Detailed state:  trans 18.952 -10.149 -3.619 quatxyzw -0.141654 -0.753829 0.278012 0.578260 center -0.963 -0.416 0.212 ntor 6 -179.8434 -13.4275 -169.1417 -54.4528 -26.0357 -52.4461
State:	 18.952 -10.149  -3.619  -0.174 -0.924  0.341 109.343   -179.84  -13.43 -169.14  -54.45  -26.04  -52.45

DOCKED: MODEL       25
DOCKED: USER    Run = 25
DOCKED: USER    DPF = ligand_dock.biased.dpf
DOCKED: USER  
DOCKED: USER    Estimated Free Energy of Binding    =   -9.73 kcal/mol  [=(1)+(2)+(3)-(4)]
DOCKED: USER    Estimated Inhibition Constant, Ki   =   73.97 nM (nanomolar)  [Temperature = 298.15 K]
DOCKED: USER    
DOCKED: USER    (1) Final Intermolecular Energy     =  -11.52 kcal/mol
DOCKED: USER        vdW + Hbond + desolv Energy     =  -11.52 kcal/mol
DOCKED: USER        Electrostatic Energy            =   +0.00 kcal/mol
DOCKED: USER    (2) Final Total Internal Energy     =   -1.07 kcal/mol
DOCKED: USER    (3) Torsional Free Energy           =   +1.79 kcal/mol
DOCKED: USER    (4) Unbound System's Energy  [=(2)] =   -1.07 kcal/mol
DOCKED: USER    
DOCKED: USER    
DOCKED: USER    NEWDPF move ligand.pdbqt
DOCKED: USER    NEWDPF about -0.963000 -0.416000 0.212000
DOCKED: USER    NEWDPF tran0 18.952050 -10.149223 -3.619084
DOCKED: USER    NEWDPF quaternion0 -0.141654 -0.753829 0.278012 0.578260
DOCKED: USER    NEWDPF axisangle0 -0.173627 -0.923977 0.340763 109.343460
DOCKED: USER    NEWDPF quat0 -0.173627 -0.923977 0.340763 109.343460
DOCKED: USER    NEWDPF dihe0 -179.84 -13.43 -169.14 -54.45 -26.04 -52.45 
DOCKED: USER  keepresnum = 1 
DOCKED: USER  
DOCKED: REMARK  Name = 
DOCKED: REMARK  10 active torsions:
DOCKED: REMARK  status: ('A' for Active; 'I' for Inactive)
DOCKED: REMARK    1  A    between atoms: C_1  and  N_2
DOCKED: REMARK    2  A    between atoms: N_2  and  C_3
DOCKED: REMARK    3  A    between atoms: N_2  and  C_22
DOCKED: REMARK    4  A    between atoms: C_6  and  C_9
DOCKED: REMARK    5  A    between atoms: C_9  and  C_10
DOCKED: REMARK    6  A    between atoms: C_10  and  C_11
DOCKED: REMARK    7  A    between atoms: C_10  and  C_20
DOCKED: REMARK    8  A    between atoms: C_12  and  C_13
DOCKED: REMARK    9  A    between atoms: C_12  and  C_19
DOCKED: REMARK   10  A    between atoms: C_14  and  C_15
DOCKED: REMARK                            x       y       z     vdW  Elec       q    Type
DOCKED: REMARK                         _______ _______ _______ _____ _____    ______ ____
DOCKED: USER                              x       y       z     vdW  Elec       q    Type
DOCKED: USER                           _______ _______ _______ _____ _____    ______ ____
DOCKED: ROOT
DOCKED: ATOM      1  C   UNL     1      20.478 -10.054  -4.093 -0.43 -0.00    +0.000 C 
DOCKED: ATOM      2  C   UNL     1      21.959 -10.035  -4.478 -0.26 -0.00    +0.000 C 
DOCKED: ENDROOT
DOCKED: BRANCH   1   3
DOCKED: ATOM      3  C   UNL     1      20.330 -10.302  -2.605 -0.51 -0.00    +0.000 C 
DOCKED: ATOM      4  C   UNL     1      20.740  -9.457  -1.636 -0.56 -0.00    +0.000 C 
DOCKED: ATOM      5  C   UNL     1      21.395  -8.132  -1.958 -0.50 -0.00    +0.000 C 
DOCKED: BRANCH   4   6
DOCKED: ATOM      6  C   UNL     1      20.487  -9.844  -0.224 -0.60 -0.00    +0.000 C 
DOCKED: ATOM      7  C   UNL     1      20.580 -11.108   0.215 -0.64 -0.00    +0.000 C 
DOCKED: BRANCH   7   8
DOCKED: ATOM      8  C   UNL     1      20.334 -11.505   1.617 -0.77 -0.00    +0.000 C 
DOCKED: ATOM      9  N   UNL     1      20.608 -10.634   2.720 -0.63 -0.00    +0.000 N 
DOCKED: ATOM     10  O   UNL     1      20.268 -11.003   3.977 -1.16 -0.00    +0.000 OA
DOCKED: ATOM     11  O   UNL     1      19.889 -12.661   1.843 -1.66 -0.00    +0.000 OA
DOCKED: ATOM     12  H   UNL     1      21.044  -9.764   2.564 -0.60 -0.00    +0.000 HD
DOCKED: ENDBRANCH   7   8
DOCKED: ENDBRANCH   4   6
DOCKED: ENDBRANCH   1   3
DOCKED: BRANCH   1  13
DOCKED: ATOM     13  C   UNL     1      19.752 -11.120  -4.890 -0.47 -0.00    +0.000 C 
DOCKED: ATOM     14  O   UNL     1      20.413 -12.085  -5.366 -0.67 -0.00    +0.000 OA
DOCKED: BRANCH  13  18
DOCKED: ATOM     15  C   UNL     1      15.515 -10.926  -5.727 -0.23 -0.00    +0.000 A 
DOCKED: ATOM     16  C   UNL     1      16.404 -11.582  -6.601 -0.30 -0.00    +0.000 A 
DOCKED: ATOM     17  C   UNL     1      17.772 -11.639  -6.324 -0.28 -0.00    +0.000 A 
DOCKED: ATOM     18  C   UNL     1      18.292 -11.051  -5.161 -0.28 -0.00    +0.000 A 
DOCKED: ATOM     19  C   UNL     1      17.414 -10.383  -4.290 -0.20 -0.00    +0.000 A 
DOCKED: ATOM     20  C   UNL     1      16.045 -10.325  -4.568 -0.21 -0.00    +0.000 A 
DOCKED: BRANCH  15  22
DOCKED: ATOM     21  C   UNL     1      13.476 -11.832  -6.934 -0.25 -0.00    +0.000 C 
DOCKED: ATOM     22  N   UNL     1      14.093 -10.867  -6.015 -0.19 -0.00    +0.000 N 
DOCKED: ATOM     23  C   UNL     1      13.248  -9.841  -5.391 -0.15 -0.00    +0.000 C 
DOCKED: ENDBRANCH  15  22
DOCKED: ENDBRANCH  13  18
DOCKED: ENDBRANCH   1  13
DOCKED: TORSDOF 6
DOCKED: TER
DOCKED: ENDMDL
________________________________________________________________________________


	BEGINNING GENETIC ALGORITHM DOCKING 26 of 100
Run: 26 Seed: 532454308 1452348836 [ Run 26 of 100 GA/GALS ]
Beginning LAMARCKIAN GENETIC ALGORITHM (LGA), with a maximum of 2500000 energy evaluations.

Final-Value: -12.569


	FINAL GENETIC ALGORITHM DOCKED STATE
	_______________________________________________


Detailed state:  trans 19.613 -9.582 -3.287 quatxyzw 0.340947 0.733771 -0.460674 -0.364848 center -0.963 -0.416 0.212 ntor 6 6.3302 43.5621 118.4169 75.3792 30.0781 -77.8873
State:	 19.613  -9.582  -3.287   0.366  0.788 -0.495 -137.204      6.33   43.56  118.42   75.38   30.08  -77.89

DOCKED: MODEL       26
DOCKED: USER    Run = 26
DOCKED: USER    DPF = ligand_dock.biased.dpf
DOCKED: USER  
DOCKED: USER    Estimated Free Energy of Binding    =   -9.35 kcal/mol  [=(1)+(2)+(3)-(4)]
DOCKED: USER    Estimated Inhibition Constant, Ki   =  141.02 nM (nanomolar)  [Temperature = 298.15 K]
DOCKED: USER    
DOCKED: USER    (1) Final Intermolecular Energy     =  -11.14 kcal/mol
DOCKED: USER        vdW + Hbond + desolv Energy     =  -11.14 kcal/mol
DOCKED: USER        Electrostatic Energy            =   +0.00 kcal/mol
DOCKED: USER    (2) Final Total Internal Energy     =   -1.43 kcal/mol
DOCKED: USER    (3) Torsional Free Energy           =   +1.79 kcal/mol
DOCKED: USER    (4) Unbound System's Energy  [=(2)] =   -1.43 kcal/mol
DOCKED: USER    
DOCKED: USER    
DOCKED: USER    NEWDPF move ligand.pdbqt
DOCKED: USER    NEWDPF about -0.963000 -0.416000 0.212000
DOCKED: USER    NEWDPF tran0 19.613024 -9.582051 -3.287362
DOCKED: USER    NEWDPF quaternion0 0.340947 0.733771 -0.460674 -0.364848
DOCKED: USER    NEWDPF axisangle0 0.366190 0.788097 -0.494781 -137.203533
DOCKED: USER    NEWDPF quat0 0.366190 0.788097 -0.494781 -137.203533
DOCKED: USER    NEWDPF dihe0 6.33 43.56 118.42 75.38 30.08 -77.89 
DOCKED: USER  keepresnum = 1 
DOCKED: USER  
DOCKED: REMARK  Name = 
DOCKED: REMARK  10 active torsions:
DOCKED: REMARK  status: ('A' for Active; 'I' for Inactive)
DOCKED: REMARK    1  A    between atoms: C_1  and  N_2
DOCKED: REMARK    2  A    between atoms: N_2  and  C_3
DOCKED: REMARK    3  A    between atoms: N_2  and  C_22
DOCKED: REMARK    4  A    between atoms: C_6  and  C_9
DOCKED: REMARK    5  A    between atoms: C_9  and  C_10
DOCKED: REMARK    6  A    between atoms: C_10  and  C_11
DOCKED: REMARK    7  A    between atoms: C_10  and  C_20
DOCKED: REMARK    8  A    between atoms: C_12  and  C_13
DOCKED: REMARK    9  A    between atoms: C_12  and  C_19
DOCKED: REMARK   10  A    between atoms: C_14  and  C_15
DOCKED: REMARK                            x       y       z     vdW  Elec       q    Type
DOCKED: REMARK                         _______ _______ _______ _____ _____    ______ ____
DOCKED: USER                              x       y       z     vdW  Elec       q    Type
DOCKED: USER                           _______ _______ _______ _____ _____    ______ ____
DOCKED: ROOT
DOCKED: ATOM      1  C   UNL     1      20.737 -10.380  -4.100 -0.48 -0.00    +0.000 C 
DOCKED: ATOM      2  C   UNL     1      21.801 -11.219  -4.811 -0.52 -0.00    +0.000 C 
DOCKED: ENDROOT
DOCKED: BRANCH   1   3
DOCKED: ATOM      3  C   UNL     1      20.808 -10.609  -2.603 -0.51 -0.00    +0.000 C 
DOCKED: ATOM      4  C   UNL     1      21.016  -9.644  -1.683 -0.61 -0.00    +0.000 C 
DOCKED: ATOM      5  C   UNL     1      21.190  -8.193  -2.073 -0.49 -0.00    +0.000 C 
DOCKED: BRANCH   4   6
DOCKED: ATOM      6  C   UNL     1      21.024 -10.042  -0.251 -0.69 -0.00    +0.000 C 
DOCKED: ATOM      7  C   UNL     1      20.234 -11.006   0.244 -0.65 -0.00    +0.000 C 
DOCKED: BRANCH   7   8
DOCKED: ATOM      8  C   UNL     1      20.236 -11.412   1.665 -0.76 -0.00    +0.000 C 
DOCKED: ATOM      9  N   UNL     1      20.631 -10.523   2.717 -0.61 -0.00    +0.000 N 
DOCKED: ATOM     10  O   UNL     1      20.516 -10.907   4.009 -1.09 -0.00    +0.000 OA
DOCKED: ATOM     11  O   UNL     1      19.900 -12.592   1.952 -1.69 -0.00    +0.000 OA
DOCKED: ATOM     12  H   UNL     1      20.986  -9.630   2.498 -0.56 -0.00    +0.000 HD
DOCKED: ENDBRANCH   7   8
DOCKED: ENDBRANCH   4   6
DOCKED: ENDBRANCH   1   3
DOCKED: BRANCH   1  13
DOCKED: ATOM     13  C   UNL     1      19.363 -10.733  -4.633 -0.41 -0.00    +0.000 C 
DOCKED: ATOM     14  O   UNL     1      19.266 -11.579  -5.566 -0.49 -0.00    +0.000 OA
DOCKED: BRANCH  13  18
DOCKED: ATOM     15  C   UNL     1      15.752  -8.906  -3.110 -0.15 -0.00    +0.000 A 
DOCKED: ATOM     16  C   UNL     1      16.406  -9.934  -2.403 -0.18 -0.00    +0.000 A 
DOCKED: ATOM     17  C   UNL     1      17.571 -10.520  -2.903 -0.15 -0.00    +0.000 A 
DOCKED: ATOM     18  C   UNL     1      18.125 -10.090  -4.119 -0.26 -0.00    +0.000 A 
DOCKED: ATOM     19  C   UNL     1      17.471  -9.074  -4.837 -0.17 -0.00    +0.000 A 
DOCKED: ATOM     20  C   UNL     1      16.304  -8.489  -4.338 -0.15 -0.00    +0.000 A 
DOCKED: BRANCH  15  22
DOCKED: ATOM     21  C   UNL     1      13.556  -7.697  -3.503 -0.12 -0.00    +0.000 C 
DOCKED: ATOM     22  N   UNL     1      14.540  -8.297  -2.592 -0.17 -0.00    +0.000 N 
DOCKED: ATOM     23  C   UNL     1      14.278  -8.270  -1.148 -0.22 -0.00    +0.000 C 
DOCKED: ENDBRANCH  15  22
DOCKED: ENDBRANCH  13  18
DOCKED: ENDBRANCH   1  13
DOCKED: TORSDOF 6
DOCKED: TER
DOCKED: ENDMDL
________________________________________________________________________________


	BEGINNING GENETIC ALGORITHM DOCKING 27 of 100
Run: 27 Seed: 507107447 1494928740 [ Run 27 of 100 GA/GALS ]
Beginning LAMARCKIAN GENETIC ALGORITHM (LGA), with a maximum of 2500000 energy evaluations.

Final-Value: -12.826


	FINAL GENETIC ALGORITHM DOCKED STATE
	_______________________________________________


Detailed state:  trans 21.831 -9.043 -2.858 quatxyzw 0.760751 0.403768 -0.506621 0.039558 center -0.963 -0.416 0.212 ntor 6 100.9530 -101.0904 165.4883 93.5781 -156.4702 -70.4825
State:	 21.831  -9.043  -2.858   0.761  0.404 -0.507 175.466    100.95 -101.09  165.49   93.58 -156.47  -70.48

DOCKED: MODEL       27
DOCKED: USER    Run = 27
DOCKED: USER    DPF = ligand_dock.biased.dpf
DOCKED: USER  
DOCKED: USER    Estimated Free Energy of Binding    =   -9.89 kcal/mol  [=(1)+(2)+(3)-(4)]
DOCKED: USER    Estimated Inhibition Constant, Ki   =   55.91 nM (nanomolar)  [Temperature = 298.15 K]
DOCKED: USER    
DOCKED: USER    (1) Final Intermolecular Energy     =  -11.68 kcal/mol
DOCKED: USER        vdW + Hbond + desolv Energy     =  -11.68 kcal/mol
DOCKED: USER        Electrostatic Energy            =   +0.00 kcal/mol
DOCKED: USER    (2) Final Total Internal Energy     =   -1.14 kcal/mol
DOCKED: USER    (3) Torsional Free Energy           =   +1.79 kcal/mol
DOCKED: USER    (4) Unbound System's Energy  [=(2)] =   -1.14 kcal/mol
DOCKED: USER    
DOCKED: USER    
DOCKED: USER    NEWDPF move ligand.pdbqt
DOCKED: USER    NEWDPF about -0.963000 -0.416000 0.212000
DOCKED: USER    NEWDPF tran0 21.831070 -9.043203 -2.858332
DOCKED: USER    NEWDPF quaternion0 0.760751 0.403768 -0.506621 0.039558
DOCKED: USER    NEWDPF axisangle0 0.761347 0.404084 -0.507018 175.465762
DOCKED: USER    NEWDPF quat0 0.761347 0.404084 -0.507018 175.465762
DOCKED: USER    NEWDPF dihe0 100.95 -101.09 165.49 93.58 -156.47 -70.48 
DOCKED: USER  keepresnum = 1 
DOCKED: USER  
DOCKED: REMARK  Name = 
DOCKED: REMARK  10 active torsions:
DOCKED: REMARK  status: ('A' for Active; 'I' for Inactive)
DOCKED: REMARK    1  A    between atoms: C_1  and  N_2
DOCKED: REMARK    2  A    between atoms: N_2  and  C_3
DOCKED: REMARK    3  A    between atoms: N_2  and  C_22
DOCKED: REMARK    4  A    between atoms: C_6  and  C_9
DOCKED: REMARK    5  A    between atoms: C_9  and  C_10
DOCKED: REMARK    6  A    between atoms: C_10  and  C_11
DOCKED: REMARK    7  A    between atoms: C_10  and  C_20
DOCKED: REMARK    8  A    between atoms: C_12  and  C_13
DOCKED: REMARK    9  A    between atoms: C_12  and  C_19
DOCKED: REMARK   10  A    between atoms: C_14  and  C_15
DOCKED: REMARK                            x       y       z     vdW  Elec       q    Type
DOCKED: REMARK                         _______ _______ _______ _____ _____    ______ ____
DOCKED: USER                              x       y       z     vdW  Elec       q    Type
DOCKED: USER                           _______ _______ _______ _____ _____    ______ ____
DOCKED: ROOT
DOCKED: ATOM      1  C   UNL     1      21.419 -10.158  -3.930 -0.49 -0.00    +0.000 C 
DOCKED: ATOM      2  C   UNL     1      20.939 -11.239  -4.901 -0.54 -0.00    +0.000 C 
DOCKED: ENDROOT
DOCKED: BRANCH   1   3
DOCKED: ATOM      3  C   UNL     1      21.013 -10.514  -2.513 -0.56 -0.00    +0.000 C 
DOCKED: ATOM      4  C   UNL     1      19.740 -10.598  -2.072 -0.47 -0.00    +0.000 C 
DOCKED: ATOM      5  C   UNL     1      18.561 -10.348  -2.986 -0.33 -0.00    +0.000 C 
DOCKED: BRANCH   4   6
DOCKED: ATOM      6  C   UNL     1      19.521 -10.992  -0.657 -0.52 -0.00    +0.000 C 
DOCKED: ATOM      7  C   UNL     1      20.508 -11.038   0.251 -0.66 -0.00    +0.000 C 
DOCKED: BRANCH   7   8
DOCKED: ATOM      8  C   UNL     1      20.301 -11.425   1.661 -0.76 -0.00    +0.000 C 
DOCKED: ATOM      9  N   UNL     1      20.575 -10.536   2.750 -0.62 -0.00    +0.000 N 
DOCKED: ATOM     10  O   UNL     1      20.270 -10.900   4.017 -1.13 -0.00    +0.000 OA
DOCKED: ATOM     11  O   UNL     1      19.892 -12.591   1.908 -1.70 -0.00    +0.000 OA
DOCKED: ATOM     12  H   UNL     1      20.985  -9.657   2.576 -0.57 -0.00    +0.000 HD
DOCKED: ENDBRANCH   7   8
DOCKED: ENDBRANCH   4   6
DOCKED: ENDBRANCH   1   3
DOCKED: BRANCH   1  13
DOCKED: ATOM     13  C   UNL     1      20.844  -8.814  -4.332 -0.34 -0.00    +0.000 C 
DOCKED: ATOM     14  O   UNL     1      20.017  -8.762  -5.285 -0.19 -0.00    +0.000 OA
DOCKED: BRANCH  13  18
DOCKED: ATOM     15  C   UNL     1      21.979  -5.142  -2.352 -0.35 -0.00    +0.000 A 
DOCKED: ATOM     16  C   UNL     1      21.382  -6.202  -1.641 -0.31 +0.00    +0.000 A 
DOCKED: ATOM     17  C   UNL     1      21.018  -7.385  -2.289 -0.39 -0.00    +0.000 A 
DOCKED: ATOM     18  C   UNL     1      21.246  -7.549  -3.664 -0.32 -0.00    +0.000 A 
DOCKED: ATOM     19  C   UNL     1      21.829  -6.491  -4.382 -0.21 -0.00    +0.000 A 
DOCKED: ATOM     20  C   UNL     1      22.193  -5.307  -3.735 -0.21 -0.00    +0.000 A 
DOCKED: BRANCH  15  22
DOCKED: ATOM     21  C   UNL     1      21.357  -3.111  -0.964 -0.37 -0.00    +0.000 C 
DOCKED: ATOM     22  N   UNL     1      22.359  -3.913  -1.679 -0.32 +0.00    +0.000 N 
DOCKED: ATOM     23  C   UNL     1      23.751  -3.449  -1.702 -0.33 +0.00    +0.000 C 
DOCKED: ENDBRANCH  15  22
DOCKED: ENDBRANCH  13  18
DOCKED: ENDBRANCH   1  13
DOCKED: TORSDOF 6
DOCKED: TER
DOCKED: ENDMDL
________________________________________________________________________________


	BEGINNING GENETIC ALGORITHM DOCKING 28 of 100
Run: 28 Seed: 89817563 1689785597 [ Run 28 of 100 GA/GALS ]
Beginning LAMARCKIAN GENETIC ALGORITHM (LGA), with a maximum of 2500000 energy evaluations.

Final-Value: -12.617


	FINAL GENETIC ALGORITHM DOCKED STATE
	_______________________________________________


Detailed state:  trans 19.254 -9.923 -3.332 quatxyzw 0.250945 0.817810 -0.322696 -0.405069 center -0.963 -0.416 0.212 ntor 6 -29.2607 108.9828 67.8637 -57.8703 11.3890 -67.2551
State:	 19.254  -9.923  -3.332   0.274  0.894 -0.353 -132.209    -29.26  108.98   67.86  -57.87   11.39  -67.26

DOCKED: MODEL       28
DOCKED: USER    Run = 28
DOCKED: USER    DPF = ligand_dock.biased.dpf
DOCKED: USER  
DOCKED: USER    Estimated Free Energy of Binding    =   -9.60 kcal/mol  [=(1)+(2)+(3)-(4)]
DOCKED: USER    Estimated Inhibition Constant, Ki   =   91.74 nM (nanomolar)  [Temperature = 298.15 K]
DOCKED: USER    
DOCKED: USER    (1) Final Intermolecular Energy     =  -11.39 kcal/mol
DOCKED: USER        vdW + Hbond + desolv Energy     =  -11.39 kcal/mol
DOCKED: USER        Electrostatic Energy            =   +0.00 kcal/mol
DOCKED: USER    (2) Final Total Internal Energy     =   -1.23 kcal/mol
DOCKED: USER    (3) Torsional Free Energy           =   +1.79 kcal/mol
DOCKED: USER    (4) Unbound System's Energy  [=(2)] =   -1.23 kcal/mol
DOCKED: USER    
DOCKED: USER    
DOCKED: USER    NEWDPF move ligand.pdbqt
DOCKED: USER    NEWDPF about -0.963000 -0.416000 0.212000
DOCKED: USER    NEWDPF tran0 19.253731 -9.923329 -3.331521
DOCKED: USER    NEWDPF quaternion0 0.250945 0.817810 -0.322696 -0.405069
DOCKED: USER    NEWDPF axisangle0 0.274471 0.894479 -0.352949 -132.209138
DOCKED: USER    NEWDPF quat0 0.274471 0.894479 -0.352949 -132.209138
DOCKED: USER    NEWDPF dihe0 -29.26 108.98 67.86 -57.87 11.39 -67.26 
DOCKED: USER  keepresnum = 1 
DOCKED: USER  
DOCKED: REMARK  Name = 
DOCKED: REMARK  10 active torsions:
DOCKED: REMARK  status: ('A' for Active; 'I' for Inactive)
DOCKED: REMARK    1  A    between atoms: C_1  and  N_2
DOCKED: REMARK    2  A    between atoms: N_2  and  C_3
DOCKED: REMARK    3  A    between atoms: N_2  and  C_22
DOCKED: REMARK    4  A    between atoms: C_6  and  C_9
DOCKED: REMARK    5  A    between atoms: C_9  and  C_10
DOCKED: REMARK    6  A    between atoms: C_10  and  C_11
DOCKED: REMARK    7  A    between atoms: C_10  and  C_20
DOCKED: REMARK    8  A    between atoms: C_12  and  C_13
DOCKED: REMARK    9  A    between atoms: C_12  and  C_19
DOCKED: REMARK   10  A    between atoms: C_14  and  C_15
DOCKED: REMARK                            x       y       z     vdW  Elec       q    Type
DOCKED: REMARK                         _______ _______ _______ _____ _____    ______ ____
DOCKED: USER                              x       y       z     vdW  Elec       q    Type
DOCKED: USER                           _______ _______ _______ _____ _____    ______ ____
DOCKED: ROOT
DOCKED: ATOM      1  C   UNL     1      20.557 -10.154  -4.231 -0.43 -0.00    +0.000 C 
DOCKED: ATOM      2  C   UNL     1      21.819 -10.461  -5.041 -0.44 -0.00    +0.000 C 
DOCKED: ENDROOT
DOCKED: BRANCH   1   3
DOCKED: ATOM      3  C   UNL     1      20.731 -10.621  -2.799 -0.51 -0.00    +0.000 C 
DOCKED: ATOM      4  C   UNL     1      20.994  -9.814  -1.750 -0.61 -0.00    +0.000 C 
DOCKED: ATOM      5  C   UNL     1      21.131  -8.316  -1.909 -0.49 -0.00    +0.000 C 
DOCKED: BRANCH   4   6
DOCKED: ATOM      6  C   UNL     1      21.101 -10.438  -0.406 -0.70 -0.00    +0.000 C 
DOCKED: ATOM      7  C   UNL     1      20.039 -10.670   0.380 -0.63 -0.00    +0.000 C 
DOCKED: BRANCH   7   8
DOCKED: ATOM      8  C   UNL     1      20.134 -11.292   1.716 -0.75 -0.00    +0.000 C 
DOCKED: ATOM      9  N   UNL     1      20.285 -10.521   2.914 -0.67 -0.00    +0.000 N 
DOCKED: ATOM     10  O   UNL     1      20.262 -11.131   4.121 -1.11 -0.00    +0.000 OA
DOCKED: ATOM     11  O   UNL     1      20.105 -12.550   1.795 -1.69 -0.00    +0.000 OA
DOCKED: ATOM     12  H   UNL     1      20.404  -9.544   2.858 -0.56 -0.00    +0.000 HD
DOCKED: ENDBRANCH   7   8
DOCKED: ENDBRANCH   4   6
DOCKED: ENDBRANCH   1   3
DOCKED: BRANCH   1  13
DOCKED: ATOM     13  C   UNL     1      19.358 -10.824  -4.873 -0.42 -0.00    +0.000 C 
DOCKED: ATOM     14  O   UNL     1      19.545 -11.631  -5.826 -0.49 -0.00    +0.000 OA
DOCKED: BRANCH  13  18
DOCKED: ATOM     15  C   UNL     1      15.293  -9.975  -3.668 -0.21 -0.00    +0.000 A 
DOCKED: ATOM     16  C   UNL     1      15.606 -10.312  -5.000 -0.20 -0.00    +0.000 A 
DOCKED: ATOM     17  C   UNL     1      16.922 -10.584  -5.381 -0.23 -0.00    +0.000 A 
DOCKED: ATOM     18  C   UNL     1      17.965 -10.536  -4.442 -0.24 -0.00    +0.000 A 
DOCKED: ATOM     19  C   UNL     1      17.662 -10.187  -3.115 -0.23 -0.00    +0.000 A 
DOCKED: ATOM     20  C   UNL     1      16.346  -9.914  -2.733 -0.21 -0.00    +0.000 A 
DOCKED: BRANCH  15  22
DOCKED: ATOM     21  C   UNL     1      13.578  -9.529  -1.853 -0.22 -0.00    +0.000 C 
DOCKED: ATOM     22  N   UNL     1      13.926  -9.692  -3.271 -0.18 -0.00    +0.000 N 
DOCKED: ATOM     23  C   UNL     1      12.867  -9.566  -4.280 -0.16 -0.00    +0.000 C 
DOCKED: ENDBRANCH  15  22
DOCKED: ENDBRANCH  13  18
DOCKED: ENDBRANCH   1  13
DOCKED: TORSDOF 6
DOCKED: TER
DOCKED: ENDMDL
________________________________________________________________________________


	BEGINNING GENETIC ALGORITHM DOCKING 29 of 100
Run: 29 Seed: 891586708 13565173 [ Run 29 of 100 GA/GALS ]
Beginning LAMARCKIAN GENETIC ALGORITHM (LGA), with a maximum of 2500000 energy evaluations.

Final-Value: -12.547


	FINAL GENETIC ALGORITHM DOCKED STATE
	_______________________________________________


Detailed state:  trans 18.235 -10.728 -3.917 quatxyzw -0.158953 0.718480 -0.062817 -0.674221 center -0.963 -0.416 0.212 ntor 6 66.4386 -40.9604 -84.4800 82.3951 -135.8771 107.7702
State:	 18.235 -10.728  -3.917  -0.215  0.973 -0.085 -95.213     66.44  -40.96  -84.48   82.40 -135.88  107.77

DOCKED: MODEL       29
DOCKED: USER    Run = 29
DOCKED: USER    DPF = ligand_dock.biased.dpf
DOCKED: USER  
DOCKED: USER    Estimated Free Energy of Binding    =   -9.88 kcal/mol  [=(1)+(2)+(3)-(4)]
DOCKED: USER    Estimated Inhibition Constant, Ki   =   57.35 nM (nanomolar)  [Temperature = 298.15 K]
DOCKED: USER    
DOCKED: USER    (1) Final Intermolecular Energy     =  -11.67 kcal/mol
DOCKED: USER        vdW + Hbond + desolv Energy     =  -11.67 kcal/mol
DOCKED: USER        Electrostatic Energy            =   +0.00 kcal/mol
DOCKED: USER    (2) Final Total Internal Energy     =   -0.88 kcal/mol
DOCKED: USER    (3) Torsional Free Energy           =   +1.79 kcal/mol
DOCKED: USER    (4) Unbound System's Energy  [=(2)] =   -0.88 kcal/mol
DOCKED: USER    
DOCKED: USER    
DOCKED: USER    NEWDPF move ligand.pdbqt
DOCKED: USER    NEWDPF about -0.963000 -0.416000 0.212000
DOCKED: USER    NEWDPF tran0 18.234826 -10.728244 -3.917145
DOCKED: USER    NEWDPF quaternion0 -0.158953 0.718480 -0.062817 -0.674221
DOCKED: USER    NEWDPF axisangle0 -0.215229 0.972852 -0.085057 -95.212592
DOCKED: USER    NEWDPF quat0 -0.215229 0.972852 -0.085057 -95.212592
DOCKED: USER    NEWDPF dihe0 66.44 -40.96 -84.48 82.40 -135.88 107.77 
DOCKED: USER  keepresnum = 1 
DOCKED: USER  
DOCKED: REMARK  Name = 
DOCKED: REMARK  10 active torsions:
DOCKED: REMARK  status: ('A' for Active; 'I' for Inactive)
DOCKED: REMARK    1  A    between atoms: C_1  and  N_2
DOCKED: REMARK    2  A    between atoms: N_2  and  C_3
DOCKED: REMARK    3  A    between atoms: N_2  and  C_22
DOCKED: REMARK    4  A    between atoms: C_6  and  C_9
DOCKED: REMARK    5  A    between atoms: C_9  and  C_10
DOCKED: REMARK    6  A    between atoms: C_10  and  C_11
DOCKED: REMARK    7  A    between atoms: C_10  and  C_20
DOCKED: REMARK    8  A    between atoms: C_12  and  C_13
DOCKED: REMARK    9  A    between atoms: C_12  and  C_19
DOCKED: REMARK   10  A    between atoms: C_14  and  C_15
DOCKED: REMARK                            x       y       z     vdW  Elec       q    Type
DOCKED: REMARK                         _______ _______ _______ _____ _____    ______ ____
DOCKED: USER                              x       y       z     vdW  Elec       q    Type
DOCKED: USER                           _______ _______ _______ _____ _____    ______ ____
DOCKED: ROOT
DOCKED: ATOM      1  C   UNL     1      19.313  -9.619  -4.325 -0.29 -0.00    +0.000 C 
DOCKED: ATOM      2  C   UNL     1      20.404  -8.592  -4.640 -0.27 -0.00    +0.000 C 
DOCKED: ENDROOT
DOCKED: BRANCH   1   3
DOCKED: ATOM      3  C   UNL     1      19.230  -9.847  -2.828 -0.30 -0.00    +0.000 C 
DOCKED: ATOM      4  C   UNL     1      20.292 -10.009  -2.011 -0.52 -0.00    +0.000 C 
DOCKED: ATOM      5  C   UNL     1      21.712  -9.962  -2.529 -0.34 -0.00    +0.000 C 
DOCKED: BRANCH   4   6
DOCKED: ATOM      6  C   UNL     1      20.029 -10.191  -0.560 -0.55 -0.00    +0.000 C 
DOCKED: ATOM      7  C   UNL     1      20.441 -11.266   0.128 -0.59 -0.00    +0.000 C 
DOCKED: BRANCH   7   8
DOCKED: ATOM      8  C   UNL     1      20.189 -11.456   1.571 -0.76 -0.00    +0.000 C 
DOCKED: ATOM      9  N   UNL     1      20.640 -10.522   2.559 -0.60 -0.00    +0.000 N 
DOCKED: ATOM     10  O   UNL     1      20.294 -10.687   3.857 -1.06 -0.00    +0.000 OA
DOCKED: ATOM     11  O   UNL     1      19.573 -12.491   1.940 -1.61 -0.00    +0.000 OA
DOCKED: ATOM     12  H   UNL     1      21.204  -9.759   2.293 -0.58 -0.00    +0.000 HD
DOCKED: ENDBRANCH   7   8
DOCKED: ENDBRANCH   4   6
DOCKED: ENDBRANCH   1   3
DOCKED: BRANCH   1  13
DOCKED: ATOM     13  C   UNL     1      19.604 -10.917  -5.051 -0.43 -0.00    +0.000 C 
DOCKED: ATOM     14  O   UNL     1      18.777 -11.867  -4.963 -0.39 -0.00    +0.000 OA
DOCKED: BRANCH  13  18
DOCKED: ATOM     15  C   UNL     1      23.200 -11.503  -7.380 -0.43 -0.00    +0.000 A 
DOCKED: ATOM     16  C   UNL     1      22.175 -10.643  -7.821 -0.27 -0.00    +0.000 A 
DOCKED: ATOM     17  C   UNL     1      21.016 -10.460  -7.063 -0.27 -0.00    +0.000 A 
DOCKED: ATOM     18  C   UNL     1      20.849 -11.123  -5.837 -0.37 -0.00    +0.000 A 
DOCKED: ATOM     19  C   UNL     1      21.862 -11.993  -5.397 -0.45 -0.00    +0.000 A 
DOCKED: ATOM     20  C   UNL     1      23.021 -12.177  -6.155 -0.35 -0.00    +0.000 A 
DOCKED: BRANCH  15  22
DOCKED: ATOM     21  C   UNL     1      24.501 -12.797  -9.132 -0.40 -0.00    +0.000 C 
DOCKED: ATOM     22  N   UNL     1      24.405 -11.693  -8.167 -0.43 -0.00    +0.000 N 
DOCKED: ATOM     23  C   UNL     1      25.548 -10.786  -8.012 -0.40 -0.00    +0.000 C 
DOCKED: ENDBRANCH  15  22
DOCKED: ENDBRANCH  13  18
DOCKED: ENDBRANCH   1  13
DOCKED: TORSDOF 6
DOCKED: TER
DOCKED: ENDMDL
________________________________________________________________________________


	BEGINNING GENETIC ALGORITHM DOCKING 30 of 100
Run: 30 Seed: 1087103616 1497947290 [ Run 30 of 100 GA/GALS ]
Beginning LAMARCKIAN GENETIC ALGORITHM (LGA), with a maximum of 2500000 energy evaluations.

Final-Value: -12.420


	FINAL GENETIC ALGORITHM DOCKED STATE
	_______________________________________________


Detailed state:  trans 21.305 -8.832 -3.134 quatxyzw 0.601209 0.563311 -0.549650 -0.138249 center -0.963 -0.416 0.212 ntor 6 -11.5526 41.4656 104.5969 14.8927 86.8764 -180.0000
State:	 21.305  -8.832  -3.134   0.607  0.569 -0.555 -164.107    -11.55   41.47  104.60   14.89   86.88 -180.00

DOCKED: MODEL       30
DOCKED: USER    Run = 30
DOCKED: USER    DPF = ligand_dock.biased.dpf
DOCKED: USER  
DOCKED: USER    Estimated Free Energy of Binding    =   -9.57 kcal/mol  [=(1)+(2)+(3)-(4)]
DOCKED: USER    Estimated Inhibition Constant, Ki   =   95.86 nM (nanomolar)  [Temperature = 298.15 K]
DOCKED: USER    
DOCKED: USER    (1) Final Intermolecular Energy     =  -11.36 kcal/mol
DOCKED: USER        vdW + Hbond + desolv Energy     =  -11.36 kcal/mol
DOCKED: USER        Electrostatic Energy            =   +0.00 kcal/mol
DOCKED: USER    (2) Final Total Internal Energy     =   -1.06 kcal/mol
DOCKED: USER    (3) Torsional Free Energy           =   +1.79 kcal/mol
DOCKED: USER    (4) Unbound System's Energy  [=(2)] =   -1.06 kcal/mol
DOCKED: USER    
DOCKED: USER    
DOCKED: USER    NEWDPF move ligand.pdbqt
DOCKED: USER    NEWDPF about -0.963000 -0.416000 0.212000
DOCKED: USER    NEWDPF tran0 21.304770 -8.831562 -3.134304
DOCKED: USER    NEWDPF quaternion0 0.601209 0.563311 -0.549650 -0.138249
DOCKED: USER    NEWDPF axisangle0 0.607038 0.568773 -0.554980 -164.106871
DOCKED: USER    NEWDPF quat0 0.607038 0.568773 -0.554980 -164.106871
DOCKED: USER    NEWDPF dihe0 -11.55 41.47 104.60 14.89 86.88 -180.00 
DOCKED: USER  keepresnum = 1 
DOCKED: USER  
DOCKED: REMARK  Name = 
DOCKED: REMARK  10 active torsions:
DOCKED: REMARK  status: ('A' for Active; 'I' for Inactive)
DOCKED: REMARK    1  A    between atoms: C_1  and  N_2
DOCKED: REMARK    2  A    between atoms: N_2  and  C_3
DOCKED: REMARK    3  A    between atoms: N_2  and  C_22
DOCKED: REMARK    4  A    between atoms: C_6  and  C_9
DOCKED: REMARK    5  A    between atoms: C_9  and  C_10
DOCKED: REMARK    6  A    between atoms: C_10  and  C_11
DOCKED: REMARK    7  A    between atoms: C_10  and  C_20
DOCKED: REMARK    8  A    between atoms: C_12  and  C_13
DOCKED: REMARK    9  A    between atoms: C_12  and  C_19
DOCKED: REMARK   10  A    between atoms: C_14  and  C_15
DOCKED: REMARK                            x       y       z     vdW  Elec       q    Type
DOCKED: REMARK                         _______ _______ _______ _____ _____    ______ ____
DOCKED: USER                              x       y       z     vdW  Elec       q    Type
DOCKED: USER                           _______ _______ _______ _____ _____    ______ ____
DOCKED: ROOT
DOCKED: ATOM      1  C   UNL     1      21.521 -10.138  -4.033 -0.47 -0.00    +0.000 C 
DOCKED: ATOM      2  C   UNL     1      21.666 -11.437  -4.829 -0.49 -0.00    +0.000 C 
DOCKED: ENDROOT
DOCKED: BRANCH   1   3
DOCKED: ATOM      3  C   UNL     1      21.415 -10.444  -2.552 -0.55 -0.00    +0.000 C 
DOCKED: ATOM      4  C   UNL     1      21.305  -9.517  -1.578 -0.60 -0.00    +0.000 C 
DOCKED: ATOM      5  C   UNL     1      21.263  -8.037  -1.885 -0.48 -0.00    +0.000 C 
DOCKED: BRANCH   4   6
DOCKED: ATOM      6  C   UNL     1      21.177  -9.995  -0.177 -0.70 -0.00    +0.000 C 
DOCKED: ATOM      7  C   UNL     1      20.307 -10.946   0.195 -0.66 -0.00    +0.000 C 
DOCKED: BRANCH   7   8
DOCKED: ATOM      8  C   UNL     1      20.174 -11.431   1.584 -0.75 -0.00    +0.000 C 
DOCKED: ATOM      9  N   UNL     1      20.562 -10.641   2.714 -0.64 -0.00    +0.000 N 
DOCKED: ATOM     10  O   UNL     1      20.324 -11.088   3.969 -1.16 -0.00    +0.000 OA
DOCKED: ATOM     11  O   UNL     1      19.724 -12.593   1.772 -1.64 -0.00    +0.000 OA
DOCKED: ATOM     12  H   UNL     1      21.003  -9.770   2.577 -0.60 -0.00    +0.000 HD
DOCKED: ENDBRANCH   7   8
DOCKED: ENDBRANCH   4   6
DOCKED: ENDBRANCH   1   3
DOCKED: BRANCH   1  13
DOCKED: ATOM     13  C   UNL     1      20.303  -9.374  -4.513 -0.32 -0.00    +0.000 C 
DOCKED: ATOM     14  O   UNL     1      20.466  -8.357  -5.244 -0.19 -0.00    +0.000 OA
DOCKED: BRANCH  13  18
DOCKED: ATOM     15  C   UNL     1      16.266 -10.471  -3.420 -0.16 -0.00    +0.000 A 
DOCKED: ATOM     16  C   UNL     1      16.584 -10.064  -4.731 -0.20 -0.00    +0.000 A 
DOCKED: ATOM     17  C   UNL     1      17.891  -9.711  -5.075 -0.20 -0.00    +0.000 A 
DOCKED: ATOM     18  C   UNL     1      18.922  -9.761  -4.124 -0.26 -0.00    +0.000 A 
DOCKED: ATOM     19  C   UNL     1      18.610 -10.153  -2.811 -0.27 -0.00    +0.000 A 
DOCKED: ATOM     20  C   UNL     1      17.302 -10.506  -2.465 -0.17 -0.00    +0.000 A 
DOCKED: BRANCH  15  22
DOCKED: ATOM     21  C   UNL     1      14.543 -11.072  -1.658 -0.35 -0.00    +0.000 C 
DOCKED: ATOM     22  N   UNL     1      14.908 -10.839  -3.061 -0.27 -0.00    +0.000 N 
DOCKED: ATOM     23  C   UNL     1      13.877 -10.986  -4.095 -0.26 -0.00    +0.000 C 
DOCKED: ENDBRANCH  15  22
DOCKED: ENDBRANCH  13  18
DOCKED: ENDBRANCH   1  13
DOCKED: TORSDOF 6
DOCKED: TER
DOCKED: ENDMDL
________________________________________________________________________________


	BEGINNING GENETIC ALGORITHM DOCKING 31 of 100
Run: 31 Seed: 1523948371 979910784 [ Run 31 of 100 GA/GALS ]
Beginning LAMARCKIAN GENETIC ALGORITHM (LGA), with a maximum of 2500000 energy evaluations.

Final-Value: -12.383


	FINAL GENETIC ALGORITHM DOCKED STATE
	_______________________________________________


Detailed state:  trans 18.961 -9.977 -3.766 quatxyzw -0.345211 -0.758583 0.296645 0.466243 center -0.963 -0.416 0.212 ntor 6 -75.4632 -130.2182 -50.9401 164.9054 2.1180 -79.9895
State:	 18.961  -9.977  -3.766  -0.390 -0.857  0.335 124.419    -75.46 -130.22  -50.94  164.91    2.12  -79.99

DOCKED: MODEL       31
DOCKED: USER    Run = 31
DOCKED: USER    DPF = ligand_dock.biased.dpf
DOCKED: USER  
DOCKED: USER    Estimated Free Energy of Binding    =   -9.49 kcal/mol  [=(1)+(2)+(3)-(4)]
DOCKED: USER    Estimated Inhibition Constant, Ki   =  110.19 nM (nanomolar)  [Temperature = 298.15 K]
DOCKED: USER    
DOCKED: USER    (1) Final Intermolecular Energy     =  -11.28 kcal/mol
DOCKED: USER        vdW + Hbond + desolv Energy     =  -11.28 kcal/mol
DOCKED: USER        Electrostatic Energy            =   +0.00 kcal/mol
DOCKED: USER    (2) Final Total Internal Energy     =   -1.10 kcal/mol
DOCKED: USER    (3) Torsional Free Energy           =   +1.79 kcal/mol
DOCKED: USER    (4) Unbound System's Energy  [=(2)] =   -1.10 kcal/mol
DOCKED: USER    
DOCKED: USER    
DOCKED: USER    NEWDPF move ligand.pdbqt
DOCKED: USER    NEWDPF about -0.963000 -0.416000 0.212000
DOCKED: USER    NEWDPF tran0 18.961152 -9.977301 -3.765734
DOCKED: USER    NEWDPF quaternion0 -0.345211 -0.758583 0.296645 0.466243
DOCKED: USER    NEWDPF axisangle0 -0.390221 -0.857489 0.335322 124.418618
DOCKED: USER    NEWDPF quat0 -0.390221 -0.857489 0.335322 124.418618
DOCKED: USER    NEWDPF dihe0 -75.46 -130.22 -50.94 164.91 2.12 -79.99 
DOCKED: USER  keepresnum = 1 
DOCKED: USER  
DOCKED: REMARK  Name = 
DOCKED: REMARK  10 active torsions:
DOCKED: REMARK  status: ('A' for Active; 'I' for Inactive)
DOCKED: REMARK    1  A    between atoms: C_1  and  N_2
DOCKED: REMARK    2  A    between atoms: N_2  and  C_3
DOCKED: REMARK    3  A    between atoms: N_2  and  C_22
DOCKED: REMARK    4  A    between atoms: C_6  and  C_9
DOCKED: REMARK    5  A    between atoms: C_9  and  C_10
DOCKED: REMARK    6  A    between atoms: C_10  and  C_11
DOCKED: REMARK    7  A    between atoms: C_10  and  C_20
DOCKED: REMARK    8  A    between atoms: C_12  and  C_13
DOCKED: REMARK    9  A    between atoms: C_12  and  C_19
DOCKED: REMARK   10  A    between atoms: C_14  and  C_15
DOCKED: REMARK                            x       y       z     vdW  Elec       q    Type
DOCKED: REMARK                         _______ _______ _______ _____ _____    ______ ____
DOCKED: USER                              x       y       z     vdW  Elec       q    Type
DOCKED: USER                           _______ _______ _______ _____ _____    ______ ____
DOCKED: ROOT
DOCKED: ATOM      1  C   UNL     1      20.396 -10.340  -4.374 -0.43 -0.00    +0.000 C 
DOCKED: ATOM      2  C   UNL     1      21.762 -10.777  -4.908 -0.50 -0.00    +0.000 C 
DOCKED: ENDROOT
DOCKED: BRANCH   1   3
DOCKED: ATOM      3  C   UNL     1      20.190 -10.877  -2.971 -0.46 -0.00    +0.000 C 
DOCKED: ATOM      4  C   UNL     1      20.475 -10.203  -1.837 -0.56 -0.00    +0.000 C 
DOCKED: ATOM      5  C   UNL     1      21.033  -8.798  -1.862 -0.54 -0.00    +0.000 C 
DOCKED: BRANCH   4   6
DOCKED: ATOM      6  C   UNL     1      20.180 -10.870  -0.542 -0.58 -0.00    +0.000 C 
DOCKED: ATOM      7  C   UNL     1      20.813 -10.561   0.600 -0.68 -0.00    +0.000 C 
DOCKED: BRANCH   7   8
DOCKED: ATOM      8  C   UNL     1      20.525 -11.215   1.894 -0.74 -0.00    +0.000 C 
DOCKED: ATOM      9  N   UNL     1      20.640 -10.526   3.144 -0.64 -0.00    +0.000 N 
DOCKED: ATOM     10  O   UNL     1      20.265 -11.137   4.292 -1.03 -0.00    +0.000 OA
DOCKED: ATOM     11  O   UNL     1      20.190 -12.429   1.889 -1.80 -0.00    +0.000 OA
DOCKED: ATOM     12  H   UNL     1      20.991  -9.606   3.169 -0.61 -0.00    +0.000 HD
DOCKED: ENDBRANCH   7   8
DOCKED: ENDBRANCH   4   6
DOCKED: ENDBRANCH   1   3
DOCKED: BRANCH   1  13
DOCKED: ATOM     13  C   UNL     1      19.301 -10.827  -5.302 -0.40 -0.00    +0.000 C 
DOCKED: ATOM     14  O   UNL     1      19.622 -11.413  -6.374 -0.38 -0.00    +0.000 OA
DOCKED: BRANCH  13  18
DOCKED: ATOM     15  C   UNL     1      15.122 -10.178  -4.406 -0.20 -0.00    +0.000 A 
DOCKED: ATOM     16  C   UNL     1      16.136  -9.530  -3.673 -0.20 -0.00    +0.000 A 
DOCKED: ATOM     17  C   UNL     1      17.484  -9.747  -3.969 -0.23 -0.00    +0.000 A 
DOCKED: ATOM     18  C   UNL     1      17.860 -10.609  -5.010 -0.26 -0.00    +0.000 A 
DOCKED: ATOM     19  C   UNL     1      16.854 -11.269  -5.737 -0.25 -0.00    +0.000 A 
DOCKED: ATOM     20  C   UNL     1      15.505 -11.054  -5.441 -0.24 -0.00    +0.000 A 
DOCKED: BRANCH  15  22
DOCKED: ATOM     21  C   UNL     1      12.790  -9.506  -5.145 -0.13 -0.00    +0.000 C 
DOCKED: ATOM     22  N   UNL     1      13.720  -9.953  -4.100 -0.18 -0.00    +0.000 N 
DOCKED: ATOM     23  C   UNL     1      13.209 -10.169  -2.741 -0.25 -0.00    +0.000 C 
DOCKED: ENDBRANCH  15  22
DOCKED: ENDBRANCH  13  18
DOCKED: ENDBRANCH   1  13
DOCKED: TORSDOF 6
DOCKED: TER
DOCKED: ENDMDL
________________________________________________________________________________


	BEGINNING GENETIC ALGORITHM DOCKING 32 of 100
Run: 32 Seed: 1410078959 1711640381 [ Run 32 of 100 GA/GALS ]
Beginning LAMARCKIAN GENETIC ALGORITHM (LGA), with a maximum of 2500000 energy evaluations.

Final-Value: -11.753


	FINAL GENETIC ALGORITHM DOCKED STATE
	_______________________________________________


Detailed state:  trans 14.717 -10.856 -0.609 quatxyzw -0.247176 0.017463 0.920845 -0.301071 center -0.963 -0.416 0.212 ntor 6 158.7640 -166.2853 77.2492 122.4151 79.6082 -179.9476
State:	 14.717 -10.856  -0.609  -0.259  0.018  0.966 -144.956    158.76 -166.29   77.25  122.42   79.61 -179.95

DOCKED: MODEL       32
DOCKED: USER    Run = 32
DOCKED: USER    DPF = ligand_dock.biased.dpf
DOCKED: USER  
DOCKED: USER    Estimated Free Energy of Binding    =   -8.53 kcal/mol  [=(1)+(2)+(3)-(4)]
DOCKED: USER    Estimated Inhibition Constant, Ki   =  557.99 nM (nanomolar)  [Temperature = 298.15 K]
DOCKED: USER    
DOCKED: USER    (1) Final Intermolecular Energy     =  -10.32 kcal/mol
DOCKED: USER        vdW + Hbond + desolv Energy     =  -10.32 kcal/mol
DOCKED: USER        Electrostatic Energy            =   +0.00 kcal/mol
DOCKED: USER    (2) Final Total Internal Energy     =   -1.43 kcal/mol
DOCKED: USER    (3) Torsional Free Energy           =   +1.79 kcal/mol
DOCKED: USER    (4) Unbound System's Energy  [=(2)] =   -1.43 kcal/mol
DOCKED: USER    
DOCKED: USER    
DOCKED: USER    NEWDPF move ligand.pdbqt
DOCKED: USER    NEWDPF about -0.963000 -0.416000 0.212000
DOCKED: USER    NEWDPF tran0 14.717242 -10.856173 -0.608758
DOCKED: USER    NEWDPF quaternion0 -0.247176 0.017463 0.920845 -0.301071
DOCKED: USER    NEWDPF axisangle0 -0.259202 0.018313 0.965649 -144.956168
DOCKED: USER    NEWDPF quat0 -0.259202 0.018313 0.965649 -144.956168
DOCKED: USER    NEWDPF dihe0 158.76 -166.29 77.25 122.42 79.61 -179.95 
DOCKED: USER  keepresnum = 1 
DOCKED: USER  
DOCKED: REMARK  Name = 
DOCKED: REMARK  10 active torsions:
DOCKED: REMARK  status: ('A' for Active; 'I' for Inactive)
DOCKED: REMARK    1  A    between atoms: C_1  and  N_2
DOCKED: REMARK    2  A    between atoms: N_2  and  C_3
DOCKED: REMARK    3  A    between atoms: N_2  and  C_22
DOCKED: REMARK    4  A    between atoms: C_6  and  C_9
DOCKED: REMARK    5  A    between atoms: C_9  and  C_10
DOCKED: REMARK    6  A    between atoms: C_10  and  C_11
DOCKED: REMARK    7  A    between atoms: C_10  and  C_20
DOCKED: REMARK    8  A    between atoms: C_12  and  C_13
DOCKED: REMARK    9  A    between atoms: C_12  and  C_19
DOCKED: REMARK   10  A    between atoms: C_14  and  C_15
DOCKED: REMARK                            x       y       z     vdW  Elec       q    Type
DOCKED: REMARK                         _______ _______ _______ _____ _____    ______ ____
DOCKED: USER                              x       y       z     vdW  Elec       q    Type
DOCKED: USER                           _______ _______ _______ _____ _____    ______ ____
DOCKED: ROOT
DOCKED: ATOM      1  C   UNL     1      13.598 -11.464   0.361 -0.40 +0.00    +0.000 C 
DOCKED: ATOM      2  C   UNL     1      12.587 -12.019   1.367 -0.38 +0.00    +0.000 C 
DOCKED: ENDROOT
DOCKED: BRANCH   1   3
DOCKED: ATOM      3  C   UNL     1      15.011 -11.701   0.858 -0.44 +0.00    +0.000 C 
DOCKED: ATOM      4  C   UNL     1      16.130 -11.485   0.136 -0.41 +0.00    +0.000 C 
DOCKED: ATOM      5  C   UNL     1      16.078 -10.955  -1.280 -0.32 -0.00    +0.000 C 
DOCKED: BRANCH   4   6
DOCKED: ATOM      6  C   UNL     1      17.439 -11.741   0.792 -0.50 +0.00    +0.000 C 
DOCKED: ATOM      7  C   UNL     1      17.982 -10.906   1.690 -0.51 -0.00    +0.000 C 
DOCKED: BRANCH   7   8
DOCKED: ATOM      8  C   UNL     1      19.281 -11.151   2.351 -0.68 -0.00    +0.000 C 
DOCKED: ATOM      9  N   UNL     1      19.878 -10.206   3.245 -0.62 -0.00    +0.000 N 
DOCKED: ATOM     10  O   UNL     1      21.016 -10.522   3.905 -0.91 -0.00    +0.000 OA
DOCKED: ATOM     11  O   UNL     1      19.890 -12.224   2.094 -1.80 -0.00    +0.000 OA
DOCKED: ATOM     12  H   UNL     1      19.460  -9.324   3.381 -0.53 -0.00    +0.000 HD
DOCKED: ENDBRANCH   7   8
DOCKED: ENDBRANCH   4   6
DOCKED: ENDBRANCH   1   3
DOCKED: BRANCH   1  13
DOCKED: ATOM     13  C   UNL     1      13.348  -9.985   0.142 -0.22 +0.00    +0.000 C 
DOCKED: ATOM     14  O   UNL     1      12.786  -9.610  -0.926 -0.19 -0.00    +0.000 OA
DOCKED: BRANCH  13  18
DOCKED: ATOM     15  C   UNL     1      14.553  -7.014   3.042 -0.26 +0.00    +0.000 A 
DOCKED: ATOM     16  C   UNL     1      14.178  -8.313   3.438 -0.26 +0.00    +0.000 A 
DOCKED: ATOM     17  C   UNL     1      13.789  -9.266   2.495 -0.22 +0.00    +0.000 A 
DOCKED: ATOM     18  C   UNL     1      13.771  -8.955   1.126 -0.17 +0.00    +0.000 A 
DOCKED: ATOM     19  C   UNL     1      14.132  -7.658   0.724 -0.21 -0.00    +0.000 A 
DOCKED: ATOM     20  C   UNL     1      14.521  -6.703   1.668 -0.16 +0.00    +0.000 A 
DOCKED: BRANCH  15  22
DOCKED: ATOM     21  C   UNL     1      14.972  -6.349   5.454 -0.44 +0.00    +0.000 C 
DOCKED: ATOM     22  N   UNL     1      14.959  -6.022   4.022 -0.36 +0.00    +0.000 N 
DOCKED: ATOM     23  C   UNL     1      15.363  -4.677   3.598 -0.36 -0.00    +0.000 C 
DOCKED: ENDBRANCH  15  22
DOCKED: ENDBRANCH  13  18
DOCKED: ENDBRANCH   1  13
DOCKED: TORSDOF 6
DOCKED: TER
DOCKED: ENDMDL
________________________________________________________________________________


	BEGINNING GENETIC ALGORITHM DOCKING 33 of 100
Run: 33 Seed: 1250063957 2097873140 [ Run 33 of 100 GA/GALS ]
Beginning LAMARCKIAN GENETIC ALGORITHM (LGA), with a maximum of 2500000 energy evaluations.

Final-Value: -12.398


	FINAL GENETIC ALGORITHM DOCKED STATE
	_______________________________________________


Detailed state:  trans 17.691 -9.020 -2.089 quatxyzw -0.333392 -0.763556 0.542338 0.108167 center -0.963 -0.416 0.212 ntor 6 -105.5804 138.1083 128.8450 -100.1667 -18.6574 -136.7676
State:	 17.691  -9.020  -2.089  -0.335 -0.768  0.546 167.581   -105.58  138.11  128.84 -100.17  -18.66 -136.77

DOCKED: MODEL       33
DOCKED: USER    Run = 33
DOCKED: USER    DPF = ligand_dock.biased.dpf
DOCKED: USER  
DOCKED: USER    Estimated Free Energy of Binding    =   -9.17 kcal/mol  [=(1)+(2)+(3)-(4)]
DOCKED: USER    Estimated Inhibition Constant, Ki   =  189.75 nM (nanomolar)  [Temperature = 298.15 K]
DOCKED: USER    
DOCKED: USER    (1) Final Intermolecular Energy     =  -10.96 kcal/mol
DOCKED: USER        vdW + Hbond + desolv Energy     =  -10.96 kcal/mol
DOCKED: USER        Electrostatic Energy            =   +0.00 kcal/mol
DOCKED: USER    (2) Final Total Internal Energy     =   -1.44 kcal/mol
DOCKED: USER    (3) Torsional Free Energy           =   +1.79 kcal/mol
DOCKED: USER    (4) Unbound System's Energy  [=(2)] =   -1.44 kcal/mol
DOCKED: USER    
DOCKED: USER    
DOCKED: USER    NEWDPF move ligand.pdbqt
DOCKED: USER    NEWDPF about -0.963000 -0.416000 0.212000
DOCKED: USER    NEWDPF tran0 17.690625 -9.020244 -2.088713
DOCKED: USER    NEWDPF quaternion0 -0.333392 -0.763556 0.542338 0.108167
DOCKED: USER    NEWDPF axisangle0 -0.335360 -0.768063 0.545539 167.580637
DOCKED: USER    NEWDPF quat0 -0.335360 -0.768063 0.545539 167.580637
DOCKED: USER    NEWDPF dihe0 -105.58 138.11 128.84 -100.17 -18.66 -136.77 
DOCKED: USER  keepresnum = 1 
DOCKED: USER  
DOCKED: REMARK  Name = 
DOCKED: REMARK  10 active torsions:
DOCKED: REMARK  status: ('A' for Active; 'I' for Inactive)
DOCKED: REMARK    1  A    between atoms: C_1  and  N_2
DOCKED: REMARK    2  A    between atoms: N_2  and  C_3
DOCKED: REMARK    3  A    between atoms: N_2  and  C_22
DOCKED: REMARK    4  A    between atoms: C_6  and  C_9
DOCKED: REMARK    5  A    between atoms: C_9  and  C_10
DOCKED: REMARK    6  A    between atoms: C_10  and  C_11
DOCKED: REMARK    7  A    between atoms: C_10  and  C_20
DOCKED: REMARK    8  A    between atoms: C_12  and  C_13
DOCKED: REMARK    9  A    between atoms: C_12  and  C_19
DOCKED: REMARK   10  A    between atoms: C_14  and  C_15
DOCKED: REMARK                            x       y       z     vdW  Elec       q    Type
DOCKED: REMARK                         _______ _______ _______ _____ _____    ______ ____
DOCKED: USER                              x       y       z     vdW  Elec       q    Type
DOCKED: USER                           _______ _______ _______ _____ _____    ______ ____
DOCKED: ROOT
DOCKED: ATOM      1  C   UNL     1      18.086  -9.944  -3.334 -0.27 -0.00    +0.000 C 
DOCKED: ATOM      2  C   UNL     1      18.462 -10.908  -4.462 -0.28 -0.00    +0.000 C 
DOCKED: ENDROOT
DOCKED: BRANCH   1   3
DOCKED: ATOM      3  C   UNL     1      18.734 -10.385  -2.036 -0.30 -0.00    +0.000 C 
DOCKED: ATOM      4  C   UNL     1      20.047 -10.267  -1.750 -0.51 -0.00    +0.000 C 
DOCKED: ATOM      5  C   UNL     1      21.025  -9.653  -2.726 -0.53 -0.00    +0.000 C 
DOCKED: BRANCH   4   6
DOCKED: ATOM      6  C   UNL     1      20.509 -10.722  -0.413 -0.63 -0.00    +0.000 C 
DOCKED: ATOM      7  C   UNL     1      19.703 -10.782   0.658 -0.62 -0.00    +0.000 C 
DOCKED: BRANCH   7   8
DOCKED: ATOM      8  C   UNL     1      20.150 -11.236   1.991 -0.75 -0.00    +0.000 C 
DOCKED: ATOM      9  N   UNL     1      20.073 -10.401   3.152 -0.65 -0.00    +0.000 N 
DOCKED: ATOM     10  O   UNL     1      20.398 -10.898   4.368 -0.94 -0.00    +0.000 OA
DOCKED: ATOM     11  O   UNL     1      20.639 -12.392   2.097 -1.84 -0.00    +0.000 OA
DOCKED: ATOM     12  H   UNL     1      19.782  -9.463   3.065 -0.55 -0.00    +0.000 HD
DOCKED: ENDBRANCH   7   8
DOCKED: ENDBRANCH   4   6
DOCKED: ENDBRANCH   1   3
DOCKED: BRANCH   1  13
DOCKED: ATOM     13  C   UNL     1      16.578  -9.886  -3.189 -0.25 -0.00    +0.000 C 
DOCKED: ATOM     14  O   UNL     1      15.884  -9.480  -4.163 -0.19 -0.00    +0.000 OA
DOCKED: BRANCH  13  18
DOCKED: ATOM     15  C   UNL     1      14.581 -10.919   0.504 -0.28 +0.00    +0.000 A 
DOCKED: ATOM     16  C   UNL     1      14.709  -9.578   0.092 -0.23 +0.00    +0.000 A 
DOCKED: ATOM     17  C   UNL     1      15.357  -9.253  -1.102 -0.17 -0.00    +0.000 A 
DOCKED: ATOM     18  C   UNL     1      15.888 -10.257  -1.926 -0.25 -0.00    +0.000 A 
DOCKED: ATOM     19  C   UNL     1      15.775 -11.597  -1.516 -0.08 +0.00    +0.000 A 
DOCKED: ATOM     20  C   UNL     1      15.129 -11.923  -0.321 -0.40 +0.00    +0.000 A 
DOCKED: BRANCH  15  22
DOCKED: ATOM     21  C   UNL     1      12.485 -11.624   1.747 -0.41 +0.00    +0.000 C 
DOCKED: ATOM     22  N   UNL     1      13.908 -11.259   1.745 -0.38 +0.00    +0.000 N 
DOCKED: ATOM     23  C   UNL     1      14.637 -11.242   3.018 -0.47 +0.00    +0.000 C 
DOCKED: ENDBRANCH  15  22
DOCKED: ENDBRANCH  13  18
DOCKED: ENDBRANCH   1  13
DOCKED: TORSDOF 6
DOCKED: TER
DOCKED: ENDMDL
________________________________________________________________________________


	BEGINNING GENETIC ALGORITHM DOCKING 34 of 100
Run: 34 Seed: 1650484876 1407581979 [ Run 34 of 100 GA/GALS ]
Beginning LAMARCKIAN GENETIC ALGORITHM (LGA), with a maximum of 2500000 energy evaluations.

Final-Value: -12.993


	FINAL GENETIC ALGORITHM DOCKED STATE
	_______________________________________________


Detailed state:  trans 21.231 -8.763 -3.078 quatxyzw -0.591520 -0.586473 0.539794 0.121553 center -0.963 -0.416 0.212 ntor 6 168.8458 57.8750 96.4231 -99.1938 82.6162 135.2740
State:	 21.231  -8.763  -3.078  -0.596 -0.591  0.544 166.036    168.85   57.87   96.42  -99.19   82.62  135.27

DOCKED: MODEL       34
DOCKED: USER    Run = 34
DOCKED: USER    DPF = ligand_dock.biased.dpf
DOCKED: USER  
DOCKED: USER    Estimated Free Energy of Binding    =  -10.13 kcal/mol  [=(1)+(2)+(3)-(4)]
DOCKED: USER    Estimated Inhibition Constant, Ki   =   37.85 nM (nanomolar)  [Temperature = 298.15 K]
DOCKED: USER    
DOCKED: USER    (1) Final Intermolecular Energy     =  -11.92 kcal/mol
DOCKED: USER        vdW + Hbond + desolv Energy     =  -11.92 kcal/mol
DOCKED: USER        Electrostatic Energy            =   +0.00 kcal/mol
DOCKED: USER    (2) Final Total Internal Energy     =   -1.08 kcal/mol
DOCKED: USER    (3) Torsional Free Energy           =   +1.79 kcal/mol
DOCKED: USER    (4) Unbound System's Energy  [=(2)] =   -1.08 kcal/mol
DOCKED: USER    
DOCKED: USER    
DOCKED: USER    NEWDPF move ligand.pdbqt
DOCKED: USER    NEWDPF about -0.963000 -0.416000 0.212000
DOCKED: USER    NEWDPF tran0 21.231418 -8.762721 -3.078152
DOCKED: USER    NEWDPF quaternion0 -0.591520 -0.586473 0.539794 0.121553
DOCKED: USER    NEWDPF axisangle0 -0.595939 -0.590855 0.543826 166.036479
DOCKED: USER    NEWDPF quat0 -0.595939 -0.590855 0.543826 166.036479
DOCKED: USER    NEWDPF dihe0 168.85 57.87 96.42 -99.19 82.62 135.27 
DOCKED: USER  keepresnum = 1 
DOCKED: USER  
DOCKED: REMARK  Name = 
DOCKED: REMARK  10 active torsions:
DOCKED: REMARK  status: ('A' for Active; 'I' for Inactive)
DOCKED: REMARK    1  A    between atoms: C_1  and  N_2
DOCKED: REMARK    2  A    between atoms: N_2  and  C_3
DOCKED: REMARK    3  A    between atoms: N_2  and  C_22
DOCKED: REMARK    4  A    between atoms: C_6  and  C_9
DOCKED: REMARK    5  A    between atoms: C_9  and  C_10
DOCKED: REMARK    6  A    between atoms: C_10  and  C_11
DOCKED: REMARK    7  A    between atoms: C_10  and  C_20
DOCKED: REMARK    8  A    between atoms: C_12  and  C_13
DOCKED: REMARK    9  A    between atoms: C_12  and  C_19
DOCKED: REMARK   10  A    between atoms: C_14  and  C_15
DOCKED: REMARK                            x       y       z     vdW  Elec       q    Type
DOCKED: REMARK                         _______ _______ _______ _____ _____    ______ ____
DOCKED: USER                              x       y       z     vdW  Elec       q    Type
DOCKED: USER                           _______ _______ _______ _____ _____    ______ ____
DOCKED: ROOT
DOCKED: ATOM      1  C   UNL     1      21.455 -10.013  -4.051 -0.47 -0.00    +0.000 C 
DOCKED: ATOM      2  C   UNL     1      21.610 -11.264  -4.920 -0.55 -0.00    +0.000 C 
DOCKED: ENDROOT
DOCKED: BRANCH   1   3
DOCKED: ATOM      3  C   UNL     1      21.392 -10.401  -2.587 -0.56 -0.00    +0.000 C 
DOCKED: ATOM      4  C   UNL     1      21.367  -9.529  -1.557 -0.60 -0.00    +0.000 C 
DOCKED: ATOM      5  C   UNL     1      21.388  -8.033  -1.778 -0.49 -0.00    +0.000 C 
DOCKED: BRANCH   4   6
DOCKED: ATOM      6  C   UNL     1      21.272 -10.082  -0.182 -0.71 -0.00    +0.000 C 
DOCKED: ATOM      7  C   UNL     1      20.275 -10.888   0.215 -0.66 -0.00    +0.000 C 
DOCKED: BRANCH   7   8
DOCKED: ATOM      8  C   UNL     1      20.172 -11.447   1.578 -0.75 -0.00    +0.000 C 
DOCKED: ATOM      9  N   UNL     1      20.482 -10.680   2.748 -0.65 -0.00    +0.000 N 
DOCKED: ATOM     10  O   UNL     1      20.272 -11.204   3.978 -1.19 -0.00    +0.000 OA
DOCKED: ATOM     11  O   UNL     1      19.820 -12.650   1.708 -1.63 -0.00    +0.000 OA
DOCKED: ATOM     12  H   UNL     1      20.849  -9.770   2.656 -0.59 -0.00    +0.000 HD
DOCKED: ENDBRANCH   7   8
DOCKED: ENDBRANCH   4   6
DOCKED: ENDBRANCH   1   3
DOCKED: BRANCH   1  13
DOCKED: ATOM     13  C   UNL     1      20.208  -9.254  -4.460 -0.31 -0.00    +0.000 C 
DOCKED: ATOM     14  O   UNL     1      20.187  -7.997  -4.334 -0.24 -0.00    +0.000 OA
DOCKED: BRANCH  13  18
DOCKED: ATOM     15  C   UNL     1      16.662 -11.263  -5.903 -0.27 -0.00    +0.000 A 
DOCKED: ATOM     16  C   UNL     1      16.707 -10.692  -4.616 -0.11 -0.00    +0.000 A 
DOCKED: ATOM     17  C   UNL     1      17.857 -10.046  -4.157 -0.25 -0.00    +0.000 A 
DOCKED: ATOM     18  C   UNL     1      18.994  -9.942  -4.973 -0.25 -0.00    +0.000 A 
DOCKED: ATOM     19  C   UNL     1      18.962 -10.519  -6.254 -0.29 -0.00    +0.000 A 
DOCKED: ATOM     20  C   UNL     1      17.812 -11.167  -6.713 -0.33 -0.00    +0.000 A 
DOCKED: BRANCH  15  22
DOCKED: ATOM     21  C   UNL     1      14.212 -11.858  -5.620 -0.30 -0.00    +0.000 C 
DOCKED: ATOM     22  N   UNL     1      15.467 -11.934  -6.381 -0.31 -0.00    +0.000 N 
DOCKED: ATOM     23  C   UNL     1      15.491 -12.701  -7.632 -0.41 -0.00    +0.000 C 
DOCKED: ENDBRANCH  15  22
DOCKED: ENDBRANCH  13  18
DOCKED: ENDBRANCH   1  13
DOCKED: TORSDOF 6
DOCKED: TER
DOCKED: ENDMDL
________________________________________________________________________________


	BEGINNING GENETIC ALGORITHM DOCKING 35 of 100
Run: 35 Seed: 1932429494 1991554533 [ Run 35 of 100 GA/GALS ]
Beginning LAMARCKIAN GENETIC ALGORITHM (LGA), with a maximum of 2500000 energy evaluations.

Final-Value: -12.617


	FINAL GENETIC ALGORITHM DOCKED STATE
	_______________________________________________


Detailed state:  trans 19.696 -9.122 -2.911 quatxyzw -0.495343 -0.606243 0.619906 0.053111 center -0.963 -0.416 0.212 ntor 6 122.7557 121.9198 94.5371 22.5130 52.5113 -177.3318
State:	 19.696  -9.122  -2.911  -0.496 -0.607  0.621 173.911    122.76  121.92   94.54   22.51   52.51 -177.33

DOCKED: MODEL       35
DOCKED: USER    Run = 35
DOCKED: USER    DPF = ligand_dock.biased.dpf
DOCKED: USER  
DOCKED: USER    Estimated Free Energy of Binding    =   -9.62 kcal/mol  [=(1)+(2)+(3)-(4)]
DOCKED: USER    Estimated Inhibition Constant, Ki   =   89.44 nM (nanomolar)  [Temperature = 298.15 K]
DOCKED: USER    
DOCKED: USER    (1) Final Intermolecular Energy     =  -11.41 kcal/mol
DOCKED: USER        vdW + Hbond + desolv Energy     =  -11.41 kcal/mol
DOCKED: USER        Electrostatic Energy            =   +0.00 kcal/mol
DOCKED: USER    (2) Final Total Internal Energy     =   -1.21 kcal/mol
DOCKED: USER    (3) Torsional Free Energy           =   +1.79 kcal/mol
DOCKED: USER    (4) Unbound System's Energy  [=(2)] =   -1.21 kcal/mol
DOCKED: USER    
DOCKED: USER    
DOCKED: USER    NEWDPF move ligand.pdbqt
DOCKED: USER    NEWDPF about -0.963000 -0.416000 0.212000
DOCKED: USER    NEWDPF tran0 19.696383 -9.122204 -2.910873
DOCKED: USER    NEWDPF quaternion0 -0.495343 -0.606243 0.619906 0.053111
DOCKED: USER    NEWDPF axisangle0 -0.496043 -0.607100 0.620783 173.911028
DOCKED: USER    NEWDPF quat0 -0.496043 -0.607100 0.620783 173.911028
DOCKED: USER    NEWDPF dihe0 122.76 121.92 94.54 22.51 52.51 -177.33 
DOCKED: USER  keepresnum = 1 
DOCKED: USER  
DOCKED: REMARK  Name = 
DOCKED: REMARK  10 active torsions:
DOCKED: REMARK  status: ('A' for Active; 'I' for Inactive)
DOCKED: REMARK    1  A    between atoms: C_1  and  N_2
DOCKED: REMARK    2  A    between atoms: N_2  and  C_3
DOCKED: REMARK    3  A    between atoms: N_2  and  C_22
DOCKED: REMARK    4  A    between atoms: C_6  and  C_9
DOCKED: REMARK    5  A    between atoms: C_9  and  C_10
DOCKED: REMARK    6  A    between atoms: C_10  and  C_11
DOCKED: REMARK    7  A    between atoms: C_10  and  C_20
DOCKED: REMARK    8  A    between atoms: C_12  and  C_13
DOCKED: REMARK    9  A    between atoms: C_12  and  C_19
DOCKED: REMARK   10  A    between atoms: C_14  and  C_15
DOCKED: REMARK                            x       y       z     vdW  Elec       q    Type
DOCKED: REMARK                         _______ _______ _______ _____ _____    ______ ____
DOCKED: USER                              x       y       z     vdW  Elec       q    Type
DOCKED: USER                           _______ _______ _______ _____ _____    ______ ____
DOCKED: ROOT
DOCKED: ATOM      1  C   UNL     1      19.694 -10.383  -3.896 -0.41 -0.00    +0.000 C 
DOCKED: ATOM      2  C   UNL     1      19.654 -11.645  -4.763 -0.50 -0.00    +0.000 C 
DOCKED: ENDROOT
DOCKED: BRANCH   1   3
DOCKED: ATOM      3  C   UNL     1      20.061 -10.742  -2.470 -0.46 -0.00    +0.000 C 
DOCKED: ATOM      4  C   UNL     1      20.820  -9.982  -1.653 -0.60 -0.00    +0.000 C 
DOCKED: ATOM      5  C   UNL     1      21.383  -8.650  -2.097 -0.51 -0.00    +0.000 C 
DOCKED: BRANCH   4   6
DOCKED: ATOM      6  C   UNL     1      21.056 -10.472  -0.270 -0.70 -0.00    +0.000 C 
DOCKED: ATOM      7  C   UNL     1      20.062 -10.719   0.597 -0.65 -0.00    +0.000 C 
DOCKED: BRANCH   7   8
DOCKED: ATOM      8  C   UNL     1      20.285 -11.209   1.973 -0.76 -0.00    +0.000 C 
DOCKED: ATOM      9  N   UNL     1      20.166 -10.359   3.119 -0.62 -0.00    +0.000 N 
DOCKED: ATOM     10  O   UNL     1      20.277 -10.879   4.364 -0.93 -0.00    +0.000 OA
DOCKED: ATOM     11  O   UNL     1      20.614 -12.415   2.133 -1.81 -0.00    +0.000 OA
DOCKED: ATOM     12  H   UNL     1      20.003  -9.394   3.002 -0.57 -0.00    +0.000 HD
DOCKED: ENDBRANCH   7   8
DOCKED: ENDBRANCH   4   6
DOCKED: ENDBRANCH   1   3
DOCKED: BRANCH   1  13
DOCKED: ATOM     13  C   UNL     1      18.350  -9.683  -3.945 -0.27 -0.00    +0.000 C 
DOCKED: ATOM     14  O   UNL     1      18.215  -8.664  -4.680 -0.20 -0.00    +0.000 OA
DOCKED: BRANCH  13  18
DOCKED: ATOM     15  C   UNL     1      14.948 -10.975  -1.610 -0.29 -0.00    +0.000 A 
DOCKED: ATOM     16  C   UNL     1      14.831 -10.713  -2.989 -0.26 -0.00    +0.000 A 
DOCKED: ATOM     17  C   UNL     1      15.935 -10.295  -3.736 -0.21 -0.00    +0.000 A 
DOCKED: ATOM     18  C   UNL     1      17.192 -10.135  -3.130 -0.23 -0.00    +0.000 A 
DOCKED: ATOM     19  C   UNL     1      17.313 -10.382  -1.752 -0.12 -0.00    +0.000 A 
DOCKED: ATOM     20  C   UNL     1      16.209 -10.799  -1.004 -0.28 -0.00    +0.000 A 
DOCKED: BRANCH  15  22
DOCKED: ATOM     21  C   UNL     1      12.463 -10.876  -1.113 -0.26 +0.00    +0.000 C 
DOCKED: ATOM     22  N   UNL     1      13.802 -11.410  -0.832 -0.34 +0.00    +0.000 N 
DOCKED: ATOM     23  C   UNL     1      13.961 -12.391   0.248 -0.44 +0.00    +0.000 C 
DOCKED: ENDBRANCH  15  22
DOCKED: ENDBRANCH  13  18
DOCKED: ENDBRANCH   1  13
DOCKED: TORSDOF 6
DOCKED: TER
DOCKED: ENDMDL
________________________________________________________________________________


	BEGINNING GENETIC ALGORITHM DOCKING 36 of 100
Run: 36 Seed: 1054741826 2044786664 [ Run 36 of 100 GA/GALS ]
Beginning LAMARCKIAN GENETIC ALGORITHM (LGA), with a maximum of 2500000 energy evaluations.

Final-Value: -13.136


	FINAL GENETIC ALGORITHM DOCKED STATE
	_______________________________________________


Detailed state:  trans 19.344 -11.210 -3.673 quatxyzw 0.055188 -0.741213 0.028499 0.668390 center -0.963 -0.416 0.212 ntor 6 60.3605 -122.0557 -143.7338 -89.1343 43.7153 93.9674
State:	 19.344 -11.210  -3.673   0.074 -0.997  0.038 96.114     60.36 -122.06 -143.73  -89.13   43.72   93.97

DOCKED: MODEL       36
DOCKED: USER    Run = 36
DOCKED: USER    DPF = ligand_dock.biased.dpf
DOCKED: USER  
DOCKED: USER    Estimated Free Energy of Binding    =  -10.32 kcal/mol  [=(1)+(2)+(3)-(4)]
DOCKED: USER    Estimated Inhibition Constant, Ki   =   27.31 nM (nanomolar)  [Temperature = 298.15 K]
DOCKED: USER    
DOCKED: USER    (1) Final Intermolecular Energy     =  -12.11 kcal/mol
DOCKED: USER        vdW + Hbond + desolv Energy     =  -12.11 kcal/mol
DOCKED: USER        Electrostatic Energy            =   +0.00 kcal/mol
DOCKED: USER    (2) Final Total Internal Energy     =   -1.03 kcal/mol
DOCKED: USER    (3) Torsional Free Energy           =   +1.79 kcal/mol
DOCKED: USER    (4) Unbound System's Energy  [=(2)] =   -1.03 kcal/mol
DOCKED: USER    
DOCKED: USER    
DOCKED: USER    NEWDPF move ligand.pdbqt
DOCKED: USER    NEWDPF about -0.963000 -0.416000 0.212000
DOCKED: USER    NEWDPF tran0 19.343558 -11.210055 -3.672669
DOCKED: USER    NEWDPF quaternion0 0.055188 -0.741213 0.028499 0.668390
DOCKED: USER    NEWDPF axisangle0 0.074196 -0.996507 0.038314 96.114140
DOCKED: USER    NEWDPF quat0 0.074196 -0.996507 0.038314 96.114140
DOCKED: USER    NEWDPF dihe0 60.36 -122.06 -143.73 -89.13 43.72 93.97 
DOCKED: USER  keepresnum = 1 
DOCKED: USER  
DOCKED: REMARK  Name = 
DOCKED: REMARK  10 active torsions:
DOCKED: REMARK  status: ('A' for Active; 'I' for Inactive)
DOCKED: REMARK    1  A    between atoms: C_1  and  N_2
DOCKED: REMARK    2  A    between atoms: N_2  and  C_3
DOCKED: REMARK    3  A    between atoms: N_2  and  C_22
DOCKED: REMARK    4  A    between atoms: C_6  and  C_9
DOCKED: REMARK    5  A    between atoms: C_9  and  C_10
DOCKED: REMARK    6  A    between atoms: C_10  and  C_11
DOCKED: REMARK    7  A    between atoms: C_10  and  C_20
DOCKED: REMARK    8  A    between atoms: C_12  and  C_13
DOCKED: REMARK    9  A    between atoms: C_12  and  C_19
DOCKED: REMARK   10  A    between atoms: C_14  and  C_15
DOCKED: REMARK                            x       y       z     vdW  Elec       q    Type
DOCKED: REMARK                         _______ _______ _______ _____ _____    ______ ____
DOCKED: USER                              x       y       z     vdW  Elec       q    Type
DOCKED: USER                           _______ _______ _______ _____ _____    ______ ____
DOCKED: ROOT
DOCKED: ATOM      1  C   UNL     1      20.530 -10.164  -3.916 -0.46 -0.00    +0.000 C 
DOCKED: ATOM      2  C   UNL     1      21.722  -9.218  -4.084 -0.35 -0.00    +0.000 C 
DOCKED: ENDROOT
DOCKED: BRANCH   1   3
DOCKED: ATOM      3  C   UNL     1      20.460 -10.664  -2.487 -0.48 -0.00    +0.000 C 
DOCKED: ATOM      4  C   UNL     1      19.333 -10.740  -1.749 -0.45 -0.00    +0.000 C 
DOCKED: ATOM      5  C   UNL     1      17.987 -10.330  -2.304 -0.20 -0.00    +0.000 C 
DOCKED: BRANCH   4   6
DOCKED: ATOM      6  C   UNL     1      19.440 -11.286  -0.372 -0.53 -0.00    +0.000 C 
DOCKED: ATOM      7  C   UNL     1      20.167 -10.701   0.593 -0.66 -0.00    +0.000 C 
DOCKED: BRANCH   7   8
DOCKED: ATOM      8  C   UNL     1      20.279 -11.234   1.966 -0.76 -0.00    +0.000 C 
DOCKED: ATOM      9  N   UNL     1      20.266 -10.388   3.121 -0.63 -0.00    +0.000 N 
DOCKED: ATOM     10  O   UNL     1      20.266 -10.932   4.361 -0.95 -0.00    +0.000 OA
DOCKED: ATOM     11  O   UNL     1      20.414 -12.478   2.117 -1.74 -0.00    +0.000 OA
DOCKED: ATOM     12  H   UNL     1      20.257  -9.409   3.014 -0.57 -0.00    +0.000 HD
DOCKED: ENDBRANCH   7   8
DOCKED: ENDBRANCH   4   6
DOCKED: ENDBRANCH   1   3
DOCKED: BRANCH   1  13
DOCKED: ATOM     13  C   UNL     1      20.653 -11.323  -4.885 -0.53 -0.00    +0.000 C 
DOCKED: ATOM     14  O   UNL     1      19.874 -12.311  -4.762 -0.72 -0.00    +0.000 OA
DOCKED: BRANCH  13  18
DOCKED: ATOM     15  C   UNL     1      23.678 -11.440  -7.972 -0.39 -0.00    +0.000 A 
DOCKED: ATOM     16  C   UNL     1      23.653 -12.394  -6.937 -0.37 -0.00    +0.000 A 
DOCKED: ATOM     17  C   UNL     1      22.672 -12.349  -5.943 -0.41 -0.00    +0.000 A 
DOCKED: ATOM     18  C   UNL     1      21.682 -11.354  -5.957 -0.40 -0.00    +0.000 A 
DOCKED: ATOM     19  C   UNL     1      21.708 -10.391  -6.980 -0.29 -0.00    +0.000 A 
DOCKED: ATOM     20  C   UNL     1      22.689 -10.435  -7.974 -0.25 -0.00    +0.000 A 
DOCKED: BRANCH  15  22
DOCKED: ATOM     21  C   UNL     1      25.878 -10.617  -8.931 -0.34 -0.00    +0.000 C 
DOCKED: ATOM     22  N   UNL     1      24.696 -11.486  -9.006 -0.32 -0.00    +0.000 N 
DOCKED: ATOM     23  C   UNL     1      24.562 -12.404 -10.144 -0.31 -0.00    +0.000 C 
DOCKED: ENDBRANCH  15  22
DOCKED: ENDBRANCH  13  18
DOCKED: ENDBRANCH   1  13
DOCKED: TORSDOF 6
DOCKED: TER
DOCKED: ENDMDL
________________________________________________________________________________


	BEGINNING GENETIC ALGORITHM DOCKING 37 of 100
Run: 37 Seed: 1389985276 1782772494 [ Run 37 of 100 GA/GALS ]
Beginning LAMARCKIAN GENETIC ALGORITHM (LGA), with a maximum of 2500000 energy evaluations.

Final-Value: -13.233


	FINAL GENETIC ALGORITHM DOCKED STATE
	_______________________________________________


Detailed state:  trans 19.340 -11.034 -3.273 quatxyzw 0.052991 -0.785888 0.004766 0.616075 center -0.963 -0.416 0.212 ntor 6 -127.4089 -176.9568 -110.2181 80.8036 57.9420 110.0477
State:	 19.340 -11.034  -3.273   0.067 -0.998  0.006 103.940   -127.41 -176.96 -110.22   80.80   57.94  110.05

DOCKED: MODEL       37
DOCKED: USER    Run = 37
DOCKED: USER    DPF = ligand_dock.biased.dpf
DOCKED: USER  
DOCKED: USER    Estimated Free Energy of Binding    =  -10.41 kcal/mol  [=(1)+(2)+(3)-(4)]
DOCKED: USER    Estimated Inhibition Constant, Ki   =   23.57 nM (nanomolar)  [Temperature = 298.15 K]
DOCKED: USER    
DOCKED: USER    (1) Final Intermolecular Energy     =  -12.20 kcal/mol
DOCKED: USER        vdW + Hbond + desolv Energy     =  -12.20 kcal/mol
DOCKED: USER        Electrostatic Energy            =   +0.00 kcal/mol
DOCKED: USER    (2) Final Total Internal Energy     =   -1.04 kcal/mol
DOCKED: USER    (3) Torsional Free Energy           =   +1.79 kcal/mol
DOCKED: USER    (4) Unbound System's Energy  [=(2)] =   -1.04 kcal/mol
DOCKED: USER    
DOCKED: USER    
DOCKED: USER    NEWDPF move ligand.pdbqt
DOCKED: USER    NEWDPF about -0.963000 -0.416000 0.212000
DOCKED: USER    NEWDPF tran0 19.339541 -11.034271 -3.273365
DOCKED: USER    NEWDPF quaternion0 0.052991 -0.785888 0.004766 0.616075
DOCKED: USER    NEWDPF axisangle0 0.067275 -0.997716 0.006051 103.939836
DOCKED: USER    NEWDPF quat0 0.067275 -0.997716 0.006051 103.939836
DOCKED: USER    NEWDPF dihe0 -127.41 -176.96 -110.22 80.80 57.94 110.05 
DOCKED: USER  keepresnum = 1 
DOCKED: USER  
DOCKED: REMARK  Name = 
DOCKED: REMARK  10 active torsions:
DOCKED: REMARK  status: ('A' for Active; 'I' for Inactive)
DOCKED: REMARK    1  A    between atoms: C_1  and  N_2
DOCKED: REMARK    2  A    between atoms: N_2  and  C_3
DOCKED: REMARK    3  A    between atoms: N_2  and  C_22
DOCKED: REMARK    4  A    between atoms: C_6  and  C_9
DOCKED: REMARK    5  A    between atoms: C_9  and  C_10
DOCKED: REMARK    6  A    between atoms: C_10  and  C_11
DOCKED: REMARK    7  A    between atoms: C_10  and  C_20
DOCKED: REMARK    8  A    between atoms: C_12  and  C_13
DOCKED: REMARK    9  A    between atoms: C_12  and  C_19
DOCKED: REMARK   10  A    between atoms: C_14  and  C_15
DOCKED: REMARK                            x       y       z     vdW  Elec       q    Type
DOCKED: REMARK                         _______ _______ _______ _____ _____    ______ ____
DOCKED: USER                              x       y       z     vdW  Elec       q    Type
DOCKED: USER                           _______ _______ _______ _____ _____    ______ ____
DOCKED: ROOT
DOCKED: ATOM      1  C   UNL     1      20.461  -9.954  -3.641 -0.45 -0.00    +0.000 C 
DOCKED: ATOM      2  C   UNL     1      21.601  -8.976  -3.939 -0.36 -0.00    +0.000 C 
DOCKED: ENDROOT
DOCKED: BRANCH   1   3
DOCKED: ATOM      3  C   UNL     1      20.601 -10.503  -2.235 -0.54 -0.00    +0.000 C 
DOCKED: ATOM      4  C   UNL     1      19.572 -10.884  -1.449 -0.47 -0.00    +0.000 C 
DOCKED: ATOM      5  C   UNL     1      18.137 -10.808  -1.920 -0.30 -0.00    +0.000 C 
DOCKED: BRANCH   4   6
DOCKED: ATOM      6  C   UNL     1      19.892 -11.432  -0.105 -0.49 -0.00    +0.000 C 
DOCKED: ATOM      7  C   UNL     1      19.877 -10.687   1.010 -0.65 -0.00    +0.000 C 
DOCKED: BRANCH   7   8
DOCKED: ATOM      8  C   UNL     1      20.190 -11.222   2.352 -0.76 -0.00    +0.000 C 
DOCKED: ATOM      9  N   UNL     1      20.466 -10.373   3.471 -0.64 -0.00    +0.000 N 
DOCKED: ATOM     10  O   UNL     1      20.645 -10.908   4.701 -0.65 -0.00    +0.000 OA
DOCKED: ATOM     11  O   UNL     1      20.238 -12.472   2.502 -1.86 -0.00    +0.000 OA
DOCKED: ATOM     12  H   UNL     1      20.526  -9.397   3.346 -0.59 -0.00    +0.000 HD
DOCKED: ENDBRANCH   7   8
DOCKED: ENDBRANCH   4   6
DOCKED: ENDBRANCH   1   3
DOCKED: BRANCH   1  13
DOCKED: ATOM     13  C   UNL     1      20.468 -11.077  -4.660 -0.51 -0.00    +0.000 C 
DOCKED: ATOM     14  O   UNL     1      19.534 -11.927  -4.641 -0.59 -0.00    +0.000 OA
DOCKED: BRANCH  13  18
DOCKED: ATOM     15  C   UNL     1      23.605 -11.506  -7.604 -0.43 -0.00    +0.000 A 
DOCKED: ATOM     16  C   UNL     1      22.643 -10.482  -7.705 -0.28 -0.00    +0.000 A 
DOCKED: ATOM     17  C   UNL     1      21.632 -10.351  -6.749 -0.30 -0.00    +0.000 A 
DOCKED: ATOM     18  C   UNL     1      21.557 -11.233  -5.660 -0.46 -0.00    +0.000 A 
DOCKED: ATOM     19  C   UNL     1      22.506 -12.265  -5.560 -0.43 -0.00    +0.000 A 
DOCKED: ATOM     20  C   UNL     1      23.517 -12.397  -6.515 -0.30 -0.00    +0.000 A 
DOCKED: BRANCH  15  22
DOCKED: ATOM     21  C   UNL     1      25.775 -10.691  -8.635 -0.37 -0.00    +0.000 C 
DOCKED: ATOM     22  N   UNL     1      24.657 -11.642  -8.596 -0.39 -0.00    +0.000 N 
DOCKED: ATOM     23  C   UNL     1      24.620 -12.733  -9.577 -0.41 -0.00    +0.000 C 
DOCKED: ENDBRANCH  15  22
DOCKED: ENDBRANCH  13  18
DOCKED: ENDBRANCH   1  13
DOCKED: TORSDOF 6
DOCKED: TER
DOCKED: ENDMDL
________________________________________________________________________________


	BEGINNING GENETIC ALGORITHM DOCKING 38 of 100
Run: 38 Seed: 2142199758 164110413 [ Run 38 of 100 GA/GALS ]
Beginning LAMARCKIAN GENETIC ALGORITHM (LGA), with a maximum of 2500000 energy evaluations.

Final-Value: -12.838


	FINAL GENETIC ALGORITHM DOCKED STATE
	_______________________________________________


Detailed state:  trans 21.195 -9.150 -3.356 quatxyzw -0.654310 -0.613051 0.413991 0.157029 center -0.963 -0.416 0.212 ntor 6 153.5260 -160.9051 -50.4796 -112.6841 79.4625 -179.8632
State:	 21.195  -9.150  -3.356  -0.663 -0.621  0.419 161.931    153.53 -160.91  -50.48 -112.68   79.46 -179.86

DOCKED: MODEL       38
DOCKED: USER    Run = 38
DOCKED: USER    DPF = ligand_dock.biased.dpf
DOCKED: USER  
DOCKED: USER    Estimated Free Energy of Binding    =   -9.71 kcal/mol  [=(1)+(2)+(3)-(4)]
DOCKED: USER    Estimated Inhibition Constant, Ki   =   75.67 nM (nanomolar)  [Temperature = 298.15 K]
DOCKED: USER    
DOCKED: USER    (1) Final Intermolecular Energy     =  -11.50 kcal/mol
DOCKED: USER        vdW + Hbond + desolv Energy     =  -11.50 kcal/mol
DOCKED: USER        Electrostatic Energy            =   +0.00 kcal/mol
DOCKED: USER    (2) Final Total Internal Energy     =   -1.33 kcal/mol
DOCKED: USER    (3) Torsional Free Energy           =   +1.79 kcal/mol
DOCKED: USER    (4) Unbound System's Energy  [=(2)] =   -1.33 kcal/mol
DOCKED: USER    
DOCKED: USER    
DOCKED: USER    NEWDPF move ligand.pdbqt
DOCKED: USER    NEWDPF about -0.963000 -0.416000 0.212000
DOCKED: USER    NEWDPF tran0 21.195368 -9.150461 -3.356114
DOCKED: USER    NEWDPF quaternion0 -0.654310 -0.613051 0.413991 0.157029
DOCKED: USER    NEWDPF axisangle0 -0.662529 -0.620752 0.419191 161.930963
DOCKED: USER    NEWDPF quat0 -0.662529 -0.620752 0.419191 161.930963
DOCKED: USER    NEWDPF dihe0 153.53 -160.91 -50.48 -112.68 79.46 -179.86 
DOCKED: USER  keepresnum = 1 
DOCKED: USER  
DOCKED: REMARK  Name = 
DOCKED: REMARK  10 active torsions:
DOCKED: REMARK  status: ('A' for Active; 'I' for Inactive)
DOCKED: REMARK    1  A    between atoms: C_1  and  N_2
DOCKED: REMARK    2  A    between atoms: N_2  and  C_3
DOCKED: REMARK    3  A    between atoms: N_2  and  C_22
DOCKED: REMARK    4  A    between atoms: C_6  and  C_9
DOCKED: REMARK    5  A    between atoms: C_9  and  C_10
DOCKED: REMARK    6  A    between atoms: C_10  and  C_11
DOCKED: REMARK    7  A    between atoms: C_10  and  C_20
DOCKED: REMARK    8  A    between atoms: C_12  and  C_13
DOCKED: REMARK    9  A    between atoms: C_12  and  C_19
DOCKED: REMARK   10  A    between atoms: C_14  and  C_15
DOCKED: REMARK                            x       y       z     vdW  Elec       q    Type
DOCKED: REMARK                         _______ _______ _______ _____ _____    ______ ____
DOCKED: USER                              x       y       z     vdW  Elec       q    Type
DOCKED: USER                           _______ _______ _______ _____ _____    ______ ____
DOCKED: ROOT
DOCKED: ATOM      1  C   UNL     1      21.709 -10.238  -4.412 -0.45 -0.00    +0.000 C 
DOCKED: ATOM      2  C   UNL     1      22.129 -11.342  -5.386 -0.51 -0.00    +0.000 C 
DOCKED: ENDROOT
DOCKED: BRANCH   1   3
DOCKED: ATOM      3  C   UNL     1      21.303 -10.843  -3.083 -0.43 -0.00    +0.000 C 
DOCKED: ATOM      4  C   UNL     1      21.044 -10.139  -1.960 -0.60 -0.00    +0.000 C 
DOCKED: ATOM      5  C   UNL     1      21.124  -8.629  -1.929 -0.52 -0.00    +0.000 C 
DOCKED: BRANCH   4   6
DOCKED: ATOM      6  C   UNL     1      20.627 -10.893  -0.750 -0.56 -0.00    +0.000 C 
DOCKED: ATOM      7  C   UNL     1      20.787 -10.422   0.496 -0.68 -0.00    +0.000 C 
DOCKED: BRANCH   7   8
DOCKED: ATOM      8  C   UNL     1      20.373 -11.162   1.706 -0.74 -0.00    +0.000 C 
DOCKED: ATOM      9  N   UNL     1      20.527 -10.624   3.025 -0.65 -0.00    +0.000 N 
DOCKED: ATOM     10  O   UNL     1      20.037 -11.296   4.093 -1.11 -0.00    +0.000 OA
DOCKED: ATOM     11  O   UNL     1      19.891 -12.317   1.566 -1.73 -0.00    +0.000 OA
DOCKED: ATOM     12  H   UNL     1      20.989  -9.764   3.154 -0.61 -0.00    +0.000 HD
DOCKED: ENDBRANCH   7   8
DOCKED: ENDBRANCH   4   6
DOCKED: ENDBRANCH   1   3
DOCKED: BRANCH   1  13
DOCKED: ATOM     13  C   UNL     1      20.569  -9.435  -5.007 -0.31 -0.00    +0.000 C 
DOCKED: ATOM     14  O   UNL     1      20.807  -8.286  -5.475 -0.19 -0.00    +0.000 OA
DOCKED: BRANCH  13  18
DOCKED: ATOM     15  C   UNL     1      16.500 -10.896  -5.015 -0.18 -0.00    +0.000 A 
DOCKED: ATOM     16  C   UNL     1      16.979 -10.073  -3.977 -0.22 -0.00    +0.000 A 
DOCKED: ATOM     17  C   UNL     1      18.296  -9.606  -3.981 -0.23 -0.00    +0.000 A 
DOCKED: ATOM     18  C   UNL     1      19.171  -9.939  -5.027 -0.25 -0.00    +0.000 A 
DOCKED: ATOM     19  C   UNL     1      18.703 -10.770  -6.060 -0.32 -0.00    +0.000 A 
DOCKED: ATOM     20  C   UNL     1      17.387 -11.238  -6.055 -0.31 -0.00    +0.000 A 
DOCKED: BRANCH  15  22
DOCKED: ATOM     21  C   UNL     1      14.253 -11.132  -3.860 -0.30 -0.00    +0.000 C 
DOCKED: ATOM     22  N   UNL     1      15.131 -11.381  -5.011 -0.27 -0.00    +0.000 N 
DOCKED: ATOM     23  C   UNL     1      14.602 -12.129  -6.158 -0.33 -0.00    +0.000 C 
DOCKED: ENDBRANCH  15  22
DOCKED: ENDBRANCH  13  18
DOCKED: ENDBRANCH   1  13
DOCKED: TORSDOF 6
DOCKED: TER
DOCKED: ENDMDL
________________________________________________________________________________


	BEGINNING GENETIC ALGORITHM DOCKING 39 of 100
Run: 39 Seed: 850134520 513503290 [ Run 39 of 100 GA/GALS ]
Beginning LAMARCKIAN GENETIC ALGORITHM (LGA), with a maximum of 2500000 energy evaluations.

Final-Value: -12.192


	FINAL GENETIC ALGORITHM DOCKED STATE
	_______________________________________________


Detailed state:  trans 21.821 -8.803 -2.888 quatxyzw -0.671533 -0.486700 0.553027 -0.079545 center -0.963 -0.416 0.212 ntor 6 -71.3881 164.9701 -93.4249 84.0323 -160.1485 -60.2976
State:	 21.821  -8.803  -2.888  -0.674 -0.488  0.555 -170.875    -71.39  164.97  -93.42   84.03 -160.15  -60.30

DOCKED: MODEL       39
DOCKED: USER    Run = 39
DOCKED: USER    DPF = ligand_dock.biased.dpf
DOCKED: USER  
DOCKED: USER    Estimated Free Energy of Binding    =   -9.32 kcal/mol  [=(1)+(2)+(3)-(4)]
DOCKED: USER    Estimated Inhibition Constant, Ki   =  147.03 nM (nanomolar)  [Temperature = 298.15 K]
DOCKED: USER    
DOCKED: USER    (1) Final Intermolecular Energy     =  -11.11 kcal/mol
DOCKED: USER        vdW + Hbond + desolv Energy     =  -11.11 kcal/mol
DOCKED: USER        Electrostatic Energy            =   +0.00 kcal/mol
DOCKED: USER    (2) Final Total Internal Energy     =   -1.08 kcal/mol
DOCKED: USER    (3) Torsional Free Energy           =   +1.79 kcal/mol
DOCKED: USER    (4) Unbound System's Energy  [=(2)] =   -1.08 kcal/mol
DOCKED: USER    
DOCKED: USER    
DOCKED: USER    NEWDPF move ligand.pdbqt
DOCKED: USER    NEWDPF about -0.963000 -0.416000 0.212000
DOCKED: USER    NEWDPF tran0 21.821333 -8.803111 -2.887926
DOCKED: USER    NEWDPF quaternion0 -0.671533 -0.486700 0.553027 -0.079545
DOCKED: USER    NEWDPF axisangle0 -0.673668 -0.488247 0.554785 -170.875214
DOCKED: USER    NEWDPF quat0 -0.673668 -0.488247 0.554785 -170.875214
DOCKED: USER    NEWDPF dihe0 -71.39 164.97 -93.42 84.03 -160.15 -60.30 
DOCKED: USER  keepresnum = 1 
DOCKED: USER  
DOCKED: REMARK  Name = 
DOCKED: REMARK  10 active torsions:
DOCKED: REMARK  status: ('A' for Active; 'I' for Inactive)
DOCKED: REMARK    1  A    between atoms: C_1  and  N_2
DOCKED: REMARK    2  A    between atoms: N_2  and  C_3
DOCKED: REMARK    3  A    between atoms: N_2  and  C_22
DOCKED: REMARK    4  A    between atoms: C_6  and  C_9
DOCKED: REMARK    5  A    between atoms: C_9  and  C_10
DOCKED: REMARK    6  A    between atoms: C_10  and  C_11
DOCKED: REMARK    7  A    between atoms: C_10  and  C_20
DOCKED: REMARK    8  A    between atoms: C_12  and  C_13
DOCKED: REMARK    9  A    between atoms: C_12  and  C_19
DOCKED: REMARK   10  A    between atoms: C_14  and  C_15
DOCKED: REMARK                            x       y       z     vdW  Elec       q    Type
DOCKED: REMARK                         _______ _______ _______ _____ _____    ______ ____
DOCKED: USER                              x       y       z     vdW  Elec       q    Type
DOCKED: USER                           _______ _______ _______ _____ _____    ______ ____
DOCKED: ROOT
DOCKED: ATOM      1  C   UNL     1      21.380  -9.861  -4.005 -0.47 -0.00    +0.000 C 
DOCKED: ATOM      2  C   UNL     1      20.888 -10.908  -5.007 -0.50 -0.00    +0.000 C 
DOCKED: ENDROOT
DOCKED: BRANCH   1   3
DOCKED: ATOM      3  C   UNL     1      21.315 -10.419  -2.596 -0.56 -0.00    +0.000 C 
DOCKED: ATOM      4  C   UNL     1      20.176 -10.695  -1.927 -0.47 -0.00    +0.000 C 
DOCKED: ATOM      5  C   UNL     1      18.813 -10.479  -2.547 -0.37 -0.00    +0.000 C 
DOCKED: BRANCH   4   6
DOCKED: ATOM      6  C   UNL     1      20.296 -11.269  -0.562 -0.33 -0.00    +0.000 C 
DOCKED: ATOM      7  C   UNL     1      19.918 -10.611   0.544 -0.63 -0.00    +0.000 C 
DOCKED: BRANCH   7   8
DOCKED: ATOM      8  C   UNL     1      20.030 -11.173   1.906 -0.73 -0.00    +0.000 C 
DOCKED: ATOM      9  N   UNL     1      20.293 -10.358   3.054 -0.60 -0.00    +0.000 N 
DOCKED: ATOM     10  O   UNL     1      20.282 -10.906   4.292 -0.98 -0.00    +0.000 OA
DOCKED: ATOM     11  O   UNL     1      19.912 -12.419   2.050 -1.80 -0.00    +0.000 OA
DOCKED: ATOM     12  H   UNL     1      20.481  -9.398   2.943 -0.57 -0.00    +0.000 HD
DOCKED: ENDBRANCH   7   8
DOCKED: ENDBRANCH   4   6
DOCKED: ENDBRANCH   1   3
DOCKED: BRANCH   1  13
DOCKED: ATOM     13  C   UNL     1      20.544  -8.602  -4.123 -0.33 -0.00    +0.000 C 
DOCKED: ATOM     14  O   UNL     1      19.445  -8.652  -4.745 -0.21 -0.00    +0.000 OA
DOCKED: BRANCH  13  18
DOCKED: ATOM     15  C   UNL     1      21.813  -4.824  -2.447 -0.32 -0.00    +0.000 A 
DOCKED: ATOM     16  C   UNL     1      21.434  -5.900  -1.621 -0.31 +0.00    +0.000 A 
DOCKED: ATOM     17  C   UNL     1      21.024  -7.117  -2.171 -0.39 -0.00    +0.000 A 
DOCKED: ATOM     18  C   UNL     1      20.989  -7.300  -3.562 -0.32 -0.00    +0.000 A 
DOCKED: ATOM     19  C   UNL     1      21.354  -6.227  -4.393 -0.21 -0.00    +0.000 A 
DOCKED: ATOM     20  C   UNL     1      21.762  -5.008  -3.844 -0.19 -0.00    +0.000 A 
DOCKED: BRANCH  15  22
DOCKED: ATOM     21  C   UNL     1      23.496  -2.931  -2.306 -0.23 -0.00    +0.000 C 
DOCKED: ATOM     22  N   UNL     1      22.239  -3.559  -1.877 -0.27 -0.00    +0.000 N 
DOCKED: ATOM     23  C   UNL     1      21.421  -2.885  -0.861 -0.35 -0.00    +0.000 C 
DOCKED: ENDBRANCH  15  22
DOCKED: ENDBRANCH  13  18
DOCKED: ENDBRANCH   1  13
DOCKED: TORSDOF 6
DOCKED: TER
DOCKED: ENDMDL
________________________________________________________________________________


	BEGINNING GENETIC ALGORITHM DOCKING 40 of 100
Run: 40 Seed: 1656532492 2031881239 [ Run 40 of 100 GA/GALS ]
Beginning LAMARCKIAN GENETIC ALGORITHM (LGA), with a maximum of 2500000 energy evaluations.

Final-Value: -12.768


	FINAL GENETIC ALGORITHM DOCKED STATE
	_______________________________________________


Detailed state:  trans 19.164 -10.683 -3.454 quatxyzw 0.052239 0.828055 -0.078633 -0.552642 center -0.963 -0.416 0.212 ntor 6 -136.4442 148.4578 38.6800 125.5364 -28.1958 -27.8054
State:	 19.164 -10.683  -3.454   0.063  0.994 -0.094 -112.903   -136.44  148.46   38.68  125.54  -28.20  -27.81

DOCKED: MODEL       40
DOCKED: USER    Run = 40
DOCKED: USER    DPF = ligand_dock.biased.dpf
DOCKED: USER  
DOCKED: USER    Estimated Free Energy of Binding    =  -10.02 kcal/mol  [=(1)+(2)+(3)-(4)]
DOCKED: USER    Estimated Inhibition Constant, Ki   =   45.18 nM (nanomolar)  [Temperature = 298.15 K]
DOCKED: USER    
DOCKED: USER    (1) Final Intermolecular Energy     =  -11.81 kcal/mol
DOCKED: USER        vdW + Hbond + desolv Energy     =  -11.81 kcal/mol
DOCKED: USER        Electrostatic Energy            =   +0.00 kcal/mol
DOCKED: USER    (2) Final Total Internal Energy     =   -0.96 kcal/mol
DOCKED: USER    (3) Torsional Free Energy           =   +1.79 kcal/mol
DOCKED: USER    (4) Unbound System's Energy  [=(2)] =   -0.96 kcal/mol
DOCKED: USER    
DOCKED: USER    
DOCKED: USER    NEWDPF move ligand.pdbqt
DOCKED: USER    NEWDPF about -0.963000 -0.416000 0.212000
DOCKED: USER    NEWDPF tran0 19.163954 -10.683214 -3.454105
DOCKED: USER    NEWDPF quaternion0 0.052239 0.828055 -0.078633 -0.552642
DOCKED: USER    NEWDPF axisangle0 0.062680 0.993564 -0.094350 -112.903028
DOCKED: USER    NEWDPF quat0 0.062680 0.993564 -0.094350 -112.903028
DOCKED: USER    NEWDPF dihe0 -136.44 148.46 38.68 125.54 -28.20 -27.81 
DOCKED: USER  keepresnum = 1 
DOCKED: USER  
DOCKED: REMARK  Name = 
DOCKED: REMARK  10 active torsions:
DOCKED: REMARK  status: ('A' for Active; 'I' for Inactive)
DOCKED: REMARK    1  A    between atoms: C_1  and  N_2
DOCKED: REMARK    2  A    between atoms: N_2  and  C_3
DOCKED: REMARK    3  A    between atoms: N_2  and  C_22
DOCKED: REMARK    4  A    between atoms: C_6  and  C_9
DOCKED: REMARK    5  A    between atoms: C_9  and  C_10
DOCKED: REMARK    6  A    between atoms: C_10  and  C_11
DOCKED: REMARK    7  A    between atoms: C_10  and  C_20
DOCKED: REMARK    8  A    between atoms: C_12  and  C_13
DOCKED: REMARK    9  A    between atoms: C_12  and  C_19
DOCKED: REMARK   10  A    between atoms: C_14  and  C_15
DOCKED: REMARK                            x       y       z     vdW  Elec       q    Type
DOCKED: REMARK                         _______ _______ _______ _____ _____    ______ ____
DOCKED: USER                              x       y       z     vdW  Elec       q    Type
DOCKED: USER                           _______ _______ _______ _____ _____    ______ ____
DOCKED: ROOT
DOCKED: ATOM      1  C   UNL     1      20.464  -9.920  -3.990 -0.42 -0.00    +0.000 C 
DOCKED: ATOM      2  C   UNL     1      21.765  -9.262  -4.458 -0.35 -0.00    +0.000 C 
DOCKED: ENDROOT
DOCKED: BRANCH   1   3
DOCKED: ATOM      3  C   UNL     1      20.653 -10.523  -2.612 -0.53 -0.00    +0.000 C 
DOCKED: ATOM      4  C   UNL     1      20.934  -9.820  -1.494 -0.62 -0.00    +0.000 C 
DOCKED: ATOM      5  C   UNL     1      21.078  -8.315  -1.512 -0.48 -0.00    +0.000 C 
DOCKED: BRANCH   4   6
DOCKED: ATOM      6  C   UNL     1      21.054 -10.570  -0.217 -0.70 -0.00    +0.000 C 
DOCKED: ATOM      7  C   UNL     1      20.206 -10.407   0.810 -0.64 -0.00    +0.000 C 
DOCKED: BRANCH   7   8
DOCKED: ATOM      8  C   UNL     1      20.314 -11.149   2.082 -0.75 -0.00    +0.000 C 
DOCKED: ATOM      9  N   UNL     1      20.268 -10.497   3.357 -0.69 -0.00    +0.000 N 
DOCKED: ATOM     10  O   UNL     1      20.266 -11.231   4.494 -0.88 -0.00    +0.000 OA
DOCKED: ATOM     11  O   UNL     1      20.477 -12.397   2.036 -1.83 -0.00    +0.000 OA
DOCKED: ATOM     12  H   UNL     1      20.236  -9.514   3.406 -0.57 -0.00    +0.000 HD
DOCKED: ENDBRANCH   7   8
DOCKED: ENDBRANCH   4   6
DOCKED: ENDBRANCH   1   3
DOCKED: BRANCH   1  13
DOCKED: ATOM     13  C   UNL     1      20.037 -10.980  -4.986 -0.47 -0.00    +0.000 C 
DOCKED: ATOM     14  O   UNL     1      20.891 -11.816  -5.396 -0.64 -0.00    +0.000 OA
DOCKED: BRANCH  13  18
DOCKED: ATOM     15  C   UNL     1      15.994 -11.180  -6.506 -0.26 -0.00    +0.000 A 
DOCKED: ATOM     16  C   UNL     1      16.271 -10.644  -5.233 -0.22 -0.00    +0.000 A 
DOCKED: ATOM     17  C   UNL     1      17.580 -10.584  -4.749 -0.21 -0.00    +0.000 A 
DOCKED: ATOM     18  C   UNL     1      18.654 -11.049  -5.525 -0.34 -0.00    +0.000 A 
DOCKED: ATOM     19  C   UNL     1      18.384 -11.597  -6.791 -0.22 -0.00    +0.000 A 
DOCKED: ATOM     20  C   UNL     1      17.074 -11.659  -7.275 -0.35 -0.00    +0.000 A 
DOCKED: BRANCH  15  22
DOCKED: ATOM     21  C   UNL     1      13.875 -10.011  -7.264 -0.10 -0.00    +0.000 C 
DOCKED: ATOM     22  N   UNL     1      14.634 -11.242  -7.010 -0.19 -0.00    +0.000 N 
DOCKED: ATOM     23  C   UNL     1      13.995 -12.537  -7.274 -0.34 -0.00    +0.000 C 
DOCKED: ENDBRANCH  15  22
DOCKED: ENDBRANCH  13  18
DOCKED: ENDBRANCH   1  13
DOCKED: TORSDOF 6
DOCKED: TER
DOCKED: ENDMDL
________________________________________________________________________________


	BEGINNING GENETIC ALGORITHM DOCKING 41 of 100
Run: 41 Seed: 1013434734 1859110865 [ Run 41 of 100 GA/GALS ]
Beginning LAMARCKIAN GENETIC ALGORITHM (LGA), with a maximum of 2500000 energy evaluations.

Final-Value: -12.601


	FINAL GENETIC ALGORITHM DOCKED STATE
	_______________________________________________


Detailed state:  trans 18.172 -11.293 -3.530 quatxyzw -0.193463 0.809031 0.152280 -0.533716 center -0.963 -0.416 0.212 ntor 6 52.9578 176.0607 -77.3069 -118.1449 32.8630 145.9339
State:	 18.172 -11.293  -3.530  -0.229  0.957  0.180 -115.486     52.96  176.06  -77.31 -118.14   32.86  145.93

DOCKED: MODEL       41
DOCKED: USER    Run = 41
DOCKED: USER    DPF = ligand_dock.biased.dpf
DOCKED: USER  
DOCKED: USER    Estimated Free Energy of Binding    =   -9.69 kcal/mol  [=(1)+(2)+(3)-(4)]
DOCKED: USER    Estimated Inhibition Constant, Ki   =   78.25 nM (nanomolar)  [Temperature = 298.15 K]
DOCKED: USER    
DOCKED: USER    (1) Final Intermolecular Energy     =  -11.48 kcal/mol
DOCKED: USER        vdW + Hbond + desolv Energy     =  -11.48 kcal/mol
DOCKED: USER        Electrostatic Energy            =   +0.00 kcal/mol
DOCKED: USER    (2) Final Total Internal Energy     =   -1.12 kcal/mol
DOCKED: USER    (3) Torsional Free Energy           =   +1.79 kcal/mol
DOCKED: USER    (4) Unbound System's Energy  [=(2)] =   -1.12 kcal/mol
DOCKED: USER    
DOCKED: USER    
DOCKED: USER    NEWDPF move ligand.pdbqt
DOCKED: USER    NEWDPF about -0.963000 -0.416000 0.212000
DOCKED: USER    NEWDPF tran0 18.172054 -11.292657 -3.529845
DOCKED: USER    NEWDPF quaternion0 -0.193463 0.809031 0.152280 -0.533716
DOCKED: USER    NEWDPF axisangle0 -0.228770 0.956681 0.180072 -115.486293
DOCKED: USER    NEWDPF quat0 -0.228770 0.956681 0.180072 -115.486293
DOCKED: USER    NEWDPF dihe0 52.96 176.06 -77.31 -118.14 32.86 145.93 
DOCKED: USER  keepresnum = 1 
DOCKED: USER  
DOCKED: REMARK  Name = 
DOCKED: REMARK  10 active torsions:
DOCKED: REMARK  status: ('A' for Active; 'I' for Inactive)
DOCKED: REMARK    1  A    between atoms: C_1  and  N_2
DOCKED: REMARK    2  A    between atoms: N_2  and  C_3
DOCKED: REMARK    3  A    between atoms: N_2  and  C_22
DOCKED: REMARK    4  A    between atoms: C_6  and  C_9
DOCKED: REMARK    5  A    between atoms: C_9  and  C_10
DOCKED: REMARK    6  A    between atoms: C_10  and  C_11
DOCKED: REMARK    7  A    between atoms: C_10  and  C_20
DOCKED: REMARK    8  A    between atoms: C_12  and  C_13
DOCKED: REMARK    9  A    between atoms: C_12  and  C_19
DOCKED: REMARK   10  A    between atoms: C_14  and  C_15
DOCKED: REMARK                            x       y       z     vdW  Elec       q    Type
DOCKED: REMARK                         _______ _______ _______ _____ _____    ______ ____
DOCKED: USER                              x       y       z     vdW  Elec       q    Type
DOCKED: USER                           _______ _______ _______ _____ _____    ______ ____
DOCKED: ROOT
DOCKED: ATOM      1  C   UNL     1      18.687  -9.840  -3.961 -0.30 -0.00    +0.000 C 
DOCKED: ATOM      2  C   UNL     1      19.272  -8.476  -4.336 -0.22 -0.00    +0.000 C 
DOCKED: ENDROOT
DOCKED: BRANCH   1   3
DOCKED: ATOM      3  C   UNL     1      19.290 -10.323  -2.656 -0.40 -0.00    +0.000 C 
DOCKED: ATOM      4  C   UNL     1      18.582 -10.679  -1.564 -0.37 -0.00    +0.000 C 
DOCKED: ATOM      5  C   UNL     1      17.070 -10.639  -1.544 -0.28 -0.00    +0.000 C 
DOCKED: BRANCH   4   6
DOCKED: ATOM      6  C   UNL     1      19.334 -11.162  -0.377 -0.53 -0.00    +0.000 C 
DOCKED: ATOM      7  C   UNL     1      19.144 -10.673   0.858 -0.54 -0.00    +0.000 C 
DOCKED: BRANCH   7   8
DOCKED: ATOM      8  C   UNL     1      19.884 -11.148   2.045 -0.73 -0.00    +0.000 C 
DOCKED: ATOM      9  N   UNL     1      20.018 -10.358   3.233 -0.64 -0.00    +0.000 N 
DOCKED: ATOM     10  O   UNL     1      20.615 -10.879   4.330 -0.95 -0.00    +0.000 OA
DOCKED: ATOM     11  O   UNL     1      20.434 -12.280   1.995 -1.84 -0.00    +0.000 OA
DOCKED: ATOM     12  H   UNL     1      19.674  -9.435   3.251 -0.56 -0.00    +0.000 HD
DOCKED: ENDBRANCH   7   8
DOCKED: ENDBRANCH   4   6
DOCKED: ENDBRANCH   1   3
DOCKED: BRANCH   1  13
DOCKED: ATOM     13  C   UNL     1      18.949 -10.835  -5.074 -0.39 -0.00    +0.000 C 
DOCKED: ATOM     14  O   UNL     1      18.033 -11.641  -5.404 -0.39 -0.00    +0.000 OA
DOCKED: BRANCH  13  18
DOCKED: ATOM     15  C   UNL     1      22.783 -11.095  -7.055 -0.39 -0.00    +0.000 A 
DOCKED: ATOM     16  C   UNL     1      22.515 -11.826  -5.881 -0.44 -0.00    +0.000 A 
DOCKED: ATOM     17  C   UNL     1      21.274 -11.735  -5.247 -0.42 -0.00    +0.000 A 
DOCKED: ATOM     18  C   UNL     1      20.259 -10.919  -5.770 -0.37 -0.00    +0.000 A 
DOCKED: ATOM     19  C   UNL     1      20.523 -10.177  -6.934 -0.24 -0.00    +0.000 A 
DOCKED: ATOM     20  C   UNL     1      21.765 -10.266  -7.569 -0.25 -0.00    +0.000 A 
DOCKED: BRANCH  15  22
DOCKED: ATOM     21  C   UNL     1      25.035 -10.081  -7.637 -0.34 -0.00    +0.000 C 
DOCKED: ATOM     22  N   UNL     1      24.073 -11.189  -7.715 -0.40 -0.00    +0.000 N 
DOCKED: ATOM     23  C   UNL     1      24.438 -12.392  -8.472 -0.47 -0.00    +0.000 C 
DOCKED: ENDBRANCH  15  22
DOCKED: ENDBRANCH  13  18
DOCKED: ENDBRANCH   1  13
DOCKED: TORSDOF 6
DOCKED: TER
DOCKED: ENDMDL
________________________________________________________________________________


	BEGINNING GENETIC ALGORITHM DOCKING 42 of 100
Run: 42 Seed: 825962647 991439532 [ Run 42 of 100 GA/GALS ]
Beginning LAMARCKIAN GENETIC ALGORITHM (LGA), with a maximum of 2500000 energy evaluations.

Final-Value: -12.360


	FINAL GENETIC ALGORITHM DOCKED STATE
	_______________________________________________


Detailed state:  trans 22.231 -8.544 -2.839 quatxyzw 0.763653 0.364045 -0.533100 0.010463 center -0.963 -0.416 0.212 ntor 6 124.9320 -41.2921 96.4166 -88.3421 -146.6282 -86.2065
State:	 22.231  -8.544  -2.839   0.764  0.364 -0.533 178.801    124.93  -41.29   96.42  -88.34 -146.63  -86.21

DOCKED: MODEL       42
DOCKED: USER    Run = 42
DOCKED: USER    DPF = ligand_dock.biased.dpf
DOCKED: USER  
DOCKED: USER    Estimated Free Energy of Binding    =   -9.53 kcal/mol  [=(1)+(2)+(3)-(4)]
DOCKED: USER    Estimated Inhibition Constant, Ki   =  103.14 nM (nanomolar)  [Temperature = 298.15 K]
DOCKED: USER    
DOCKED: USER    (1) Final Intermolecular Energy     =  -11.32 kcal/mol
DOCKED: USER        vdW + Hbond + desolv Energy     =  -11.32 kcal/mol
DOCKED: USER        Electrostatic Energy            =   +0.00 kcal/mol
DOCKED: USER    (2) Final Total Internal Energy     =   -1.04 kcal/mol
DOCKED: USER    (3) Torsional Free Energy           =   +1.79 kcal/mol
DOCKED: USER    (4) Unbound System's Energy  [=(2)] =   -1.04 kcal/mol
DOCKED: USER    
DOCKED: USER    
DOCKED: USER    NEWDPF move ligand.pdbqt
DOCKED: USER    NEWDPF about -0.963000 -0.416000 0.212000
DOCKED: USER    NEWDPF tran0 22.230974 -8.543600 -2.838710
DOCKED: USER    NEWDPF quaternion0 0.763653 0.364045 -0.533100 0.010463
DOCKED: USER    NEWDPF axisangle0 0.763695 0.364065 -0.533130 178.801009
DOCKED: USER    NEWDPF quat0 0.763695 0.364065 -0.533130 178.801009
DOCKED: USER    NEWDPF dihe0 124.93 -41.29 96.42 -88.34 -146.63 -86.21 
DOCKED: USER  keepresnum = 1 
DOCKED: USER  
DOCKED: REMARK  Name = 
DOCKED: REMARK  10 active torsions:
DOCKED: REMARK  status: ('A' for Active; 'I' for Inactive)
DOCKED: REMARK    1  A    between atoms: C_1  and  N_2
DOCKED: REMARK    2  A    between atoms: N_2  and  C_3
DOCKED: REMARK    3  A    between atoms: N_2  and  C_22
DOCKED: REMARK    4  A    between atoms: C_6  and  C_9
DOCKED: REMARK    5  A    between atoms: C_9  and  C_10
DOCKED: REMARK    6  A    between atoms: C_10  and  C_11
DOCKED: REMARK    7  A    between atoms: C_10  and  C_20
DOCKED: REMARK    8  A    between atoms: C_12  and  C_13
DOCKED: REMARK    9  A    between atoms: C_12  and  C_19
DOCKED: REMARK   10  A    between atoms: C_14  and  C_15
DOCKED: REMARK                            x       y       z     vdW  Elec       q    Type
DOCKED: REMARK                         _______ _______ _______ _____ _____    ______ ____
DOCKED: USER                              x       y       z     vdW  Elec       q    Type
DOCKED: USER                           _______ _______ _______ _____ _____    ______ ____
DOCKED: ROOT
DOCKED: ATOM      1  C   UNL     1      21.765  -9.752  -3.779 -0.37 -0.00    +0.000 C 
DOCKED: ATOM      2  C   UNL     1      21.235 -10.914  -4.623 -0.53 -0.00    +0.000 C 
DOCKED: ENDROOT
DOCKED: BRANCH   1   3
DOCKED: ATOM      3  C   UNL     1      21.375  -9.943  -2.327 -0.56 -0.00    +0.000 C 
DOCKED: ATOM      4  C   UNL     1      20.114 -10.127  -1.884 -0.51 -0.00    +0.000 C 
DOCKED: ATOM      5  C   UNL     1      18.934 -10.174  -2.829 -0.35 -0.00    +0.000 C 
DOCKED: BRANCH   4   6
DOCKED: ATOM      6  C   UNL     1      19.914 -10.331  -0.426 -0.55 -0.00    +0.000 C 
DOCKED: ATOM      7  C   UNL     1      20.514 -11.313   0.264 -0.58 -0.00    +0.000 C 
DOCKED: BRANCH   7   8
DOCKED: ATOM      8  C   UNL     1      20.325 -11.523   1.714 -0.77 -0.00    +0.000 C 
DOCKED: ATOM      9  N   UNL     1      20.640 -10.517   2.684 -0.61 -0.00    +0.000 N 
DOCKED: ATOM     10  O   UNL     1      20.352 -10.719   3.990 -1.05 -0.00    +0.000 OA
DOCKED: ATOM     11  O   UNL     1      19.894 -12.640   2.106 -1.66 -0.00    +0.000 OA
DOCKED: ATOM     12  H   UNL     1      21.067  -9.676   2.398 -0.57 -0.00    +0.000 HD
DOCKED: ENDBRANCH   7   8
DOCKED: ENDBRANCH   4   6
DOCKED: ENDBRANCH   1   3
DOCKED: BRANCH   1  13
DOCKED: ATOM     13  C   UNL     1      21.224  -8.440  -4.313 -0.34 -0.00    +0.000 C 
DOCKED: ATOM     14  O   UNL     1      20.628  -8.431  -5.426 -0.19 -0.00    +0.000 OA
DOCKED: BRANCH  13  18
DOCKED: ATOM     15  C   UNL     1      21.780  -4.694  -2.227 -0.34 -0.00    +0.000 A 
DOCKED: ATOM     16  C   UNL     1      22.320  -4.903  -3.511 -0.21 -0.00    +0.000 A 
DOCKED: ATOM     17  C   UNL     1      22.137  -6.117  -4.177 -0.18 -0.00    +0.000 A 
DOCKED: ATOM     18  C   UNL     1      21.401  -7.156  -3.586 -0.32 -0.00    +0.000 A 
DOCKED: ATOM     19  C   UNL     1      20.870  -6.959  -2.300 -0.30 -0.00    +0.000 A 
DOCKED: ATOM     20  C   UNL     1      21.054  -5.746  -1.632 -0.40 +0.00    +0.000 A 
DOCKED: BRANCH  15  22
DOCKED: ATOM     21  C   UNL     1      23.218  -2.674  -1.691 -0.26 -0.00    +0.000 C 
DOCKED: ATOM     22  N   UNL     1      21.970  -3.433  -1.533 -0.29 +0.00    +0.000 N 
DOCKED: ATOM     23  C   UNL     1      20.918  -2.895  -0.662 -0.38 -0.00    +0.000 C 
DOCKED: ENDBRANCH  15  22
DOCKED: ENDBRANCH  13  18
DOCKED: ENDBRANCH   1  13
DOCKED: TORSDOF 6
DOCKED: TER
DOCKED: ENDMDL
________________________________________________________________________________


	BEGINNING GENETIC ALGORITHM DOCKING 43 of 100
Run: 43 Seed: 2087201641 2027010439 [ Run 43 of 100 GA/GALS ]
Beginning LAMARCKIAN GENETIC ALGORITHM (LGA), with a maximum of 2500000 energy evaluations.

Final-Value: -11.688


	FINAL GENETIC ALGORITHM DOCKED STATE
	_______________________________________________


Detailed state:  trans 14.440 -12.290 2.286 quatxyzw 0.230863 -0.815034 -0.527769 -0.062297 center -0.963 -0.416 0.212 ntor 6 -92.7443 -64.0818 84.5124 50.0838 2.3277 -164.0417
State:	 14.440 -12.290   2.286   0.231 -0.817 -0.529 -172.857    -92.74  -64.08   84.51   50.08    2.33 -164.04

DOCKED: MODEL       43
DOCKED: USER    Run = 43
DOCKED: USER    DPF = ligand_dock.biased.dpf
DOCKED: USER  
DOCKED: USER    Estimated Free Energy of Binding    =   -8.58 kcal/mol  [=(1)+(2)+(3)-(4)]
DOCKED: USER    Estimated Inhibition Constant, Ki   =  517.45 nM (nanomolar)  [Temperature = 298.15 K]
DOCKED: USER    
DOCKED: USER    (1) Final Intermolecular Energy     =  -10.37 kcal/mol
DOCKED: USER        vdW + Hbond + desolv Energy     =  -10.37 kcal/mol
DOCKED: USER        Electrostatic Energy            =   +0.00 kcal/mol
DOCKED: USER    (2) Final Total Internal Energy     =   -1.32 kcal/mol
DOCKED: USER    (3) Torsional Free Energy           =   +1.79 kcal/mol
DOCKED: USER    (4) Unbound System's Energy  [=(2)] =   -1.32 kcal/mol
DOCKED: USER    
DOCKED: USER    
DOCKED: USER    NEWDPF move ligand.pdbqt
DOCKED: USER    NEWDPF about -0.963000 -0.416000 0.212000
DOCKED: USER    NEWDPF tran0 14.439981 -12.290251 2.286264
DOCKED: USER    NEWDPF quaternion0 0.230863 -0.815034 -0.527769 -0.062297
DOCKED: USER    NEWDPF axisangle0 0.231312 -0.816621 -0.528796 -172.856608
DOCKED: USER    NEWDPF quat0 0.231312 -0.816621 -0.528796 -172.856608
DOCKED: USER    NEWDPF dihe0 -92.74 -64.08 84.51 50.08 2.33 -164.04 
DOCKED: USER  keepresnum = 1 
DOCKED: USER  
DOCKED: REMARK  Name = 
DOCKED: REMARK  10 active torsions:
DOCKED: REMARK  status: ('A' for Active; 'I' for Inactive)
DOCKED: REMARK    1  A    between atoms: C_1  and  N_2
DOCKED: REMARK    2  A    between atoms: N_2  and  C_3
DOCKED: REMARK    3  A    between atoms: N_2  and  C_22
DOCKED: REMARK    4  A    between atoms: C_6  and  C_9
DOCKED: REMARK    5  A    between atoms: C_9  and  C_10
DOCKED: REMARK    6  A    between atoms: C_10  and  C_11
DOCKED: REMARK    7  A    between atoms: C_10  and  C_20
DOCKED: REMARK    8  A    between atoms: C_12  and  C_13
DOCKED: REMARK    9  A    between atoms: C_12  and  C_19
DOCKED: REMARK   10  A    between atoms: C_14  and  C_15
DOCKED: REMARK                            x       y       z     vdW  Elec       q    Type
DOCKED: REMARK                         _______ _______ _______ _____ _____    ______ ____
DOCKED: USER                              x       y       z     vdW  Elec       q    Type
DOCKED: USER                           _______ _______ _______ _____ _____    ______ ____
DOCKED: ROOT
DOCKED: ATOM      1  C   UNL     1      13.701 -10.918   2.650 -0.37 +0.00    +0.000 C 
DOCKED: ATOM      2  C   UNL     1      13.054  -9.559   2.929 -0.25 +0.00    +0.000 C 
DOCKED: ENDROOT
DOCKED: BRANCH   1   3
DOCKED: ATOM      3  C   UNL     1      15.178 -10.740   2.357 -0.43 +0.00    +0.000 C 
DOCKED: ATOM      4  C   UNL     1      16.164 -10.840   3.274 -0.52 +0.00    +0.000 C 
DOCKED: ATOM      5  C   UNL     1      15.878 -11.161   4.723 -0.32 +0.00    +0.000 C 
DOCKED: BRANCH   4   6
DOCKED: ATOM      6  C   UNL     1      17.564 -10.668   2.807 -0.52 +0.00    +0.000 C 
DOCKED: ATOM      7  C   UNL     1      18.186 -11.557   2.017 -0.49 +0.00    +0.000 C 
DOCKED: BRANCH   7   8
DOCKED: ATOM      8  C   UNL     1      19.576 -11.395   1.544 -0.69 -0.00    +0.000 C 
DOCKED: ATOM      9  N   UNL     1      19.914 -10.577   0.418 -0.55 -0.00    +0.000 N 
DOCKED: ATOM     10  O   UNL     1      21.211 -10.378   0.089 -0.74 -0.00    +0.000 OA
DOCKED: ATOM     11  O   UNL     1      20.490 -12.021   2.145 -1.92 -0.00    +0.000 OA
DOCKED: ATOM     12  H   UNL     1      19.201 -10.159  -0.118 -0.01 -0.00    +0.000 HD
DOCKED: ENDBRANCH   7   8
DOCKED: ENDBRANCH   4   6
DOCKED: ENDBRANCH   1   3
DOCKED: BRANCH   1  13
DOCKED: ATOM     13  C   UNL     1      13.001 -11.593   1.487 -0.44 +0.00    +0.000 C 
DOCKED: ATOM     14  O   UNL     1      11.996 -12.322   1.717 -0.54 +0.00    +0.000 OA
DOCKED: BRANCH  13  18
DOCKED: ATOM     15  C   UNL     1      14.338 -11.170  -2.603 -0.30 -0.00    +0.000 A 
DOCKED: ATOM     16  C   UNL     1      13.214 -10.468  -2.125 -0.25 -0.00    +0.000 A 
DOCKED: ATOM     17  C   UNL     1      12.788 -10.611  -0.802 -0.26 +0.00    +0.000 A 
DOCKED: ATOM     18  C   UNL     1      13.476 -11.452   0.086 -0.35 +0.00    +0.000 A 
DOCKED: ATOM     19  C   UNL     1      14.591 -12.166  -0.387 -0.42 +0.00    +0.000 A 
DOCKED: ATOM     20  C   UNL     1      15.017 -12.024  -1.711 -0.22 +0.00    +0.000 A 
DOCKED: BRANCH  15  22
DOCKED: ATOM     21  C   UNL     1      16.010 -10.279  -4.290 -0.24 -0.00    +0.000 C 
DOCKED: ATOM     22  N   UNL     1      14.782 -11.021  -3.977 -0.28 -0.00    +0.000 N 
DOCKED: ATOM     23  C   UNL     1      14.011 -11.611  -5.078 -0.27 -0.00    +0.000 C 
DOCKED: ENDBRANCH  15  22
DOCKED: ENDBRANCH  13  18
DOCKED: ENDBRANCH   1  13
DOCKED: TORSDOF 6
DOCKED: TER
DOCKED: ENDMDL
________________________________________________________________________________


	BEGINNING GENETIC ALGORITHM DOCKING 44 of 100
Run: 44 Seed: 25607898 66790265 [ Run 44 of 100 GA/GALS ]
Beginning LAMARCKIAN GENETIC ALGORITHM (LGA), with a maximum of 2500000 energy evaluations.

Final-Value: -12.657


	FINAL GENETIC ALGORITHM DOCKED STATE
	_______________________________________________


Detailed state:  trans 19.643 -9.484 -3.027 quatxyzw 0.342612 0.736728 -0.456093 -0.363081 center -0.963 -0.416 0.212 ntor 6 -86.2490 42.1881 115.5320 -86.6061 34.2659 -95.9914
State:	 19.643  -9.484  -3.027   0.368  0.791 -0.489 -137.421    -86.25   42.19  115.53  -86.61   34.27  -95.99

DOCKED: MODEL       44
DOCKED: USER    Run = 44
DOCKED: USER    DPF = ligand_dock.biased.dpf
DOCKED: USER  
DOCKED: USER    Estimated Free Energy of Binding    =   -9.49 kcal/mol  [=(1)+(2)+(3)-(4)]
DOCKED: USER    Estimated Inhibition Constant, Ki   =  111.23 nM (nanomolar)  [Temperature = 298.15 K]
DOCKED: USER    
DOCKED: USER    (1) Final Intermolecular Energy     =  -11.28 kcal/mol
DOCKED: USER        vdW + Hbond + desolv Energy     =  -11.28 kcal/mol
DOCKED: USER        Electrostatic Energy            =   +0.00 kcal/mol
DOCKED: USER    (2) Final Total Internal Energy     =   -1.38 kcal/mol
DOCKED: USER    (3) Torsional Free Energy           =   +1.79 kcal/mol
DOCKED: USER    (4) Unbound System's Energy  [=(2)] =   -1.38 kcal/mol
DOCKED: USER    
DOCKED: USER    
DOCKED: USER    NEWDPF move ligand.pdbqt
DOCKED: USER    NEWDPF about -0.963000 -0.416000 0.212000
DOCKED: USER    NEWDPF tran0 19.642615 -9.484345 -3.027324
DOCKED: USER    NEWDPF quaternion0 0.342612 0.736728 -0.456093 -0.363081
DOCKED: USER    NEWDPF axisangle0 0.367705 0.790686 -0.489498 -137.420886
DOCKED: USER    NEWDPF quat0 0.367705 0.790686 -0.489498 -137.420886
DOCKED: USER    NEWDPF dihe0 -86.25 42.19 115.53 -86.61 34.27 -95.99 
DOCKED: USER  keepresnum = 1 
DOCKED: USER  
DOCKED: REMARK  Name = 
DOCKED: REMARK  10 active torsions:
DOCKED: REMARK  status: ('A' for Active; 'I' for Inactive)
DOCKED: REMARK    1  A    between atoms: C_1  and  N_2
DOCKED: REMARK    2  A    between atoms: N_2  and  C_3
DOCKED: REMARK    3  A    between atoms: N_2  and  C_22
DOCKED: REMARK    4  A    between atoms: C_6  and  C_9
DOCKED: REMARK    5  A    between atoms: C_9  and  C_10
DOCKED: REMARK    6  A    between atoms: C_10  and  C_11
DOCKED: REMARK    7  A    between atoms: C_10  and  C_20
DOCKED: REMARK    8  A    between atoms: C_12  and  C_13
DOCKED: REMARK    9  A    between atoms: C_12  and  C_19
DOCKED: REMARK   10  A    between atoms: C_14  and  C_15
DOCKED: REMARK                            x       y       z     vdW  Elec       q    Type
DOCKED: REMARK                         _______ _______ _______ _____ _____    ______ ____
DOCKED: USER                              x       y       z     vdW  Elec       q    Type
DOCKED: USER                           _______ _______ _______ _____ _____    ______ ____
DOCKED: ROOT
DOCKED: ATOM      1  C   UNL     1      20.768 -10.271  -3.850 -0.48 -0.00    +0.000 C 
DOCKED: ATOM      2  C   UNL     1      21.833 -11.101  -4.571 -0.46 -0.00    +0.000 C 
DOCKED: ENDROOT
DOCKED: BRANCH   1   3
DOCKED: ATOM      3  C   UNL     1      20.839 -10.518  -2.356 -0.55 -0.00    +0.000 C 
DOCKED: ATOM      4  C   UNL     1      20.966  -9.555  -1.419 -0.62 -0.00    +0.000 C 
DOCKED: ATOM      5  C   UNL     1      21.037  -8.089  -1.785 -0.46 -0.00    +0.000 C 
DOCKED: BRANCH   4   6
DOCKED: ATOM      6  C   UNL     1      20.987  -9.973   0.007 -0.69 -0.00    +0.000 C 
DOCKED: ATOM      7  C   UNL     1      20.223 -10.964   0.490 -0.67 -0.00    +0.000 C 
DOCKED: BRANCH   7   8
DOCKED: ATOM      8  C   UNL     1      20.239 -11.390   1.905 -0.77 -0.00    +0.000 C 
DOCKED: ATOM      9  N   UNL     1      20.642 -10.516   2.965 -0.62 -0.00    +0.000 N 
DOCKED: ATOM     10  O   UNL     1      20.539 -10.920   4.253 -0.98 -0.00    +0.000 OA
DOCKED: ATOM     11  O   UNL     1      19.907 -12.575   2.177 -1.69 -0.00    +0.000 OA
DOCKED: ATOM     12  H   UNL     1      20.993  -9.620   2.757 -0.59 -0.00    +0.000 HD
DOCKED: ENDBRANCH   7   8
DOCKED: ENDBRANCH   4   6
DOCKED: ENDBRANCH   1   3
DOCKED: BRANCH   1  13
DOCKED: ATOM     13  C   UNL     1      19.394 -10.619  -4.387 -0.40 -0.00    +0.000 C 
DOCKED: ATOM     14  O   UNL     1      19.300 -11.165  -5.522 -0.43 -0.00    +0.000 OA
DOCKED: BRANCH  13  18
DOCKED: ATOM     15  C   UNL     1      15.765  -9.672  -2.235 -0.21 -0.00    +0.000 A 
DOCKED: ATOM     16  C   UNL     1      16.015  -9.142  -3.516 -0.18 -0.00    +0.000 A 
DOCKED: ATOM     17  C   UNL     1      17.191  -9.452  -4.204 -0.20 -0.00    +0.000 A 
DOCKED: ATOM     18  C   UNL     1      18.148 -10.308  -3.638 -0.25 -0.00    +0.000 A 
DOCKED: ATOM     19  C   UNL     1      17.911 -10.831  -2.355 -0.06 -0.00    +0.000 A 
DOCKED: ATOM     20  C   UNL     1      16.736 -10.520  -1.666 -0.25 -0.00    +0.000 A 
DOCKED: BRANCH  15  22
DOCKED: ATOM     21  C   UNL     1      13.549 -10.393  -1.232 -0.29 -0.00    +0.000 C 
DOCKED: ATOM     22  N   UNL     1      14.543  -9.350  -1.520 -0.21 -0.00    +0.000 N 
DOCKED: ATOM     23  C   UNL     1      14.280  -7.978  -1.072 -0.22 -0.00    +0.000 C 
DOCKED: ENDBRANCH  15  22
DOCKED: ENDBRANCH  13  18
DOCKED: ENDBRANCH   1  13
DOCKED: TORSDOF 6
DOCKED: TER
DOCKED: ENDMDL
________________________________________________________________________________


	BEGINNING GENETIC ALGORITHM DOCKING 45 of 100
Run: 45 Seed: 1132563029 1090020889 [ Run 45 of 100 GA/GALS ]
Beginning LAMARCKIAN GENETIC ALGORITHM (LGA), with a maximum of 2500000 energy evaluations.

Final-Value: -13.052


	FINAL GENETIC ALGORITHM DOCKED STATE
	_______________________________________________


Detailed state:  trans 20.815 -9.165 -3.338 quatxyzw -0.642068 -0.615827 0.428038 0.159028 center -0.963 -0.416 0.212 ntor 6 -180.0000 -152.3024 -53.1771 70.3083 71.7854 155.1182
State:	 20.815  -9.165  -3.338  -0.650 -0.624  0.434 161.699   -180.00 -152.30  -53.18   70.31   71.79  155.12

DOCKED: MODEL       45
DOCKED: USER    Run = 45
DOCKED: USER    DPF = ligand_dock.biased.dpf
DOCKED: USER  
DOCKED: USER    Estimated Free Energy of Binding    =  -10.07 kcal/mol  [=(1)+(2)+(3)-(4)]
DOCKED: USER    Estimated Inhibition Constant, Ki   =   41.36 nM (nanomolar)  [Temperature = 298.15 K]
DOCKED: USER    
DOCKED: USER    (1) Final Intermolecular Energy     =  -11.86 kcal/mol
DOCKED: USER        vdW + Hbond + desolv Energy     =  -11.86 kcal/mol
DOCKED: USER        Electrostatic Energy            =   +0.00 kcal/mol
DOCKED: USER    (2) Final Total Internal Energy     =   -1.19 kcal/mol
DOCKED: USER    (3) Torsional Free Energy           =   +1.79 kcal/mol
DOCKED: USER    (4) Unbound System's Energy  [=(2)] =   -1.19 kcal/mol
DOCKED: USER    
DOCKED: USER    
DOCKED: USER    NEWDPF move ligand.pdbqt
DOCKED: USER    NEWDPF about -0.963000 -0.416000 0.212000
DOCKED: USER    NEWDPF tran0 20.814868 -9.165336 -3.337859
DOCKED: USER    NEWDPF quaternion0 -0.642068 -0.615827 0.428038 0.159028
DOCKED: USER    NEWDPF axisangle0 -0.650344 -0.623765 0.433555 161.699059
DOCKED: USER    NEWDPF quat0 -0.650344 -0.623765 0.433555 161.699059
DOCKED: USER    NEWDPF dihe0 -180.00 -152.30 -53.18 70.31 71.79 155.12 
DOCKED: USER  keepresnum = 1 
DOCKED: USER  
DOCKED: REMARK  Name = 
DOCKED: REMARK  10 active torsions:
DOCKED: REMARK  status: ('A' for Active; 'I' for Inactive)
DOCKED: REMARK    1  A    between atoms: C_1  and  N_2
DOCKED: REMARK    2  A    between atoms: N_2  and  C_3
DOCKED: REMARK    3  A    between atoms: N_2  and  C_22
DOCKED: REMARK    4  A    between atoms: C_6  and  C_9
DOCKED: REMARK    5  A    between atoms: C_9  and  C_10
DOCKED: REMARK    6  A    between atoms: C_10  and  C_11
DOCKED: REMARK    7  A    between atoms: C_10  and  C_20
DOCKED: REMARK    8  A    between atoms: C_12  and  C_13
DOCKED: REMARK    9  A    between atoms: C_12  and  C_19
DOCKED: REMARK   10  A    between atoms: C_14  and  C_15
DOCKED: REMARK                            x       y       z     vdW  Elec       q    Type
DOCKED: REMARK                         _______ _______ _______ _____ _____    ______ ____
DOCKED: USER                              x       y       z     vdW  Elec       q    Type
DOCKED: USER                           _______ _______ _______ _____ _____    ______ ____
DOCKED: ROOT
DOCKED: ATOM      1  C   UNL     1      21.317 -10.267  -4.384 -0.48 -0.00    +0.000 C 
DOCKED: ATOM      2  C   UNL     1      21.730 -11.385  -5.345 -0.56 -0.00    +0.000 C 
DOCKED: ENDROOT
DOCKED: BRANCH   1   3
DOCKED: ATOM      3  C   UNL     1      20.958 -10.850  -3.032 -0.45 -0.00    +0.000 C 
DOCKED: ATOM      4  C   UNL     1      20.861 -10.142  -1.886 -0.59 -0.00    +0.000 C 
DOCKED: ATOM      5  C   UNL     1      21.098  -8.649  -1.849 -0.52 -0.00    +0.000 C 
DOCKED: BRANCH   4   6
DOCKED: ATOM      6  C   UNL     1      20.465 -10.869  -0.653 -0.57 -0.00    +0.000 C 
DOCKED: ATOM      7  C   UNL     1      20.815 -10.466   0.578 -0.68 -0.00    +0.000 C 
DOCKED: BRANCH   7   8
DOCKED: ATOM      8  C   UNL     1      20.424 -11.180   1.811 -0.74 -0.00    +0.000 C 
DOCKED: ATOM      9  N   UNL     1      20.625 -10.624   3.116 -0.65 -0.00    +0.000 N 
DOCKED: ATOM     10  O   UNL     1      20.156 -11.271   4.208 -1.07 -0.00    +0.000 OA
DOCKED: ATOM     11  O   UNL     1      19.918 -12.328   1.703 -1.78 -0.00    +0.000 OA
DOCKED: ATOM     12  H   UNL     1      21.106  -9.770   3.219 -0.60 -0.00    +0.000 HD
DOCKED: ENDBRANCH   7   8
DOCKED: ENDBRANCH   4   6
DOCKED: ENDBRANCH   1   3
DOCKED: BRANCH   1  13
DOCKED: ATOM     13  C   UNL     1      20.149  -9.495  -4.964 -0.29 -0.00    +0.000 C 
DOCKED: ATOM     14  O   UNL     1      20.215  -8.235  -5.021 -0.19 -0.00    +0.000 OA
DOCKED: BRANCH  13  18
DOCKED: ATOM     15  C   UNL     1      16.563 -11.444  -6.391 -0.29 -0.00    +0.000 A 
DOCKED: ATOM     16  C   UNL     1      17.708 -11.333  -7.205 -0.33 -0.00    +0.000 A 
DOCKED: ATOM     17  C   UNL     1      18.862 -10.700  -6.736 -0.30 -0.00    +0.000 A 
DOCKED: ATOM     18  C   UNL     1      18.911 -10.168  -5.438 -0.26 -0.00    +0.000 A 
DOCKED: ATOM     19  C   UNL     1      17.769 -10.265  -4.625 -0.24 -0.00    +0.000 A 
DOCKED: ATOM     20  C   UNL     1      16.614 -10.896  -5.094 -0.18 -0.00    +0.000 A 
DOCKED: BRANCH  15  22
DOCKED: ATOM     21  C   UNL     1      15.430 -13.040  -8.005 -0.45 +0.00    +0.000 C 
DOCKED: ATOM     22  N   UNL     1      15.363 -12.102  -6.877 -0.33 -0.00    +0.000 N 
DOCKED: ATOM     23  C   UNL     1      14.063 -11.840  -6.249 -0.30 -0.00    +0.000 C 
DOCKED: ENDBRANCH  15  22
DOCKED: ENDBRANCH  13  18
DOCKED: ENDBRANCH   1  13
DOCKED: TORSDOF 6
DOCKED: TER
DOCKED: ENDMDL
________________________________________________________________________________


	BEGINNING GENETIC ALGORITHM DOCKING 46 of 100
Run: 46 Seed: 1524461476 454062776 [ Run 46 of 100 GA/GALS ]
Beginning LAMARCKIAN GENETIC ALGORITHM (LGA), with a maximum of 2500000 energy evaluations.

Final-Value: -12.475


	FINAL GENETIC ALGORITHM DOCKED STATE
	_______________________________________________


Detailed state:  trans 19.536 -10.006 -3.422 quatxyzw 0.296417 0.808837 -0.306605 -0.404861 center -0.963 -0.416 0.212 ntor 6 -86.4774 150.0215 20.2268 -48.6211 22.5403 -74.5814
State:	 19.536 -10.006  -3.422   0.324  0.885 -0.335 -132.235    -86.48  150.02   20.23  -48.62   22.54  -74.58

DOCKED: MODEL       46
DOCKED: USER    Run = 46
DOCKED: USER    DPF = ligand_dock.biased.dpf
DOCKED: USER  
DOCKED: USER    Estimated Free Energy of Binding    =   -9.52 kcal/mol  [=(1)+(2)+(3)-(4)]
DOCKED: USER    Estimated Inhibition Constant, Ki   =  105.24 nM (nanomolar)  [Temperature = 298.15 K]
DOCKED: USER    
DOCKED: USER    (1) Final Intermolecular Energy     =  -11.31 kcal/mol
DOCKED: USER        vdW + Hbond + desolv Energy     =  -11.31 kcal/mol
DOCKED: USER        Electrostatic Energy            =   +0.00 kcal/mol
DOCKED: USER    (2) Final Total Internal Energy     =   -1.17 kcal/mol
DOCKED: USER    (3) Torsional Free Energy           =   +1.79 kcal/mol
DOCKED: USER    (4) Unbound System's Energy  [=(2)] =   -1.17 kcal/mol
DOCKED: USER    
DOCKED: USER    
DOCKED: USER    NEWDPF move ligand.pdbqt
DOCKED: USER    NEWDPF about -0.963000 -0.416000 0.212000
DOCKED: USER    NEWDPF tran0 19.535627 -10.006083 -3.422434
DOCKED: USER    NEWDPF quaternion0 0.296417 0.808837 -0.306605 -0.404861
DOCKED: USER    NEWDPF axisangle0 0.324174 0.884576 -0.335316 -132.235142
DOCKED: USER    NEWDPF quat0 0.324174 0.884576 -0.335316 -132.235142
DOCKED: USER    NEWDPF dihe0 -86.48 150.02 20.23 -48.62 22.54 -74.58 
DOCKED: USER  keepresnum = 1 
DOCKED: USER  
DOCKED: REMARK  Name = 
DOCKED: REMARK  10 active torsions:
DOCKED: REMARK  status: ('A' for Active; 'I' for Inactive)
DOCKED: REMARK    1  A    between atoms: C_1  and  N_2
DOCKED: REMARK    2  A    between atoms: N_2  and  C_3
DOCKED: REMARK    3  A    between atoms: N_2  and  C_22
DOCKED: REMARK    4  A    between atoms: C_6  and  C_9
DOCKED: REMARK    5  A    between atoms: C_9  and  C_10
DOCKED: REMARK    6  A    between atoms: C_10  and  C_11
DOCKED: REMARK    7  A    between atoms: C_10  and  C_20
DOCKED: REMARK    8  A    between atoms: C_12  and  C_13
DOCKED: REMARK    9  A    between atoms: C_12  and  C_19
DOCKED: REMARK   10  A    between atoms: C_14  and  C_15
DOCKED: REMARK                            x       y       z     vdW  Elec       q    Type
DOCKED: REMARK                         _______ _______ _______ _____ _____    ______ ____
DOCKED: USER                              x       y       z     vdW  Elec       q    Type
DOCKED: USER                           _______ _______ _______ _____ _____    ______ ____
DOCKED: ROOT
DOCKED: ATOM      1  C   UNL     1      20.861 -10.273  -4.278 -0.46 -0.00    +0.000 C 
DOCKED: ATOM      2  C   UNL     1      22.137 -10.619  -5.050 -0.33 -0.00    +0.000 C 
DOCKED: ENDROOT
DOCKED: BRANCH   1   3
DOCKED: ATOM      3  C   UNL     1      20.938 -10.830  -2.870 -0.44 -0.00    +0.000 C 
DOCKED: ATOM      4  C   UNL     1      20.991 -10.085  -1.746 -0.61 -0.00    +0.000 C 
DOCKED: ATOM      5  C   UNL     1      20.963  -8.573  -1.789 -0.49 -0.00    +0.000 C 
DOCKED: BRANCH   4   6
DOCKED: ATOM      6  C   UNL     1      21.030 -10.797  -0.443 -0.63 -0.00    +0.000 C 
DOCKED: ATOM      7  C   UNL     1      20.253 -10.461   0.598 -0.65 -0.00    +0.000 C 
DOCKED: BRANCH   7   8
DOCKED: ATOM      8  C   UNL     1      20.282 -11.165   1.897 -0.75 -0.00    +0.000 C 
DOCKED: ATOM      9  N   UNL     1      20.352 -10.467   3.146 -0.65 -0.00    +0.000 N 
DOCKED: ATOM     10  O   UNL     1      20.270 -11.152   4.311 -1.02 -0.00    +0.000 OA
DOCKED: ATOM     11  O   UNL     1      20.269 -12.425   1.896 -1.81 -0.00    +0.000 OA
DOCKED: ATOM     12  H   UNL     1      20.458  -9.488   3.158 -0.58 -0.00    +0.000 HD
DOCKED: ENDBRANCH   7   8
DOCKED: ENDBRANCH   4   6
DOCKED: ENDBRANCH   1   3
DOCKED: BRANCH   1  13
DOCKED: ATOM     13  C   UNL     1      19.653 -10.824  -5.009 -0.43 -0.00    +0.000 C 
DOCKED: ATOM     14  O   UNL     1      19.826 -11.472  -6.079 -0.42 -0.00    +0.000 OA
DOCKED: BRANCH  13  18
DOCKED: ATOM     15  C   UNL     1      15.601 -10.154  -3.655 -0.22 -0.00    +0.000 A 
DOCKED: ATOM     16  C   UNL     1      15.881 -10.469  -4.999 -0.21 -0.00    +0.000 A 
DOCKED: ATOM     17  C   UNL     1      17.193 -10.683  -5.428 -0.25 -0.00    +0.000 A 
DOCKED: ATOM     18  C   UNL     1      18.265 -10.598  -4.527 -0.26 -0.00    +0.000 A 
DOCKED: ATOM     19  C   UNL     1      17.995 -10.272  -3.186 -0.24 -0.00    +0.000 A 
DOCKED: ATOM     20  C   UNL     1      16.683 -10.057  -2.756 -0.21 -0.00    +0.000 A 
DOCKED: BRANCH  15  22
DOCKED: ATOM     21  C   UNL     1      13.604 -10.856  -2.257 -0.31 -0.00    +0.000 C 
DOCKED: ATOM     22  N   UNL     1      14.238  -9.933  -3.208 -0.20 -0.00    +0.000 N 
DOCKED: ATOM     23  C   UNL     1      13.470  -8.782  -3.698 -0.14 -0.00    +0.000 C 
DOCKED: ENDBRANCH  15  22
DOCKED: ENDBRANCH  13  18
DOCKED: ENDBRANCH   1  13
DOCKED: TORSDOF 6
DOCKED: TER
DOCKED: ENDMDL
________________________________________________________________________________


	BEGINNING GENETIC ALGORITHM DOCKING 47 of 100
Run: 47 Seed: 1137944758 1018398967 [ Run 47 of 100 GA/GALS ]
Beginning LAMARCKIAN GENETIC ALGORITHM (LGA), with a maximum of 2500000 energy evaluations.

Final-Value: -11.950


	FINAL GENETIC ALGORITHM DOCKED STATE
	_______________________________________________


Detailed state:  trans 19.911 -9.191 -3.237 quatxyzw 0.455152 -0.704155 0.425047 0.341083 center -0.963 -0.416 0.212 ntor 6 78.1244 -178.3391 72.4274 66.8586 -21.4071 -92.4300
State:	 19.911  -9.191  -3.237   0.484 -0.749  0.452 140.114     78.12 -178.34   72.43   66.86  -21.41  -92.43

DOCKED: MODEL       47
DOCKED: USER    Run = 47
DOCKED: USER    DPF = ligand_dock.biased.dpf
DOCKED: USER  
DOCKED: USER    Estimated Free Energy of Binding    =   -8.96 kcal/mol  [=(1)+(2)+(3)-(4)]
DOCKED: USER    Estimated Inhibition Constant, Ki   =  271.33 nM (nanomolar)  [Temperature = 298.15 K]
DOCKED: USER    
DOCKED: USER    (1) Final Intermolecular Energy     =  -10.75 kcal/mol
DOCKED: USER        vdW + Hbond + desolv Energy     =  -10.75 kcal/mol
DOCKED: USER        Electrostatic Energy            =   +0.00 kcal/mol
DOCKED: USER    (2) Final Total Internal Energy     =   -1.20 kcal/mol
DOCKED: USER    (3) Torsional Free Energy           =   +1.79 kcal/mol
DOCKED: USER    (4) Unbound System's Energy  [=(2)] =   -1.20 kcal/mol
DOCKED: USER    
DOCKED: USER    
DOCKED: USER    NEWDPF move ligand.pdbqt
DOCKED: USER    NEWDPF about -0.963000 -0.416000 0.212000
DOCKED: USER    NEWDPF tran0 19.911233 -9.190828 -3.237327
DOCKED: USER    NEWDPF quaternion0 0.455152 -0.704155 0.425047 0.341083
DOCKED: USER    NEWDPF axisangle0 0.484187 -0.749074 0.452162 140.114215
DOCKED: USER    NEWDPF quat0 0.484187 -0.749074 0.452162 140.114215
DOCKED: USER    NEWDPF dihe0 78.12 -178.34 72.43 66.86 -21.41 -92.43 
DOCKED: USER  keepresnum = 1 
DOCKED: USER  
DOCKED: REMARK  Name = 
DOCKED: REMARK  10 active torsions:
DOCKED: REMARK  status: ('A' for Active; 'I' for Inactive)
DOCKED: REMARK    1  A    between atoms: C_1  and  N_2
DOCKED: REMARK    2  A    between atoms: N_2  and  C_3
DOCKED: REMARK    3  A    between atoms: N_2  and  C_22
DOCKED: REMARK    4  A    between atoms: C_6  and  C_9
DOCKED: REMARK    5  A    between atoms: C_9  and  C_10
DOCKED: REMARK    6  A    between atoms: C_10  and  C_11
DOCKED: REMARK    7  A    between atoms: C_10  and  C_20
DOCKED: REMARK    8  A    between atoms: C_12  and  C_13
DOCKED: REMARK    9  A    between atoms: C_12  and  C_19
DOCKED: REMARK   10  A    between atoms: C_14  and  C_15
DOCKED: REMARK                            x       y       z     vdW  Elec       q    Type
DOCKED: REMARK                         _______ _______ _______ _____ _____    ______ ____
DOCKED: USER                              x       y       z     vdW  Elec       q    Type
DOCKED: USER                           _______ _______ _______ _____ _____    ______ ____
DOCKED: ROOT
DOCKED: ATOM      1  C   UNL     1      20.630  -9.316  -4.661 -0.33 -0.00    +0.000 C 
DOCKED: ATOM      2  C   UNL     1      21.404  -9.406  -5.979 -0.28 -0.00    +0.000 C 
DOCKED: ENDROOT
DOCKED: BRANCH   1   3
DOCKED: ATOM      3  C   UNL     1      21.133  -8.144  -3.841 -0.36 -0.00    +0.000 C 
DOCKED: ATOM      4  C   UNL     1      20.931  -6.845  -4.147 -0.27 -0.00    +0.000 C 
DOCKED: ATOM      5  C   UNL     1      20.148  -6.425  -5.371 -0.13 -0.00    +0.000 C 
DOCKED: BRANCH   4   6
DOCKED: ATOM      6  C   UNL     1      21.467  -5.822  -3.212 -0.34 -0.00    +0.000 C 
DOCKED: ATOM      7  C   UNL     1      20.838  -5.461  -2.084 -0.42 -0.00    +0.000 C 
DOCKED: BRANCH   7   8
DOCKED: ATOM      8  C   UNL     1      21.363  -4.447  -1.146 -0.37 +0.00    +0.000 C 
DOCKED: ATOM      9  N   UNL     1      20.547  -3.835  -0.141 -0.42 +0.00    +0.000 N 
DOCKED: ATOM     10  O   UNL     1      21.100  -2.991   0.761 -1.10 +0.00    +0.000 OA
DOCKED: ATOM     11  O   UNL     1      22.568  -4.096  -1.257 -0.85 +0.00    +0.000 OA
DOCKED: ATOM     12  H   UNL     1      19.582  -4.030  -0.105 -0.06 +0.00    +0.000 HD
DOCKED: ENDBRANCH   7   8
DOCKED: ENDBRANCH   4   6
DOCKED: ENDBRANCH   1   3
DOCKED: BRANCH   1  13
DOCKED: ATOM     13  C   UNL     1      20.776 -10.613  -3.890 -0.50 -0.00    +0.000 C 
DOCKED: ATOM     14  O   UNL     1      21.178 -11.645  -4.498 -0.56 -0.00    +0.000 OA
DOCKED: BRANCH  13  18
DOCKED: ATOM     15  C   UNL     1      19.816 -10.934   0.313 -0.55 -0.00    +0.000 A 
DOCKED: ATOM     16  C   UNL     1      21.091 -10.516  -0.116 -0.63 -0.00    +0.000 A 
DOCKED: ATOM     17  C   UNL     1      21.393 -10.416  -1.476 -0.55 -0.00    +0.000 A 
DOCKED: ATOM     18  C   UNL     1      20.429 -10.722  -2.449 -0.40 -0.00    +0.000 A 
DOCKED: ATOM     19  C   UNL     1      19.158 -11.152  -2.029 -0.33 -0.00    +0.000 A 
DOCKED: ATOM     20  C   UNL     1      18.856 -11.253  -0.669 -0.43 -0.00    +0.000 A 
DOCKED: BRANCH  15  22
DOCKED: ATOM     21  C   UNL     1      19.904 -12.221   2.497 -0.73 -0.00    +0.000 C 
DOCKED: ATOM     22  N   UNL     1      19.500 -11.037   1.726 -0.57 -0.00    +0.000 N 
DOCKED: ATOM     23  C   UNL     1      18.773  -9.961   2.409 -0.53 -0.00    +0.000 C 
DOCKED: ENDBRANCH  15  22
DOCKED: ENDBRANCH  13  18
DOCKED: ENDBRANCH   1  13
DOCKED: TORSDOF 6
DOCKED: TER
DOCKED: ENDMDL
________________________________________________________________________________


	BEGINNING GENETIC ALGORITHM DOCKING 48 of 100
Run: 48 Seed: 1300846070 1855213467 [ Run 48 of 100 GA/GALS ]
Beginning LAMARCKIAN GENETIC ALGORITHM (LGA), with a maximum of 2500000 energy evaluations.

Final-Value: -12.366


	FINAL GENETIC ALGORITHM DOCKED STATE
	_______________________________________________


Detailed state:  trans 19.400 -9.685 -3.847 quatxyzw 0.375095 0.785728 -0.295464 -0.393239 center -0.963 -0.416 0.212 ntor 6 -93.6430 -180.0000 -8.6554 -2.4850 18.1641 -95.1185
State:	 19.400  -9.685  -3.847   0.408  0.855 -0.321 -133.688    -93.64 -180.00   -8.66   -2.49   18.16  -95.12

DOCKED: MODEL       48
DOCKED: USER    Run = 48
DOCKED: USER    DPF = ligand_dock.biased.dpf
DOCKED: USER  
DOCKED: USER    Estimated Free Energy of Binding    =   -9.38 kcal/mol  [=(1)+(2)+(3)-(4)]
DOCKED: USER    Estimated Inhibition Constant, Ki   =  132.10 nM (nanomolar)  [Temperature = 298.15 K]
DOCKED: USER    
DOCKED: USER    (1) Final Intermolecular Energy     =  -11.17 kcal/mol
DOCKED: USER        vdW + Hbond + desolv Energy     =  -11.17 kcal/mol
DOCKED: USER        Electrostatic Energy            =   +0.00 kcal/mol
DOCKED: USER    (2) Final Total Internal Energy     =   -1.19 kcal/mol
DOCKED: USER    (3) Torsional Free Energy           =   +1.79 kcal/mol
DOCKED: USER    (4) Unbound System's Energy  [=(2)] =   -1.19 kcal/mol
DOCKED: USER    
DOCKED: USER    
DOCKED: USER    NEWDPF move ligand.pdbqt
DOCKED: USER    NEWDPF about -0.963000 -0.416000 0.212000
DOCKED: USER    NEWDPF tran0 19.399620 -9.684777 -3.846518
DOCKED: USER    NEWDPF quaternion0 0.375095 0.785728 -0.295464 -0.393239
DOCKED: USER    NEWDPF axisangle0 0.407962 0.854575 -0.321354 -133.687664
DOCKED: USER    NEWDPF quat0 0.407962 0.854575 -0.321354 -133.687664
DOCKED: USER    NEWDPF dihe0 -93.64 -180.00 -8.66 -2.49 18.16 -95.12 
DOCKED: USER  keepresnum = 1 
DOCKED: USER  
DOCKED: REMARK  Name = 
DOCKED: REMARK  10 active torsions:
DOCKED: REMARK  status: ('A' for Active; 'I' for Inactive)
DOCKED: REMARK    1  A    between atoms: C_1  and  N_2
DOCKED: REMARK    2  A    between atoms: N_2  and  C_3
DOCKED: REMARK    3  A    between atoms: N_2  and  C_22
DOCKED: REMARK    4  A    between atoms: C_6  and  C_9
DOCKED: REMARK    5  A    between atoms: C_9  and  C_10
DOCKED: REMARK    6  A    between atoms: C_10  and  C_11
DOCKED: REMARK    7  A    between atoms: C_10  and  C_20
DOCKED: REMARK    8  A    between atoms: C_12  and  C_13
DOCKED: REMARK    9  A    between atoms: C_12  and  C_19
DOCKED: REMARK   10  A    between atoms: C_14  and  C_15
DOCKED: REMARK                            x       y       z     vdW  Elec       q    Type
DOCKED: REMARK                         _______ _______ _______ _____ _____    ______ ____
DOCKED: USER                              x       y       z     vdW  Elec       q    Type
DOCKED: USER                           _______ _______ _______ _____ _____    ______ ____
DOCKED: ROOT
DOCKED: ATOM      1  C   UNL     1      20.725 -10.075  -4.654 -0.41 -0.00    +0.000 C 
DOCKED: ATOM      2  C   UNL     1      21.985 -10.541  -5.387 -0.42 -0.00    +0.000 C 
DOCKED: ENDROOT
DOCKED: BRANCH   1   3
DOCKED: ATOM      3  C   UNL     1      20.641 -10.735  -3.292 -0.50 -0.00    +0.000 C 
DOCKED: ATOM      4  C   UNL     1      20.811 -10.099  -2.113 -0.57 -0.00    +0.000 C 
DOCKED: ATOM      5  C   UNL     1      21.097  -8.616  -2.041 -0.51 -0.00    +0.000 C 
DOCKED: BRANCH   4   6
DOCKED: ATOM      6  C   UNL     1      20.661 -10.895  -0.868 -0.53 -0.00    +0.000 C 
DOCKED: ATOM      7  C   UNL     1      20.459 -10.339   0.336 -0.66 -0.00    +0.000 C 
DOCKED: BRANCH   7   8
DOCKED: ATOM      8  C   UNL     1      20.306 -11.121   1.580 -0.74 -0.00    +0.000 C 
DOCKED: ATOM      9  N   UNL     1      20.459 -10.536   2.879 -0.65 -0.00    +0.000 N 
DOCKED: ATOM     10  O   UNL     1      20.206 -11.270   3.987 -1.19 -0.00    +0.000 OA
DOCKED: ATOM     11  O   UNL     1      20.056 -12.352   1.486 -1.69 -0.00    +0.000 OA
DOCKED: ATOM     12  H   UNL     1      20.748  -9.598   2.965 -0.59 -0.00    +0.000 HD
DOCKED: ENDBRANCH   7   8
DOCKED: ENDBRANCH   4   6
DOCKED: ENDBRANCH   1   3
DOCKED: BRANCH   1  13
DOCKED: ATOM     13  C   UNL     1      19.498 -10.397  -5.484 -0.34 -0.00    +0.000 C 
DOCKED: ATOM     14  O   UNL     1      19.635 -10.614  -6.721 -0.32 -0.00    +0.000 OA
DOCKED: BRANCH  13  18
DOCKED: ATOM     15  C   UNL     1      15.507 -10.513  -3.827 -0.22 -0.00    +0.000 A 
DOCKED: ATOM     16  C   UNL     1      15.833 -11.224  -4.999 -0.14 -0.00    +0.000 A 
DOCKED: ATOM     17  C   UNL     1      17.125 -11.180  -5.528 -0.21 -0.00    +0.000 A 
DOCKED: ATOM     18  C   UNL     1      18.133 -10.433  -4.899 -0.27 -0.00    +0.000 A 
DOCKED: ATOM     19  C   UNL     1      17.811  -9.711  -3.736 -0.22 -0.00    +0.000 A 
DOCKED: ATOM     20  C   UNL     1      16.519  -9.753  -3.207 -0.21 -0.00    +0.000 A 
DOCKED: BRANCH  15  22
DOCKED: ATOM     21  C   UNL     1      13.885 -11.320  -2.051 -0.34 -0.00    +0.000 C 
DOCKED: ATOM     22  N   UNL     1      14.164 -10.559  -3.276 -0.26 -0.00    +0.000 N 
DOCKED: ATOM     23  C   UNL     1      13.063  -9.845  -3.933 -0.19 -0.00    +0.000 C 
DOCKED: ENDBRANCH  15  22
DOCKED: ENDBRANCH  13  18
DOCKED: ENDBRANCH   1  13
DOCKED: TORSDOF 6
DOCKED: TER
DOCKED: ENDMDL
________________________________________________________________________________


	BEGINNING GENETIC ALGORITHM DOCKING 49 of 100
Run: 49 Seed: 520906654 129196439 [ Run 49 of 100 GA/GALS ]
Beginning LAMARCKIAN GENETIC ALGORITHM (LGA), with a maximum of 2500000 energy evaluations.

Final-Value: -12.424


	FINAL GENETIC ALGORITHM DOCKED STATE
	_______________________________________________


Detailed state:  trans 21.312 -9.933 -4.003 quatxyzw -0.476345 0.417221 0.447225 -0.631674 center -0.963 -0.416 0.212 ntor 6 -141.5722 132.7408 -91.2965 -55.2166 26.6843 -38.8426
State:	 21.312  -9.933  -4.003  -0.614  0.538  0.577 -101.653   -141.57  132.74  -91.30  -55.22   26.68  -38.84

DOCKED: MODEL       49
DOCKED: USER    Run = 49
DOCKED: USER    DPF = ligand_dock.biased.dpf
DOCKED: USER  
DOCKED: USER    Estimated Free Energy of Binding    =   -9.49 kcal/mol  [=(1)+(2)+(3)-(4)]
DOCKED: USER    Estimated Inhibition Constant, Ki   =  110.52 nM (nanomolar)  [Temperature = 298.15 K]
DOCKED: USER    
DOCKED: USER    (1) Final Intermolecular Energy     =  -11.28 kcal/mol
DOCKED: USER        vdW + Hbond + desolv Energy     =  -11.28 kcal/mol
DOCKED: USER        Electrostatic Energy            =   +0.00 kcal/mol
DOCKED: USER    (2) Final Total Internal Energy     =   -1.14 kcal/mol
DOCKED: USER    (3) Torsional Free Energy           =   +1.79 kcal/mol
DOCKED: USER    (4) Unbound System's Energy  [=(2)] =   -1.14 kcal/mol
DOCKED: USER    
DOCKED: USER    
DOCKED: USER    NEWDPF move ligand.pdbqt
DOCKED: USER    NEWDPF about -0.963000 -0.416000 0.212000
DOCKED: USER    NEWDPF tran0 21.312127 -9.933131 -4.002689
DOCKED: USER    NEWDPF quaternion0 -0.476345 0.417221 0.447225 -0.631674
DOCKED: USER    NEWDPF axisangle0 -0.614453 0.538186 0.576891 -101.652582
DOCKED: USER    NEWDPF quat0 -0.614453 0.538186 0.576891 -101.652582
DOCKED: USER    NEWDPF dihe0 -141.57 132.74 -91.30 -55.22 26.68 -38.84 
DOCKED: USER  keepresnum = 1 
DOCKED: USER  
DOCKED: REMARK  Name = 
DOCKED: REMARK  10 active torsions:
DOCKED: REMARK  status: ('A' for Active; 'I' for Inactive)
DOCKED: REMARK    1  A    between atoms: C_1  and  N_2
DOCKED: REMARK    2  A    between atoms: N_2  and  C_3
DOCKED: REMARK    3  A    between atoms: N_2  and  C_22
DOCKED: REMARK    4  A    between atoms: C_6  and  C_9
DOCKED: REMARK    5  A    between atoms: C_9  and  C_10
DOCKED: REMARK    6  A    between atoms: C_10  and  C_11
DOCKED: REMARK    7  A    between atoms: C_10  and  C_20
DOCKED: REMARK    8  A    between atoms: C_12  and  C_13
DOCKED: REMARK    9  A    between atoms: C_12  and  C_19
DOCKED: REMARK   10  A    between atoms: C_14  and  C_15
DOCKED: REMARK                            x       y       z     vdW  Elec       q    Type
DOCKED: REMARK                         _______ _______ _______ _____ _____    ______ ____
DOCKED: USER                              x       y       z     vdW  Elec       q    Type
DOCKED: USER                           _______ _______ _______ _____ _____    ______ ____
DOCKED: ROOT
DOCKED: ATOM      1  C   UNL     1      20.460  -8.579  -3.986 -0.33 -0.00    +0.000 C 
DOCKED: ATOM      2  C   UNL     1      19.696  -7.256  -3.885 -0.15 -0.00    +0.000 C 
DOCKED: ENDROOT
DOCKED: BRANCH   1   3
DOCKED: ATOM      3  C   UNL     1      20.732  -9.129  -2.599 -0.48 -0.00    +0.000 C 
DOCKED: ATOM      4  C   UNL     1      20.272 -10.310  -2.134 -0.52 -0.00    +0.000 C 
DOCKED: ATOM      5  C   UNL     1      19.425 -11.229  -2.985 -0.37 -0.00    +0.000 C 
DOCKED: BRANCH   4   6
DOCKED: ATOM      6  C   UNL     1      20.663 -10.711  -0.757 -0.60 -0.00    +0.000 C 
DOCKED: ATOM      7  C   UNL     1      19.779 -10.848   0.243 -0.61 -0.00    +0.000 C 
DOCKED: BRANCH   7   8
DOCKED: ATOM      8  C   UNL     1      20.156 -11.250   1.614 -0.74 -0.00    +0.000 C 
DOCKED: ATOM      9  N   UNL     1      20.002 -10.378   2.739 -0.60 -0.00    +0.000 N 
DOCKED: ATOM     10  O   UNL     1      20.263 -10.829   3.988 -1.10 -0.00    +0.000 OA
DOCKED: ATOM     11  O   UNL     1      20.652 -12.395   1.787 -1.67 -0.00    +0.000 OA
DOCKED: ATOM     12  H   UNL     1      19.704  -9.448   2.604 -0.50 -0.00    +0.000 HD
DOCKED: ENDBRANCH   7   8
DOCKED: ENDBRANCH   4   6
DOCKED: ENDBRANCH   1   3
DOCKED: BRANCH   1  13
DOCKED: ATOM     13  C   UNL     1      21.756  -8.367  -4.743 -0.29 -0.00    +0.000 C 
DOCKED: ATOM     14  O   UNL     1      22.392  -7.288  -4.580 -0.20 -0.00    +0.000 OA
DOCKED: BRANCH  13  18
DOCKED: ATOM     15  C   UNL     1      23.307 -11.257  -7.561 -0.40 -0.00    +0.000 A 
DOCKED: ATOM     16  C   UNL     1      23.570  -9.880  -7.705 -0.25 -0.00    +0.000 A 
DOCKED: ATOM     17  C   UNL     1      23.064  -8.953  -6.791 -0.21 -0.00    +0.000 A 
DOCKED: ATOM     18  C   UNL     1      22.288  -9.373  -5.699 -0.23 -0.00    +0.000 A 
DOCKED: ATOM     19  C   UNL     1      22.010 -10.743  -5.556 -0.39 -0.00    +0.000 A 
DOCKED: ATOM     20  C   UNL     1      22.515 -11.671  -6.471 -0.44 -0.00    +0.000 A 
DOCKED: BRANCH  15  22
DOCKED: ATOM     21  C   UNL     1      25.281 -12.342  -8.728 -0.40 -0.00    +0.000 C 
DOCKED: ATOM     22  N   UNL     1      23.833 -12.221  -8.510 -0.43 -0.00    +0.000 N 
DOCKED: ATOM     23  C   UNL     1      22.927 -13.092  -9.269 -0.39 -0.00    +0.000 C 
DOCKED: ENDBRANCH  15  22
DOCKED: ENDBRANCH  13  18
DOCKED: ENDBRANCH   1  13
DOCKED: TORSDOF 6
DOCKED: TER
DOCKED: ENDMDL
________________________________________________________________________________


	BEGINNING GENETIC ALGORITHM DOCKING 50 of 100
Run: 50 Seed: 1060741786 549716869 [ Run 50 of 100 GA/GALS ]
Beginning LAMARCKIAN GENETIC ALGORITHM (LGA), with a maximum of 2500000 energy evaluations.

Final-Value: -11.626


	FINAL GENETIC ALGORITHM DOCKED STATE
	_______________________________________________


Detailed state:  trans 21.248 -8.896 -4.208 quatxyzw 0.620004 -0.032749 -0.627572 0.469761 center -0.963 -0.416 0.212 ntor 6 -132.0466 -89.8418 -163.3795 47.8437 49.6845 -173.5027
State:	 21.248  -8.896  -4.208   0.702 -0.037 -0.711 123.962   -132.05  -89.84 -163.38   47.84   49.68 -173.50

DOCKED: MODEL       50
DOCKED: USER    Run = 50
DOCKED: USER    DPF = ligand_dock.biased.dpf
DOCKED: USER  
DOCKED: USER    Estimated Free Energy of Binding    =   -8.51 kcal/mol  [=(1)+(2)+(3)-(4)]
DOCKED: USER    Estimated Inhibition Constant, Ki   =  576.36 nM (nanomolar)  [Temperature = 298.15 K]
DOCKED: USER    
DOCKED: USER    (1) Final Intermolecular Energy     =  -10.30 kcal/mol
DOCKED: USER        vdW + Hbond + desolv Energy     =  -10.30 kcal/mol
DOCKED: USER        Electrostatic Energy            =   +0.00 kcal/mol
DOCKED: USER    (2) Final Total Internal Energy     =   -1.32 kcal/mol
DOCKED: USER    (3) Torsional Free Energy           =   +1.79 kcal/mol
DOCKED: USER    (4) Unbound System's Energy  [=(2)] =   -1.32 kcal/mol
DOCKED: USER    
DOCKED: USER    
DOCKED: USER    NEWDPF move ligand.pdbqt
DOCKED: USER    NEWDPF about -0.963000 -0.416000 0.212000
DOCKED: USER    NEWDPF tran0 21.248229 -8.896413 -4.207795
DOCKED: USER    NEWDPF quaternion0 0.620004 -0.032749 -0.627572 0.469761
DOCKED: USER    NEWDPF axisangle0 0.702321 -0.037097 -0.710893 123.962370
DOCKED: USER    NEWDPF quat0 0.702321 -0.037097 -0.710893 123.962370
DOCKED: USER    NEWDPF dihe0 -132.05 -89.84 -163.38 47.84 49.68 -173.50 
DOCKED: USER  keepresnum = 1 
DOCKED: USER  
DOCKED: REMARK  Name = 
DOCKED: REMARK  10 active torsions:
DOCKED: REMARK  status: ('A' for Active; 'I' for Inactive)
DOCKED: REMARK    1  A    between atoms: C_1  and  N_2
DOCKED: REMARK    2  A    between atoms: N_2  and  C_3
DOCKED: REMARK    3  A    between atoms: N_2  and  C_22
DOCKED: REMARK    4  A    between atoms: C_6  and  C_9
DOCKED: REMARK    5  A    between atoms: C_9  and  C_10
DOCKED: REMARK    6  A    between atoms: C_10  and  C_11
DOCKED: REMARK    7  A    between atoms: C_10  and  C_20
DOCKED: REMARK    8  A    between atoms: C_12  and  C_13
DOCKED: REMARK    9  A    between atoms: C_12  and  C_19
DOCKED: REMARK   10  A    between atoms: C_14  and  C_15
DOCKED: REMARK                            x       y       z     vdW  Elec       q    Type
DOCKED: REMARK                         _______ _______ _______ _____ _____    ______ ____
DOCKED: USER                              x       y       z     vdW  Elec       q    Type
DOCKED: USER                           _______ _______ _______ _____ _____    ______ ____
DOCKED: ROOT
DOCKED: ATOM      1  C   UNL     1      19.683  -8.691  -4.470 -0.25 -0.00    +0.000 C 
DOCKED: ATOM      2  C   UNL     1      18.177  -8.464  -4.624 -0.19 -0.00    +0.000 C 
DOCKED: ENDROOT
DOCKED: BRANCH   1   3
DOCKED: ATOM      3  C   UNL     1      19.991  -9.209  -3.079 -0.34 -0.00    +0.000 C 
DOCKED: ATOM      4  C   UNL     1      20.915 -10.151  -2.793 -0.54 -0.00    +0.000 C 
DOCKED: ATOM      5  C   UNL     1      21.766 -10.788  -3.869 -0.47 -0.00    +0.000 C 
DOCKED: BRANCH   4   6
DOCKED: ATOM      6  C   UNL     1      21.111 -10.519  -1.367 -0.63 -0.00    +0.000 C 
DOCKED: ATOM      7  C   UNL     1      20.093 -10.708  -0.514 -0.59 -0.00    +0.000 C 
DOCKED: BRANCH   7   8
DOCKED: ATOM      8  C   UNL     1      20.276 -11.077   0.905 -0.70 -0.00    +0.000 C 
DOCKED: ATOM      9  N   UNL     1      19.979 -12.387   1.402 -0.69 -0.00    +0.000 N 
DOCKED: ATOM     10  O   UNL     1      20.262 -12.706   2.686 -1.56 -0.00    +0.000 OA
DOCKED: ATOM     11  O   UNL     1      20.686 -10.195   1.705 -0.67 -0.00    +0.000 OA
DOCKED: ATOM     12  H   UNL     1      19.568 -13.057   0.807 -0.50 -0.00    +0.000 HD
DOCKED: ENDBRANCH   7   8
DOCKED: ENDBRANCH   4   6
DOCKED: ENDBRANCH   1   3
DOCKED: BRANCH   1  13
DOCKED: ATOM     13  C   UNL     1      20.428  -7.399  -4.739 -0.22 -0.00    +0.000 C 
DOCKED: ATOM     14  O   UNL     1      20.932  -7.208  -5.882 -0.13 -0.00    +0.000 OA
DOCKED: BRANCH  13  18
DOCKED: ATOM     15  C   UNL     1      20.961  -4.342  -1.729 -0.37 -0.00    +0.000 A 
DOCKED: ATOM     16  C   UNL     1      20.044  -4.176  -2.785 -0.21 -0.00    +0.000 A 
DOCKED: ATOM     17  C   UNL     1      19.879  -5.168  -3.754 -0.15 -0.00    +0.000 A 
DOCKED: ATOM     18  C   UNL     1      20.617  -6.360  -3.693 -0.25 -0.00    +0.000 A 
DOCKED: ATOM     19  C   UNL     1      21.543  -6.528  -2.649 -0.37 -0.00    +0.000 A 
DOCKED: ATOM     20  C   UNL     1      21.710  -5.535  -1.679 -0.33 +0.00    +0.000 A 
DOCKED: BRANCH  15  22
DOCKED: ATOM     21  C   UNL     1      20.059  -3.018   0.239 -0.43 -0.00    +0.000 C 
DOCKED: ATOM     22  N   UNL     1      21.132  -3.311  -0.720 -0.38 +0.00    +0.000 N 
DOCKED: ATOM     23  C   UNL     1      22.382  -2.545  -0.642 -0.33 +0.00    +0.000 C 
DOCKED: ENDBRANCH  15  22
DOCKED: ENDBRANCH  13  18
DOCKED: ENDBRANCH   1  13
DOCKED: TORSDOF 6
DOCKED: TER
DOCKED: ENDMDL
________________________________________________________________________________


	BEGINNING GENETIC ALGORITHM DOCKING 51 of 100
Run: 51 Seed: 1068798568 200233713 [ Run 51 of 100 GA/GALS ]
Beginning LAMARCKIAN GENETIC ALGORITHM (LGA), with a maximum of 2500000 energy evaluations.

Final-Value: -11.758


	FINAL GENETIC ALGORITHM DOCKED STATE
	_______________________________________________


Detailed state:  trans 18.134 -10.130 -3.499 quatxyzw -0.054338 0.827936 -0.090581 -0.550785 center -0.963 -0.416 0.212 ntor 6 -148.6681 53.9187 -146.5665 125.7419 -146.1447 -30.9742
State:	 18.134 -10.130  -3.499  -0.065  0.992 -0.109 -113.158   -148.67   53.92 -146.57  125.74 -146.14  -30.97

DOCKED: MODEL       51
DOCKED: USER    Run = 51
DOCKED: USER    DPF = ligand_dock.biased.dpf
DOCKED: USER  
DOCKED: USER    Estimated Free Energy of Binding    =   -9.07 kcal/mol  [=(1)+(2)+(3)-(4)]
DOCKED: USER    Estimated Inhibition Constant, Ki   =  224.65 nM (nanomolar)  [Temperature = 298.15 K]
DOCKED: USER    
DOCKED: USER    (1) Final Intermolecular Energy     =  -10.86 kcal/mol
DOCKED: USER        vdW + Hbond + desolv Energy     =  -10.86 kcal/mol
DOCKED: USER        Electrostatic Energy            =   +0.00 kcal/mol
DOCKED: USER    (2) Final Total Internal Energy     =   -0.90 kcal/mol
DOCKED: USER    (3) Torsional Free Energy           =   +1.79 kcal/mol
DOCKED: USER    (4) Unbound System's Energy  [=(2)] =   -0.90 kcal/mol
DOCKED: USER    
DOCKED: USER    
DOCKED: USER    NEWDPF move ligand.pdbqt
DOCKED: USER    NEWDPF about -0.963000 -0.416000 0.212000
DOCKED: USER    NEWDPF tran0 18.133859 -10.130479 -3.498970
DOCKED: USER    NEWDPF quaternion0 -0.054338 0.827936 -0.090581 -0.550785
DOCKED: USER    NEWDPF axisangle0 -0.065103 0.991959 -0.108526 -113.158173
DOCKED: USER    NEWDPF quat0 -0.065103 0.991959 -0.108526 -113.158173
DOCKED: USER    NEWDPF dihe0 -148.67 53.92 -146.57 125.74 -146.14 -30.97 
DOCKED: USER  keepresnum = 1 
DOCKED: USER  
DOCKED: REMARK  Name = 
DOCKED: REMARK  10 active torsions:
DOCKED: REMARK  status: ('A' for Active; 'I' for Inactive)
DOCKED: REMARK    1  A    between atoms: C_1  and  N_2
DOCKED: REMARK    2  A    between atoms: N_2  and  C_3
DOCKED: REMARK    3  A    between atoms: N_2  and  C_22
DOCKED: REMARK    4  A    between atoms: C_6  and  C_9
DOCKED: REMARK    5  A    between atoms: C_9  and  C_10
DOCKED: REMARK    6  A    between atoms: C_10  and  C_11
DOCKED: REMARK    7  A    between atoms: C_10  and  C_20
DOCKED: REMARK    8  A    between atoms: C_12  and  C_13
DOCKED: REMARK    9  A    between atoms: C_12  and  C_19
DOCKED: REMARK   10  A    between atoms: C_14  and  C_15
DOCKED: REMARK                            x       y       z     vdW  Elec       q    Type
DOCKED: REMARK                         _______ _______ _______ _____ _____    ______ ____
DOCKED: USER                              x       y       z     vdW  Elec       q    Type
DOCKED: USER                           _______ _______ _______ _____ _____    ______ ____
DOCKED: ROOT
DOCKED: ATOM      1  C   UNL     1      19.287  -9.250  -4.175 -0.27 -0.00    +0.000 C 
DOCKED: ATOM      2  C   UNL     1      20.457  -8.462  -4.769 -0.26 -0.00    +0.000 C 
DOCKED: ENDROOT
DOCKED: BRANCH   1   3
DOCKED: ATOM      3  C   UNL     1      19.585  -9.618  -2.734 -0.29 -0.00    +0.000 C 
DOCKED: ATOM      4  C   UNL     1      20.685 -10.279  -2.318 -0.55 -0.00    +0.000 C 
DOCKED: ATOM      5  C   UNL     1      21.765 -10.718  -3.281 -0.39 -0.00    +0.000 C 
DOCKED: BRANCH   4   6
DOCKED: ATOM      6  C   UNL     1      20.833 -10.530  -0.861 -0.65 -0.00    +0.000 C 
DOCKED: ATOM      7  C   UNL     1      19.946 -11.238  -0.146 -0.57 -0.00    +0.000 C 
DOCKED: BRANCH   7   8
DOCKED: ATOM      8  C   UNL     1      20.085 -11.496   1.302 -0.74 -0.00    +0.000 C 
DOCKED: ATOM      9  N   UNL     1      20.627 -10.526   2.205 -0.60 -0.00    +0.000 N 
DOCKED: ATOM     10  O   UNL     1      20.637 -10.770   3.536 -1.19 -0.00    +0.000 OA
DOCKED: ATOM     11  O   UNL     1      19.734 -12.622   1.746 -1.63 -0.00    +0.000 OA
DOCKED: ATOM     12  H   UNL     1      20.992  -9.680   1.858 -0.54 -0.00    +0.000 HD
DOCKED: ENDBRANCH   7   8
DOCKED: ENDBRANCH   4   6
DOCKED: ENDBRANCH   1   3
DOCKED: BRANCH   1  13
DOCKED: ATOM     13  C   UNL     1      19.029 -10.492  -5.004 -0.35 -0.00    +0.000 C 
DOCKED: ATOM     14  O   UNL     1      20.010 -11.196  -5.375 -0.46 -0.00    +0.000 OA
DOCKED: BRANCH  13  18
DOCKED: ATOM     15  C   UNL     1      15.035 -11.656  -6.183 -0.27 -0.00    +0.000 A 
DOCKED: ATOM     16  C   UNL     1      15.264 -10.912  -5.008 -0.23 -0.00    +0.000 A 
DOCKED: ATOM     17  C   UNL     1      16.557 -10.541  -4.634 -0.19 -0.00    +0.000 A 
DOCKED: ATOM     18  C   UNL     1      17.661 -10.894  -5.426 -0.28 -0.00    +0.000 A 
DOCKED: ATOM     19  C   UNL     1      17.443 -11.646  -6.593 -0.31 -0.00    +0.000 A 
DOCKED: ATOM     20  C   UNL     1      16.149 -12.019  -6.967 -0.29 -0.00    +0.000 A 
DOCKED: BRANCH  15  22
DOCKED: ATOM     21  C   UNL     1      12.621 -11.038  -6.657 -0.15 -0.00    +0.000 C 
DOCKED: ATOM     22  N   UNL     1      13.691 -12.041  -6.573 -0.26 -0.00    +0.000 N 
DOCKED: ATOM     23  C   UNL     1      13.378 -13.440  -6.889 -0.40 -0.00    +0.000 C 
DOCKED: ENDBRANCH  15  22
DOCKED: ENDBRANCH  13  18
DOCKED: ENDBRANCH   1  13
DOCKED: TORSDOF 6
DOCKED: TER
DOCKED: ENDMDL
________________________________________________________________________________


	BEGINNING GENETIC ALGORITHM DOCKING 52 of 100
Run: 52 Seed: 1124146897 1943327766 [ Run 52 of 100 GA/GALS ]
Beginning LAMARCKIAN GENETIC ALGORITHM (LGA), with a maximum of 2500000 energy evaluations.

Final-Value: -12.792


	FINAL GENETIC ALGORITHM DOCKED STATE
	_______________________________________________


Detailed state:  trans 22.406 -7.863 -3.045 quatxyzw -0.674389 -0.031571 0.542055 -0.500379 center -0.963 -0.416 0.212 ntor 6 12.8039 38.1220 -76.7583 -55.7092 11.8557 179.9371
State:	 22.406  -7.863  -3.045  -0.779 -0.036  0.626 -119.950     12.80   38.12  -76.76  -55.71   11.86  179.94

DOCKED: MODEL       52
DOCKED: USER    Run = 52
DOCKED: USER    DPF = ligand_dock.biased.dpf
DOCKED: USER  
DOCKED: USER    Estimated Free Energy of Binding    =   -9.90 kcal/mol  [=(1)+(2)+(3)-(4)]
DOCKED: USER    Estimated Inhibition Constant, Ki   =   55.23 nM (nanomolar)  [Temperature = 298.15 K]
DOCKED: USER    
DOCKED: USER    (1) Final Intermolecular Energy     =  -11.69 kcal/mol
DOCKED: USER        vdW + Hbond + desolv Energy     =  -11.69 kcal/mol
DOCKED: USER        Electrostatic Energy            =   +0.00 kcal/mol
DOCKED: USER    (2) Final Total Internal Energy     =   -1.10 kcal/mol
DOCKED: USER    (3) Torsional Free Energy           =   +1.79 kcal/mol
DOCKED: USER    (4) Unbound System's Energy  [=(2)] =   -1.10 kcal/mol
DOCKED: USER    
DOCKED: USER    
DOCKED: USER    NEWDPF move ligand.pdbqt
DOCKED: USER    NEWDPF about -0.963000 -0.416000 0.212000
DOCKED: USER    NEWDPF tran0 22.406495 -7.862780 -3.045336
DOCKED: USER    NEWDPF quaternion0 -0.674389 -0.031571 0.542055 -0.500379
DOCKED: USER    NEWDPF axisangle0 -0.778914 -0.036464 0.626069 -119.949831
DOCKED: USER    NEWDPF quat0 -0.778914 -0.036464 0.626069 -119.949831
DOCKED: USER    NEWDPF dihe0 12.80 38.12 -76.76 -55.71 11.86 179.94 
DOCKED: USER  keepresnum = 1 
DOCKED: USER  
DOCKED: REMARK  Name = 
DOCKED: REMARK  10 active torsions:
DOCKED: REMARK  status: ('A' for Active; 'I' for Inactive)
DOCKED: REMARK    1  A    between atoms: C_1  and  N_2
DOCKED: REMARK    2  A    between atoms: N_2  and  C_3
DOCKED: REMARK    3  A    between atoms: N_2  and  C_22
DOCKED: REMARK    4  A    between atoms: C_6  and  C_9
DOCKED: REMARK    5  A    between atoms: C_9  and  C_10
DOCKED: REMARK    6  A    between atoms: C_10  and  C_11
DOCKED: REMARK    7  A    between atoms: C_10  and  C_20
DOCKED: REMARK    8  A    between atoms: C_12  and  C_13
DOCKED: REMARK    9  A    between atoms: C_12  and  C_19
DOCKED: REMARK   10  A    between atoms: C_14  and  C_15
DOCKED: REMARK                            x       y       z     vdW  Elec       q    Type
DOCKED: REMARK                         _______ _______ _______ _____ _____    ______ ____
DOCKED: USER                              x       y       z     vdW  Elec       q    Type
DOCKED: USER                           _______ _______ _______ _____ _____    ______ ____
DOCKED: ROOT
DOCKED: ATOM      1  C   UNL     1      20.954  -7.576  -3.652 -0.35 -0.00    +0.000 C 
DOCKED: ATOM      2  C   UNL     1      19.534  -7.277  -4.139 -0.16 -0.00    +0.000 C 
DOCKED: ENDROOT
DOCKED: BRANCH   1   3
DOCKED: ATOM      3  C   UNL     1      20.910  -8.186  -2.265 -0.42 -0.00    +0.000 C 
DOCKED: ATOM      4  C   UNL     1      21.089  -9.496  -1.991 -0.58 -0.00    +0.000 C 
DOCKED: ATOM      5  C   UNL     1      21.371 -10.508  -3.079 -0.54 -0.00    +0.000 C 
DOCKED: BRANCH   4   6
DOCKED: ATOM      6  C   UNL     1      21.046  -9.918  -0.567 -0.68 -0.00    +0.000 C 
DOCKED: ATOM      7  C   UNL     1      20.291 -10.937  -0.129 -0.63 -0.00    +0.000 C 
DOCKED: BRANCH   7   8
DOCKED: ATOM      8  C   UNL     1      20.244 -11.368   1.284 -0.74 -0.00    +0.000 C 
DOCKED: ATOM      9  N   UNL     1      20.638 -10.511   2.361 -0.59 -0.00    +0.000 N 
DOCKED: ATOM     10  O   UNL     1      20.477 -10.914   3.643 -1.21 -0.00    +0.000 OA
DOCKED: ATOM     11  O   UNL     1      19.864 -12.542   1.539 -1.63 -0.00    +0.000 OA
DOCKED: ATOM     12  H   UNL     1      21.026  -9.626   2.169 -0.57 -0.00    +0.000 HD
DOCKED: ENDBRANCH   7   8
DOCKED: ENDBRANCH   4   6
DOCKED: ENDBRANCH   1   3
DOCKED: BRANCH   1  13
DOCKED: ATOM     13  C   UNL     1      21.777  -6.304  -3.654 -0.29 -0.00    +0.000 C 
DOCKED: ATOM     14  O   UNL     1      22.632  -6.128  -4.567 -0.20 -0.00    +0.000 OA
DOCKED: BRANCH  13  18
DOCKED: ATOM     15  C   UNL     1      21.422  -3.292  -0.572 -0.35 +0.00    +0.000 A 
DOCKED: ATOM     16  C   UNL     1      22.637  -3.502  -1.253 -0.20 +0.00    +0.000 A 
DOCKED: ATOM     17  C   UNL     1      22.744  -4.478  -2.247 -0.30 -0.00    +0.000 A 
DOCKED: ATOM     18  C   UNL     1      21.638  -5.268  -2.598 -0.34 -0.00    +0.000 A 
DOCKED: ATOM     19  C   UNL     1      20.425  -5.073  -1.914 -0.27 -0.00    +0.000 A 
DOCKED: ATOM     20  C   UNL     1      20.318  -4.098  -0.919 -0.38 +0.00    +0.000 A 
DOCKED: BRANCH  15  22
DOCKED: ATOM     21  C   UNL     1      20.427  -2.482   1.616 -0.52 -0.00    +0.000 C 
DOCKED: ATOM     22  N   UNL     1      21.310  -2.278   0.460 -0.40 -0.00    +0.000 N 
DOCKED: ATOM     23  C   UNL     1      22.078  -1.030   0.367 -0.32 -0.00    +0.000 C 
DOCKED: ENDBRANCH  15  22
DOCKED: ENDBRANCH  13  18
DOCKED: ENDBRANCH   1  13
DOCKED: TORSDOF 6
DOCKED: TER
DOCKED: ENDMDL
________________________________________________________________________________


	BEGINNING GENETIC ALGORITHM DOCKING 53 of 100
Run: 53 Seed: 702527088 1398856916 [ Run 53 of 100 GA/GALS ]
Beginning LAMARCKIAN GENETIC ALGORITHM (LGA), with a maximum of 2500000 energy evaluations.

Final-Value: -12.297


	FINAL GENETIC ALGORITHM DOCKED STATE
	_______________________________________________


Detailed state:  trans 20.856 -8.936 -3.512 quatxyzw 0.611024 0.665163 -0.398470 -0.159467 center -0.963 -0.416 0.212 ntor 6 -53.0259 179.4450 -14.8474 45.6822 64.2247 -159.0231
State:	 20.856  -8.936  -3.512   0.619  0.674 -0.404 -161.648    -53.03  179.45  -14.85   45.68   64.22 -159.02

DOCKED: MODEL       53
DOCKED: USER    Run = 53
DOCKED: USER    DPF = ligand_dock.biased.dpf
DOCKED: USER  
DOCKED: USER    Estimated Free Energy of Binding    =   -9.17 kcal/mol  [=(1)+(2)+(3)-(4)]
DOCKED: USER    Estimated Inhibition Constant, Ki   =  190.12 nM (nanomolar)  [Temperature = 298.15 K]
DOCKED: USER    
DOCKED: USER    (1) Final Intermolecular Energy     =  -10.96 kcal/mol
DOCKED: USER        vdW + Hbond + desolv Energy     =  -10.96 kcal/mol
DOCKED: USER        Electrostatic Energy            =   +0.00 kcal/mol
DOCKED: USER    (2) Final Total Internal Energy     =   -1.34 kcal/mol
DOCKED: USER    (3) Torsional Free Energy           =   +1.79 kcal/mol
DOCKED: USER    (4) Unbound System's Energy  [=(2)] =   -1.34 kcal/mol
DOCKED: USER    
DOCKED: USER    
DOCKED: USER    NEWDPF move ligand.pdbqt
DOCKED: USER    NEWDPF about -0.963000 -0.416000 0.212000
DOCKED: USER    NEWDPF tran0 20.856405 -8.936220 -3.512394
DOCKED: USER    NEWDPF quaternion0 0.611024 0.665163 -0.398470 -0.159467
DOCKED: USER    NEWDPF axisangle0 0.618944 0.673785 -0.403635 -161.648034
DOCKED: USER    NEWDPF quat0 0.618944 0.673785 -0.403635 -161.648034
DOCKED: USER    NEWDPF dihe0 -53.03 179.45 -14.85 45.68 64.22 -159.02 
DOCKED: USER  keepresnum = 1 
DOCKED: USER  
DOCKED: REMARK  Name = 
DOCKED: REMARK  10 active torsions:
DOCKED: REMARK  status: ('A' for Active; 'I' for Inactive)
DOCKED: REMARK    1  A    between atoms: C_1  and  N_2
DOCKED: REMARK    2  A    between atoms: N_2  and  C_3
DOCKED: REMARK    3  A    between atoms: N_2  and  C_22
DOCKED: REMARK    4  A    between atoms: C_6  and  C_9
DOCKED: REMARK    5  A    between atoms: C_9  and  C_10
DOCKED: REMARK    6  A    between atoms: C_10  and  C_11
DOCKED: REMARK    7  A    between atoms: C_10  and  C_20
DOCKED: REMARK    8  A    between atoms: C_12  and  C_13
DOCKED: REMARK    9  A    between atoms: C_12  and  C_19
DOCKED: REMARK   10  A    between atoms: C_14  and  C_15
DOCKED: REMARK                            x       y       z     vdW  Elec       q    Type
DOCKED: REMARK                         _______ _______ _______ _____ _____    ______ ____
DOCKED: USER                              x       y       z     vdW  Elec       q    Type
DOCKED: USER                           _______ _______ _______ _____ _____    ______ ____
DOCKED: ROOT
DOCKED: ATOM      1  C   UNL     1      21.470  -9.902  -4.631 -0.42 -0.00    +0.000 C 
DOCKED: ATOM      2  C   UNL     1      21.997 -10.899  -5.666 -0.47 -0.00    +0.000 C 
DOCKED: ENDROOT
DOCKED: BRANCH   1   3
DOCKED: ATOM      3  C   UNL     1      21.188 -10.611  -3.322 -0.52 -0.00    +0.000 C 
DOCKED: ATOM      4  C   UNL     1      21.165 -10.017  -2.110 -0.58 -0.00    +0.000 C 
DOCKED: ATOM      5  C   UNL     1      21.415  -8.534  -1.944 -0.49 -0.00    +0.000 C 
DOCKED: BRANCH   4   6
DOCKED: ATOM      6  C   UNL     1      20.838 -10.859  -0.931 -0.53 -0.00    +0.000 C 
DOCKED: ATOM      7  C   UNL     1      20.562 -10.347   0.279 -0.67 -0.00    +0.000 C 
DOCKED: BRANCH   7   8
DOCKED: ATOM      8  C   UNL     1      20.233 -11.175   1.458 -0.74 -0.00    +0.000 C 
DOCKED: ATOM      9  N   UNL     1      20.314 -10.671   2.796 -0.67 -0.00    +0.000 N 
DOCKED: ATOM     10  O   UNL     1      19.901 -11.435   3.834 -1.22 -0.00    +0.000 OA
DOCKED: ATOM     11  O   UNL     1      19.892 -12.374   1.271 -1.58 -0.00    +0.000 OA
DOCKED: ATOM     12  H   UNL     1      20.669  -9.768   2.961 -0.59 -0.00    +0.000 HD
DOCKED: ENDBRANCH   7   8
DOCKED: ENDBRANCH   4   6
DOCKED: ENDBRANCH   1   3
DOCKED: BRANCH   1  13
DOCKED: ATOM     13  C   UNL     1      20.219  -9.227  -5.158 -0.26 -0.00    +0.000 C 
DOCKED: ATOM     14  O   UNL     1      20.337  -8.230  -5.925 -0.14 -0.00    +0.000 OA
DOCKED: BRANCH  13  18
DOCKED: ATOM     15  C   UNL     1      16.238 -10.535  -4.092 -0.17 -0.00    +0.000 A 
DOCKED: ATOM     16  C   UNL     1      16.761 -10.760  -5.381 -0.23 -0.00    +0.000 A 
DOCKED: ATOM     17  C   UNL     1      18.048 -10.333  -5.717 -0.25 -0.00    +0.000 A 
DOCKED: ATOM     18  C   UNL     1      18.855  -9.677  -4.774 -0.23 -0.00    +0.000 A 
DOCKED: ATOM     19  C   UNL     1      18.335  -9.438  -3.491 -0.15 -0.00    +0.000 A 
DOCKED: ATOM     20  C   UNL     1      17.048  -9.863  -3.154 -0.20 -0.00    +0.000 A 
DOCKED: BRANCH  15  22
DOCKED: ATOM     21  C   UNL     1      14.592 -11.409  -2.372 -0.34 -0.00    +0.000 C 
DOCKED: ATOM     22  N   UNL     1      14.901 -10.979  -3.742 -0.27 -0.00    +0.000 N 
DOCKED: ATOM     23  C   UNL     1      13.835 -11.005  -4.750 -0.25 -0.00    +0.000 C 
DOCKED: ENDBRANCH  15  22
DOCKED: ENDBRANCH  13  18
DOCKED: ENDBRANCH   1  13
DOCKED: TORSDOF 6
DOCKED: TER
DOCKED: ENDMDL
________________________________________________________________________________


	BEGINNING GENETIC ALGORITHM DOCKING 54 of 100
Run: 54 Seed: 1619653157 785739062 [ Run 54 of 100 GA/GALS ]
Beginning LAMARCKIAN GENETIC ALGORITHM (LGA), with a maximum of 2500000 energy evaluations.

Final-Value: -12.366


	FINAL GENETIC ALGORITHM DOCKED STATE
	_______________________________________________


Detailed state:  trans 19.178 -10.894 -3.765 quatxyzw 0.085882 0.809397 -0.101229 -0.572061 center -0.963 -0.416 0.212 ntor 6 90.8766 178.0583 3.9622 74.3565 -24.1816 -11.5838
State:	 19.178 -10.894  -3.765   0.105  0.987 -0.123 -110.212     90.88  178.06    3.96   74.36  -24.18  -11.58

DOCKED: MODEL       54
DOCKED: USER    Run = 54
DOCKED: USER    DPF = ligand_dock.biased.dpf
DOCKED: USER  
DOCKED: USER    Estimated Free Energy of Binding    =   -9.64 kcal/mol  [=(1)+(2)+(3)-(4)]
DOCKED: USER    Estimated Inhibition Constant, Ki   =   85.88 nM (nanomolar)  [Temperature = 298.15 K]
DOCKED: USER    
DOCKED: USER    (1) Final Intermolecular Energy     =  -11.43 kcal/mol
DOCKED: USER        vdW + Hbond + desolv Energy     =  -11.43 kcal/mol
DOCKED: USER        Electrostatic Energy            =   +0.00 kcal/mol
DOCKED: USER    (2) Final Total Internal Energy     =   -0.94 kcal/mol
DOCKED: USER    (3) Torsional Free Energy           =   +1.79 kcal/mol
DOCKED: USER    (4) Unbound System's Energy  [=(2)] =   -0.94 kcal/mol
DOCKED: USER    
DOCKED: USER    
DOCKED: USER    NEWDPF move ligand.pdbqt
DOCKED: USER    NEWDPF about -0.963000 -0.416000 0.212000
DOCKED: USER    NEWDPF tran0 19.177992 -10.894394 -3.765360
DOCKED: USER    NEWDPF quaternion0 0.085882 0.809397 -0.101229 -0.572061
DOCKED: USER    NEWDPF axisangle0 0.104707 0.986815 -0.123418 -110.211876
DOCKED: USER    NEWDPF quat0 0.104707 0.986815 -0.123418 -110.211876
DOCKED: USER    NEWDPF dihe0 90.88 178.06 3.96 74.36 -24.18 -11.58 
DOCKED: USER  keepresnum = 1 
DOCKED: USER  
DOCKED: REMARK  Name = 
DOCKED: REMARK  10 active torsions:
DOCKED: REMARK  status: ('A' for Active; 'I' for Inactive)
DOCKED: REMARK    1  A    between atoms: C_1  and  N_2
DOCKED: REMARK    2  A    between atoms: N_2  and  C_3
DOCKED: REMARK    3  A    between atoms: N_2  and  C_22
DOCKED: REMARK    4  A    between atoms: C_6  and  C_9
DOCKED: REMARK    5  A    between atoms: C_9  and  C_10
DOCKED: REMARK    6  A    between atoms: C_10  and  C_11
DOCKED: REMARK    7  A    between atoms: C_10  and  C_20
DOCKED: REMARK    8  A    between atoms: C_12  and  C_13
DOCKED: REMARK    9  A    between atoms: C_12  and  C_19
DOCKED: REMARK   10  A    between atoms: C_14  and  C_15
DOCKED: REMARK                            x       y       z     vdW  Elec       q    Type
DOCKED: REMARK                         _______ _______ _______ _____ _____    ______ ____
DOCKED: USER                              x       y       z     vdW  Elec       q    Type
DOCKED: USER                           _______ _______ _______ _____ _____    ______ ____
DOCKED: ROOT
DOCKED: ATOM      1  C   UNL     1      20.563 -10.241  -4.230 -0.44 -0.00    +0.000 C 
DOCKED: ATOM      2  C   UNL     1      21.935  -9.691  -4.627 -0.28 -0.00    +0.000 C 
DOCKED: ENDROOT
DOCKED: BRANCH   1   3
DOCKED: ATOM      3  C   UNL     1      20.626 -10.846  -2.842 -0.45 -0.00    +0.000 C 
DOCKED: ATOM      4  C   UNL     1      20.823 -10.148  -1.703 -0.60 -0.00    +0.000 C 
DOCKED: ATOM      5  C   UNL     1      20.992  -8.645  -1.707 -0.52 -0.00    +0.000 C 
DOCKED: BRANCH   4   6
DOCKED: ATOM      6  C   UNL     1      20.825 -10.899  -0.421 -0.60 -0.00    +0.000 C 
DOCKED: ATOM      7  C   UNL     1      20.422 -10.363   0.741 -0.65 -0.00    +0.000 C 
DOCKED: BRANCH   7   8
DOCKED: ATOM      8  C   UNL     1      20.417 -11.102   2.020 -0.73 -0.00    +0.000 C 
DOCKED: ATOM      9  N   UNL     1      20.384 -10.439   3.289 -0.65 -0.00    +0.000 N 
DOCKED: ATOM     10  O   UNL     1      20.275 -11.160   4.429 -0.92 -0.00    +0.000 OA
DOCKED: ATOM     11  O   UNL     1      20.467 -12.360   1.986 -1.82 -0.00    +0.000 OA
DOCKED: ATOM     12  H   UNL     1      20.440  -9.456   3.332 -0.59 -0.00    +0.000 HD
DOCKED: ENDBRANCH   7   8
DOCKED: ENDBRANCH   4   6
DOCKED: ENDBRANCH   1   3
DOCKED: BRANCH   1  13
DOCKED: ATOM     13  C   UNL     1      20.108 -11.271  -5.245 -0.49 -0.00    +0.000 C 
DOCKED: ATOM     14  O   UNL     1      20.774 -12.336  -5.377 -0.73 -0.00    +0.000 OA
DOCKED: BRANCH  13  18
DOCKED: ATOM     15  C   UNL     1      16.635 -10.676  -7.751 -0.22 -0.00    +0.000 A 
DOCKED: ATOM     16  C   UNL     1      16.507 -11.082  -6.408 -0.28 -0.00    +0.000 A 
DOCKED: ATOM     17  C   UNL     1      17.635 -11.273  -5.606 -0.26 -0.00    +0.000 A 
DOCKED: ATOM     18  C   UNL     1      18.924 -11.055  -6.117 -0.34 -0.00    +0.000 A 
DOCKED: ATOM     19  C   UNL     1      19.060 -10.662  -7.460 -0.26 -0.00    +0.000 A 
DOCKED: ATOM     20  C   UNL     1      17.933 -10.472  -8.263 -0.22 -0.00    +0.000 A 
DOCKED: BRANCH  15  22
DOCKED: ATOM     21  C   UNL     1      14.637 -11.618  -8.997 -0.20 -0.00    +0.000 C 
DOCKED: ATOM     22  N   UNL     1      15.464 -10.476  -8.586 -0.13 -0.00    +0.000 N 
DOCKED: ATOM     23  C   UNL     1      15.087  -9.130  -9.032 -0.06 -0.00    +0.000 C 
DOCKED: ENDBRANCH  15  22
DOCKED: ENDBRANCH  13  18
DOCKED: ENDBRANCH   1  13
DOCKED: TORSDOF 6
DOCKED: TER
DOCKED: ENDMDL
________________________________________________________________________________


	BEGINNING GENETIC ALGORITHM DOCKING 55 of 100
Run: 55 Seed: 1875406653 448578016 [ Run 55 of 100 GA/GALS ]
Beginning LAMARCKIAN GENETIC ALGORITHM (LGA), with a maximum of 2500000 energy evaluations.

Final-Value: -11.365


	FINAL GENETIC ALGORITHM DOCKED STATE
	_______________________________________________


Detailed state:  trans 14.508 -11.118 0.099 quatxyzw 0.253178 -0.889442 -0.226866 0.305493 center -0.963 -0.416 0.212 ntor 6 -5.0799 -29.4991 91.9432 -171.0333 62.8390 151.1048
State:	 14.508 -11.118   0.099   0.266 -0.934 -0.238 144.424     -5.08  -29.50   91.94 -171.03   62.84  151.10

DOCKED: MODEL       55
DOCKED: USER    Run = 55
DOCKED: USER    DPF = ligand_dock.biased.dpf
DOCKED: USER  
DOCKED: USER    Estimated Free Energy of Binding    =   -8.32 kcal/mol  [=(1)+(2)+(3)-(4)]
DOCKED: USER    Estimated Inhibition Constant, Ki   =  793.51 nM (nanomolar)  [Temperature = 298.15 K]
DOCKED: USER    
DOCKED: USER    (1) Final Intermolecular Energy     =  -10.11 kcal/mol
DOCKED: USER        vdW + Hbond + desolv Energy     =  -10.11 kcal/mol
DOCKED: USER        Electrostatic Energy            =   +0.00 kcal/mol
DOCKED: USER    (2) Final Total Internal Energy     =   -1.25 kcal/mol
DOCKED: USER    (3) Torsional Free Energy           =   +1.79 kcal/mol
DOCKED: USER    (4) Unbound System's Energy  [=(2)] =   -1.25 kcal/mol
DOCKED: USER    
DOCKED: USER    
DOCKED: USER    NEWDPF move ligand.pdbqt
DOCKED: USER    NEWDPF about -0.963000 -0.416000 0.212000
DOCKED: USER    NEWDPF tran0 14.507801 -11.118073 0.099305
DOCKED: USER    NEWDPF quaternion0 0.253178 -0.889442 -0.226866 0.305493
DOCKED: USER    NEWDPF axisangle0 0.265889 -0.934097 -0.238256 144.424391
DOCKED: USER    NEWDPF quat0 0.265889 -0.934097 -0.238256 144.424391
DOCKED: USER    NEWDPF dihe0 -5.08 -29.50 91.94 -171.03 62.84 151.10 
DOCKED: USER  keepresnum = 1 
DOCKED: USER  
DOCKED: REMARK  Name = 
DOCKED: REMARK  10 active torsions:
DOCKED: REMARK  status: ('A' for Active; 'I' for Inactive)
DOCKED: REMARK    1  A    between atoms: C_1  and  N_2
DOCKED: REMARK    2  A    between atoms: N_2  and  C_3
DOCKED: REMARK    3  A    between atoms: N_2  and  C_22
DOCKED: REMARK    4  A    between atoms: C_6  and  C_9
DOCKED: REMARK    5  A    between atoms: C_9  and  C_10
DOCKED: REMARK    6  A    between atoms: C_10  and  C_11
DOCKED: REMARK    7  A    between atoms: C_10  and  C_20
DOCKED: REMARK    8  A    between atoms: C_12  and  C_13
DOCKED: REMARK    9  A    between atoms: C_12  and  C_19
DOCKED: REMARK   10  A    between atoms: C_14  and  C_15
DOCKED: REMARK                            x       y       z     vdW  Elec       q    Type
DOCKED: REMARK                         _______ _______ _______ _____ _____    ______ ____
DOCKED: USER                              x       y       z     vdW  Elec       q    Type
DOCKED: USER                           _______ _______ _______ _____ _____    ______ ____
DOCKED: ROOT
DOCKED: ATOM      1  C   UNL     1      14.444  -9.646  -0.525 -0.25 +0.00    +0.000 C 
DOCKED: ATOM      2  C   UNL     1      14.484  -8.241  -1.131 -0.22 -0.00    +0.000 C 
DOCKED: ENDROOT
DOCKED: BRANCH   1   3
DOCKED: ATOM      3  C   UNL     1      15.653  -9.865   0.363 -0.29 +0.00    +0.000 C 
DOCKED: ATOM      4  C   UNL     1      15.706 -10.733   1.396 -0.37 +0.00    +0.000 C 
DOCKED: ATOM      5  C   UNL     1      14.528 -11.606   1.765 -0.47 +0.00    +0.000 C 
DOCKED: BRANCH   4   6
DOCKED: ATOM      6  C   UNL     1      16.985 -10.844   2.143 -0.47 +0.00    +0.000 C 
DOCKED: ATOM      7  C   UNL     1      18.132 -11.243   1.574 -0.52 -0.00    +0.000 C 
DOCKED: BRANCH   7   8
DOCKED: ATOM      8  C   UNL     1      19.411 -11.354   2.306 -0.70 -0.00    +0.000 C 
DOCKED: ATOM      9  N   UNL     1      19.893 -10.318   3.170 -0.64 -0.00    +0.000 N 
DOCKED: ATOM     10  O   UNL     1      21.016 -10.511   3.900 -0.90 -0.00    +0.000 OA
DOCKED: ATOM     11  O   UNL     1      20.108 -12.390   2.141 -1.86 -0.00    +0.000 OA
DOCKED: ATOM     12  H   UNL     1      19.405  -9.465   3.235 -0.46 -0.00    +0.000 HD
DOCKED: ENDBRANCH   7   8
DOCKED: ENDBRANCH   4   6
DOCKED: ENDBRANCH   1   3
DOCKED: BRANCH   1  13
DOCKED: ATOM     13  C   UNL     1      14.396 -10.682  -1.631 -0.32 -0.00    +0.000 C 
DOCKED: ATOM     14  O   UNL     1      13.561 -11.626  -1.550 -0.41 +0.00    +0.000 OA
DOCKED: BRANCH  13  18
DOCKED: ATOM     15  C   UNL     1      17.117 -10.534  -4.988 -0.23 -0.00    +0.000 A 
DOCKED: ATOM     16  C   UNL     1      17.525 -10.141  -3.698 -0.24 -0.00    +0.000 A 
DOCKED: ATOM     17  C   UNL     1      16.639 -10.191  -2.619 -0.21 -0.00    +0.000 A 
DOCKED: ATOM     18  C   UNL     1      15.321 -10.643  -2.793 -0.24 -0.00    +0.000 A 
DOCKED: ATOM     19  C   UNL     1      14.903 -11.025  -4.080 -0.24 -0.00    +0.000 A 
DOCKED: ATOM     20  C   UNL     1      15.789 -10.974  -5.160 -0.21 -0.00    +0.000 A 
DOCKED: BRANCH  15  22
DOCKED: ATOM     21  C   UNL     1      17.538 -10.563  -7.489 -0.28 -0.00    +0.000 C 
DOCKED: ATOM     22  N   UNL     1      18.037 -10.483  -6.110 -0.26 -0.00    +0.000 N 
DOCKED: ATOM     23  C   UNL     1      19.481 -10.352  -5.885 -0.32 -0.00    +0.000 C 
DOCKED: ENDBRANCH  15  22
DOCKED: ENDBRANCH  13  18
DOCKED: ENDBRANCH   1  13
DOCKED: TORSDOF 6
DOCKED: TER
DOCKED: ENDMDL
________________________________________________________________________________


	BEGINNING GENETIC ALGORITHM DOCKING 56 of 100
Run: 56 Seed: 1455803258 656264770 [ Run 56 of 100 GA/GALS ]
Beginning LAMARCKIAN GENETIC ALGORITHM (LGA), with a maximum of 2500000 energy evaluations.

Final-Value: -12.262


	FINAL GENETIC ALGORITHM DOCKED STATE
	_______________________________________________


Detailed state:  trans 19.534 -9.411 -3.444 quatxyzw 0.399185 0.685412 -0.459555 -0.399589 center -0.963 -0.416 0.212 ntor 6 -179.9729 -7.5954 -179.9233 70.1718 21.8791 -76.0240
State:	 19.534  -9.411  -3.444   0.435  0.748 -0.501 -132.895   -179.97   -7.60 -179.92   70.17   21.88  -76.02

DOCKED: MODEL       56
DOCKED: USER    Run = 56
DOCKED: USER    DPF = ligand_dock.biased.dpf
DOCKED: USER  
DOCKED: USER    Estimated Free Energy of Binding    =   -9.16 kcal/mol  [=(1)+(2)+(3)-(4)]
DOCKED: USER    Estimated Inhibition Constant, Ki   =  194.56 nM (nanomolar)  [Temperature = 298.15 K]
DOCKED: USER    
DOCKED: USER    (1) Final Intermolecular Energy     =  -10.95 kcal/mol
DOCKED: USER        vdW + Hbond + desolv Energy     =  -10.95 kcal/mol
DOCKED: USER        Electrostatic Energy            =   +0.00 kcal/mol
DOCKED: USER    (2) Final Total Internal Energy     =   -1.32 kcal/mol
DOCKED: USER    (3) Torsional Free Energy           =   +1.79 kcal/mol
DOCKED: USER    (4) Unbound System's Energy  [=(2)] =   -1.32 kcal/mol
DOCKED: USER    
DOCKED: USER    
DOCKED: USER    NEWDPF move ligand.pdbqt
DOCKED: USER    NEWDPF about -0.963000 -0.416000 0.212000
DOCKED: USER    NEWDPF tran0 19.533784 -9.411381 -3.444308
DOCKED: USER    NEWDPF quaternion0 0.399185 0.685412 -0.459555 -0.399589
DOCKED: USER    NEWDPF axisangle0 0.435461 0.747700 -0.501317 -132.895044
DOCKED: USER    NEWDPF quat0 0.435461 0.747700 -0.501317 -132.895044
DOCKED: USER    NEWDPF dihe0 -179.97 -7.60 -179.92 70.17 21.88 -76.02 
DOCKED: USER  keepresnum = 1 
DOCKED: USER  
DOCKED: REMARK  Name = 
DOCKED: REMARK  10 active torsions:
DOCKED: REMARK  status: ('A' for Active; 'I' for Inactive)
DOCKED: REMARK    1  A    between atoms: C_1  and  N_2
DOCKED: REMARK    2  A    between atoms: N_2  and  C_3
DOCKED: REMARK    3  A    between atoms: N_2  and  C_22
DOCKED: REMARK    4  A    between atoms: C_6  and  C_9
DOCKED: REMARK    5  A    between atoms: C_9  and  C_10
DOCKED: REMARK    6  A    between atoms: C_10  and  C_11
DOCKED: REMARK    7  A    between atoms: C_10  and  C_20
DOCKED: REMARK    8  A    between atoms: C_12  and  C_13
DOCKED: REMARK    9  A    between atoms: C_12  and  C_19
DOCKED: REMARK   10  A    between atoms: C_14  and  C_15
DOCKED: REMARK                            x       y       z     vdW  Elec       q    Type
DOCKED: REMARK                         _______ _______ _______ _____ _____    ______ ____
DOCKED: USER                              x       y       z     vdW  Elec       q    Type
DOCKED: USER                           _______ _______ _______ _____ _____    ______ ____
DOCKED: ROOT
DOCKED: ATOM      1  C   UNL     1      20.686 -10.324  -4.076 -0.47 -0.00    +0.000 C 
DOCKED: ATOM      2  C   UNL     1      21.762 -11.271  -4.614 -0.51 -0.00    +0.000 C 
DOCKED: ENDROOT
DOCKED: BRANCH   1   3
DOCKED: ATOM      3  C   UNL     1      20.528 -10.514  -2.580 -0.52 -0.00    +0.000 C 
DOCKED: ATOM      4  C   UNL     1      20.840  -9.590  -1.647 -0.59 -0.00    +0.000 C 
DOCKED: ATOM      5  C   UNL     1      21.382  -8.228  -2.022 -0.50 -0.00    +0.000 C 
DOCKED: BRANCH   4   6
DOCKED: ATOM      6  C   UNL     1      20.590  -9.931  -0.223 -0.64 -0.00    +0.000 C 
DOCKED: ATOM      7  C   UNL     1      20.581 -11.191   0.237 -0.63 -0.00    +0.000 C 
DOCKED: BRANCH   7   8
DOCKED: ATOM      8  C   UNL     1      20.337 -11.542   1.651 -0.77 -0.00    +0.000 C 
DOCKED: ATOM      9  N   UNL     1      20.605 -10.632   2.725 -0.63 -0.00    +0.000 N 
DOCKED: ATOM     10  O   UNL     1      20.267 -10.961   3.993 -1.15 -0.00    +0.000 OA
DOCKED: ATOM     11  O   UNL     1      19.900 -12.693   1.916 -1.64 -0.00    +0.000 OA
DOCKED: ATOM     12  H   UNL     1      21.036  -9.766   2.539 -0.60 -0.00    +0.000 HD
DOCKED: ENDBRANCH   7   8
DOCKED: ENDBRANCH   4   6
DOCKED: ENDBRANCH   1   3
DOCKED: BRANCH   1  13
DOCKED: ATOM     13  C   UNL     1      19.374 -10.577  -4.791 -0.39 -0.00    +0.000 C 
DOCKED: ATOM     14  O   UNL     1      19.326 -11.465  -5.688 -0.47 -0.00    +0.000 OA
DOCKED: BRANCH  13  18
DOCKED: ATOM     15  C   UNL     1      15.786  -8.331  -3.912 -0.14 -0.00    +0.000 A 
DOCKED: ATOM     16  C   UNL     1      16.164  -9.440  -3.131 -0.19 -0.00    +0.000 A 
DOCKED: ATOM     17  C   UNL     1      17.325 -10.161  -3.422 -0.23 -0.00    +0.000 A 
DOCKED: ATOM     18  C   UNL     1      18.148  -9.791  -4.497 -0.23 -0.00    +0.000 A 
DOCKED: ATOM     19  C   UNL     1      17.770  -8.693  -5.290 -0.14 -0.00    +0.000 A 
DOCKED: ATOM     20  C   UNL     1      16.609  -7.972  -4.999 -0.12 -0.00    +0.000 A 
DOCKED: BRANCH  15  22
DOCKED: ATOM     21  C   UNL     1      13.975  -7.646  -2.273 -0.18 -0.00    +0.000 C 
DOCKED: ATOM     22  N   UNL     1      14.580  -7.580  -3.610 -0.14 -0.00    +0.000 N 
DOCKED: ATOM     23  C   UNL     1      13.946  -6.743  -4.634 -0.08 -0.00    +0.000 C 
DOCKED: ENDBRANCH  15  22
DOCKED: ENDBRANCH  13  18
DOCKED: ENDBRANCH   1  13
DOCKED: TORSDOF 6
DOCKED: TER
DOCKED: ENDMDL
________________________________________________________________________________


	BEGINNING GENETIC ALGORITHM DOCKING 57 of 100
Run: 57 Seed: 1885376833 1013095984 [ Run 57 of 100 GA/GALS ]
Beginning LAMARCKIAN GENETIC ALGORITHM (LGA), with a maximum of 2500000 energy evaluations.

Final-Value: -12.640


	FINAL GENETIC ALGORITHM DOCKED STATE
	_______________________________________________


Detailed state:  trans 21.596 -8.936 -2.876 quatxyzw -0.728482 -0.475705 0.492926 -0.006494 center -0.963 -0.416 0.212 ntor 6 57.6725 -121.8056 -170.2394 144.2994 -167.7475 -73.6940
State:	 21.596  -8.936  -2.876  -0.728 -0.476  0.493 -179.256     57.67 -121.81 -170.24  144.30 -167.75  -73.69

DOCKED: MODEL       57
DOCKED: USER    Run = 57
DOCKED: USER    DPF = ligand_dock.biased.dpf
DOCKED: USER  
DOCKED: USER    Estimated Free Energy of Binding    =   -9.83 kcal/mol  [=(1)+(2)+(3)-(4)]
DOCKED: USER    Estimated Inhibition Constant, Ki   =   62.65 nM (nanomolar)  [Temperature = 298.15 K]
DOCKED: USER    
DOCKED: USER    (1) Final Intermolecular Energy     =  -11.62 kcal/mol
DOCKED: USER        vdW + Hbond + desolv Energy     =  -11.62 kcal/mol
DOCKED: USER        Electrostatic Energy            =   +0.00 kcal/mol
DOCKED: USER    (2) Final Total Internal Energy     =   -1.02 kcal/mol
DOCKED: USER    (3) Torsional Free Energy           =   +1.79 kcal/mol
DOCKED: USER    (4) Unbound System's Energy  [=(2)] =   -1.02 kcal/mol
DOCKED: USER    
DOCKED: USER    
DOCKED: USER    NEWDPF move ligand.pdbqt
DOCKED: USER    NEWDPF about -0.963000 -0.416000 0.212000
DOCKED: USER    NEWDPF tran0 21.596436 -8.935981 -2.875999
DOCKED: USER    NEWDPF quaternion0 -0.728482 -0.475705 0.492926 -0.006494
DOCKED: USER    NEWDPF axisangle0 -0.728498 -0.475715 0.492936 -179.255856
DOCKED: USER    NEWDPF quat0 -0.728498 -0.475715 0.492936 -179.255856
DOCKED: USER    NEWDPF dihe0 57.67 -121.81 -170.24 144.30 -167.75 -73.69 
DOCKED: USER  keepresnum = 1 
DOCKED: USER  
DOCKED: REMARK  Name = 
DOCKED: REMARK  10 active torsions:
DOCKED: REMARK  status: ('A' for Active; 'I' for Inactive)
DOCKED: REMARK    1  A    between atoms: C_1  and  N_2
DOCKED: REMARK    2  A    between atoms: N_2  and  C_3
DOCKED: REMARK    3  A    between atoms: N_2  and  C_22
DOCKED: REMARK    4  A    between atoms: C_6  and  C_9
DOCKED: REMARK    5  A    between atoms: C_9  and  C_10
DOCKED: REMARK    6  A    between atoms: C_10  and  C_11
DOCKED: REMARK    7  A    between atoms: C_10  and  C_20
DOCKED: REMARK    8  A    between atoms: C_12  and  C_13
DOCKED: REMARK    9  A    between atoms: C_12  and  C_19
DOCKED: REMARK   10  A    between atoms: C_14  and  C_15
DOCKED: REMARK                            x       y       z     vdW  Elec       q    Type
DOCKED: REMARK                         _______ _______ _______ _____ _____    ______ ____
DOCKED: USER                              x       y       z     vdW  Elec       q    Type
DOCKED: USER                           _______ _______ _______ _____ _____    ______ ____
DOCKED: ROOT
DOCKED: ATOM      1  C   UNL     1      21.396 -10.063  -3.995 -0.48 -0.00    +0.000 C 
DOCKED: ATOM      2  C   UNL     1      21.121 -11.172  -5.014 -0.54 -0.00    +0.000 C 
DOCKED: ENDROOT
DOCKED: BRANCH   1   3
DOCKED: ATOM      3  C   UNL     1      21.031 -10.535  -2.601 -0.55 -0.00    +0.000 C 
DOCKED: ATOM      4  C   UNL     1      19.772 -10.640  -2.126 -0.46 -0.00    +0.000 C 
DOCKED: ATOM      5  C   UNL     1      18.567 -10.297  -2.974 -0.33 -0.00    +0.000 C 
DOCKED: BRANCH   4   6
DOCKED: ATOM      6  C   UNL     1      19.593 -11.152  -0.743 -0.48 -0.00    +0.000 C 
DOCKED: ATOM      7  C   UNL     1      20.440 -10.868   0.258 -0.68 -0.00    +0.000 C 
DOCKED: BRANCH   7   8
DOCKED: ATOM      8  C   UNL     1      20.270 -11.369   1.637 -0.76 -0.00    +0.000 C 
DOCKED: ATOM      9  N   UNL     1      20.521 -10.553   2.787 -0.63 -0.00    +0.000 N 
DOCKED: ATOM     10  O   UNL     1      20.251 -11.026   4.026 -1.13 -0.00    +0.000 OA
DOCKED: ATOM     11  O   UNL     1      19.914 -12.567   1.799 -1.71 -0.00    +0.000 OA
DOCKED: ATOM     12  H   UNL     1      20.890  -9.647   2.676 -0.57 -0.00    +0.000 HD
DOCKED: ENDBRANCH   7   8
DOCKED: ENDBRANCH   4   6
DOCKED: ENDBRANCH   1   3
DOCKED: BRANCH   1  13
DOCKED: ATOM     13  C   UNL     1      20.611  -8.819  -4.363 -0.32 -0.00    +0.000 C 
DOCKED: ATOM     14  O   UNL     1      19.850  -8.852  -5.371 -0.18 -0.00    +0.000 OA
DOCKED: BRANCH  13  18
DOCKED: ATOM     15  C   UNL     1      20.970  -5.155  -2.098 -0.39 -0.00    +0.000 A 
DOCKED: ATOM     16  C   UNL     1      21.548  -6.356  -1.642 -0.21 +0.00    +0.000 A 
DOCKED: ATOM     17  C   UNL     1      21.426  -7.536  -2.380 -0.40 -0.00    +0.000 A 
DOCKED: ATOM     18  C   UNL     1      20.732  -7.550  -3.599 -0.31 -0.00    +0.000 A 
DOCKED: ATOM     19  C   UNL     1      20.142  -6.358  -4.055 -0.19 -0.00    +0.000 A 
DOCKED: ATOM     20  C   UNL     1      20.262  -5.178  -3.317 -0.21 -0.00    +0.000 A 
DOCKED: BRANCH  15  22
DOCKED: ATOM     21  C   UNL     1      19.981  -3.442  -0.509 -0.39 -0.00    +0.000 C 
DOCKED: ATOM     22  N   UNL     1      21.097  -3.928  -1.332 -0.38 +0.00    +0.000 N 
DOCKED: ATOM     23  C   UNL     1      22.342  -3.152  -1.367 -0.31 +0.00    +0.000 C 
DOCKED: ENDBRANCH  15  22
DOCKED: ENDBRANCH  13  18
DOCKED: ENDBRANCH   1  13
DOCKED: TORSDOF 6
DOCKED: TER
DOCKED: ENDMDL
________________________________________________________________________________


	BEGINNING GENETIC ALGORITHM DOCKING 58 of 100
Run: 58 Seed: 646051841 966944291 [ Run 58 of 100 GA/GALS ]
Beginning LAMARCKIAN GENETIC ALGORITHM (LGA), with a maximum of 2500000 energy evaluations.

Final-Value: -12.042


	FINAL GENETIC ALGORITHM DOCKED STATE
	_______________________________________________


Detailed state:  trans 20.553 -11.542 -3.562 quatxyzw 0.572174 -0.358574 -0.378434 0.633111 center -0.963 -0.416 0.212 ntor 6 149.7278 -93.9951 168.6647 -137.6138 -39.8068 1.6233
State:	 20.553 -11.542  -3.562   0.739 -0.463 -0.489 101.440    149.73  -94.00  168.66 -137.61  -39.81    1.62

DOCKED: MODEL       58
DOCKED: USER    Run = 58
DOCKED: USER    DPF = ligand_dock.biased.dpf
DOCKED: USER  
DOCKED: USER    Estimated Free Energy of Binding    =   -9.39 kcal/mol  [=(1)+(2)+(3)-(4)]
DOCKED: USER    Estimated Inhibition Constant, Ki   =  130.01 nM (nanomolar)  [Temperature = 298.15 K]
DOCKED: USER    
DOCKED: USER    (1) Final Intermolecular Energy     =  -11.18 kcal/mol
DOCKED: USER        vdW + Hbond + desolv Energy     =  -11.18 kcal/mol
DOCKED: USER        Electrostatic Energy            =   +0.00 kcal/mol
DOCKED: USER    (2) Final Total Internal Energy     =   -0.86 kcal/mol
DOCKED: USER    (3) Torsional Free Energy           =   +1.79 kcal/mol
DOCKED: USER    (4) Unbound System's Energy  [=(2)] =   -0.86 kcal/mol
DOCKED: USER    
DOCKED: USER    
DOCKED: USER    NEWDPF move ligand.pdbqt
DOCKED: USER    NEWDPF about -0.963000 -0.416000 0.212000
DOCKED: USER    NEWDPF tran0 20.553415 -11.542405 -3.562344
DOCKED: USER    NEWDPF quaternion0 0.572174 -0.358574 -0.378434 0.633111
DOCKED: USER    NEWDPF axisangle0 0.739184 -0.463238 -0.488894 101.440026
DOCKED: USER    NEWDPF quat0 0.739184 -0.463238 -0.488894 101.440026
DOCKED: USER    NEWDPF dihe0 149.73 -94.00 168.66 -137.61 -39.81 1.62 
DOCKED: USER  keepresnum = 1 
DOCKED: USER  
DOCKED: REMARK  Name = 
DOCKED: REMARK  10 active torsions:
DOCKED: REMARK  status: ('A' for Active; 'I' for Inactive)
DOCKED: REMARK    1  A    between atoms: C_1  and  N_2
DOCKED: REMARK    2  A    between atoms: N_2  and  C_3
DOCKED: REMARK    3  A    between atoms: N_2  and  C_22
DOCKED: REMARK    4  A    between atoms: C_6  and  C_9
DOCKED: REMARK    5  A    between atoms: C_9  and  C_10
DOCKED: REMARK    6  A    between atoms: C_10  and  C_11
DOCKED: REMARK    7  A    between atoms: C_10  and  C_20
DOCKED: REMARK    8  A    between atoms: C_12  and  C_13
DOCKED: REMARK    9  A    between atoms: C_12  and  C_19
DOCKED: REMARK   10  A    between atoms: C_14  and  C_15
DOCKED: REMARK                            x       y       z     vdW  Elec       q    Type
DOCKED: REMARK                         _______ _______ _______ _____ _____    ______ ____
DOCKED: USER                              x       y       z     vdW  Elec       q    Type
DOCKED: USER                           _______ _______ _______ _____ _____    ______ ____
DOCKED: ROOT
DOCKED: ATOM      1  C   UNL     1      19.676 -10.250  -3.909 -0.39 -0.00    +0.000 C 
DOCKED: ATOM      2  C   UNL     1      18.865  -8.975  -4.152 -0.23 -0.00    +0.000 C 
DOCKED: ENDROOT
DOCKED: BRANCH   1   3
DOCKED: ATOM      3  C   UNL     1      19.643 -10.616  -2.438 -0.45 -0.00    +0.000 C 
DOCKED: ATOM      4  C   UNL     1      18.521 -10.735  -1.697 -0.37 -0.00    +0.000 C 
DOCKED: ATOM      5  C   UNL     1      17.146 -10.522  -2.289 -0.23 -0.00    +0.000 C 
DOCKED: BRANCH   4   6
DOCKED: ATOM      6  C   UNL     1      18.671 -11.134  -0.273 -0.49 -0.00    +0.000 C 
DOCKED: ATOM      7  C   UNL     1      19.842 -11.090   0.380 -0.64 -0.00    +0.000 C 
DOCKED: BRANCH   7   8
DOCKED: ATOM      8  C   UNL     1      20.001 -11.480   1.795 -0.75 -0.00    +0.000 C 
DOCKED: ATOM      9  N   UNL     1      20.302 -10.531   2.825 -0.66 -0.00    +0.000 N 
DOCKED: ATOM     10  O   UNL     1      20.335 -10.921   4.120 -1.07 -0.00    +0.000 OA
DOCKED: ATOM     11  O   UNL     1      19.890 -12.699   2.097 -1.63 -0.00    +0.000 OA
DOCKED: ATOM     12  H   UNL     1      20.486  -9.592   2.589 -0.54 -0.00    +0.000 HD
DOCKED: ENDBRANCH   7   8
DOCKED: ENDBRANCH   4   6
DOCKED: ENDBRANCH   1   3
DOCKED: BRANCH   1  13
DOCKED: ATOM     13  C   UNL     1      21.102 -10.051  -4.382 -0.45 -0.00    +0.000 C 
DOCKED: ATOM     14  O   UNL     1      21.897  -9.381  -3.664 -0.43 -0.00    +0.000 OA
DOCKED: BRANCH  13  18
DOCKED: ATOM     15  C   UNL     1      22.477 -11.595  -8.179 -0.28 -0.00    +0.000 A 
DOCKED: ATOM     16  C   UNL     1      21.540 -10.545  -8.112 -0.24 -0.00    +0.000 A 
DOCKED: ATOM     17  C   UNL     1      21.100 -10.053  -6.881 -0.24 -0.00    +0.000 A 
DOCKED: ATOM     18  C   UNL     1      21.589 -10.588  -5.679 -0.40 -0.00    +0.000 A 
DOCKED: ATOM     19  C   UNL     1      22.514 -11.644  -5.737 -0.38 -0.00    +0.000 A 
DOCKED: ATOM     20  C   UNL     1      22.954 -12.138  -6.968 -0.40 -0.00    +0.000 A 
DOCKED: BRANCH  15  22
DOCKED: ATOM     21  C   UNL     1      22.280 -11.693 -10.706 -0.21 -0.00    +0.000 C 
DOCKED: ATOM     22  N   UNL     1      22.935 -12.107  -9.458 -0.31 -0.00    +0.000 N 
DOCKED: ATOM     23  C   UNL     1      24.059 -13.048  -9.525 -0.41 -0.00    +0.000 C 
DOCKED: ENDBRANCH  15  22
DOCKED: ENDBRANCH  13  18
DOCKED: ENDBRANCH   1  13
DOCKED: TORSDOF 6
DOCKED: TER
DOCKED: ENDMDL
________________________________________________________________________________


	BEGINNING GENETIC ALGORITHM DOCKING 59 of 100
Run: 59 Seed: 1399222109 1178309359 [ Run 59 of 100 GA/GALS ]
Beginning LAMARCKIAN GENETIC ALGORITHM (LGA), with a maximum of 2500000 energy evaluations.

Final-Value: -12.318


	FINAL GENETIC ALGORITHM DOCKED STATE
	_______________________________________________


Detailed state:  trans 19.076 -9.806 -3.935 quatxyzw -0.365484 -0.721528 0.325557 0.489726 center -0.963 -0.416 0.212 ntor 6 117.8987 -98.6090 -87.0980 163.2007 3.2265 -90.6983
State:	 19.076  -9.806  -3.935  -0.419 -0.828  0.373 121.355    117.90  -98.61  -87.10  163.20    3.23  -90.70

DOCKED: MODEL       59
DOCKED: USER    Run = 59
DOCKED: USER    DPF = ligand_dock.biased.dpf
DOCKED: USER  
DOCKED: USER    Estimated Free Energy of Binding    =   -9.55 kcal/mol  [=(1)+(2)+(3)-(4)]
DOCKED: USER    Estimated Inhibition Constant, Ki   =   99.87 nM (nanomolar)  [Temperature = 298.15 K]
DOCKED: USER    
DOCKED: USER    (1) Final Intermolecular Energy     =  -11.34 kcal/mol
DOCKED: USER        vdW + Hbond + desolv Energy     =  -11.34 kcal/mol
DOCKED: USER        Electrostatic Energy            =   +0.00 kcal/mol
DOCKED: USER    (2) Final Total Internal Energy     =   -0.98 kcal/mol
DOCKED: USER    (3) Torsional Free Energy           =   +1.79 kcal/mol
DOCKED: USER    (4) Unbound System's Energy  [=(2)] =   -0.98 kcal/mol
DOCKED: USER    
DOCKED: USER    
DOCKED: USER    NEWDPF move ligand.pdbqt
DOCKED: USER    NEWDPF about -0.963000 -0.416000 0.212000
DOCKED: USER    NEWDPF tran0 19.075992 -9.805570 -3.934708
DOCKED: USER    NEWDPF quaternion0 -0.365484 -0.721528 0.325557 0.489726
DOCKED: USER    NEWDPF axisangle0 -0.419193 -0.827557 0.373399 121.354812
DOCKED: USER    NEWDPF quat0 -0.419193 -0.827557 0.373399 121.354812
DOCKED: USER    NEWDPF dihe0 117.90 -98.61 -87.10 163.20 3.23 -90.70 
DOCKED: USER  keepresnum = 1 
DOCKED: USER  
DOCKED: REMARK  Name = 
DOCKED: REMARK  10 active torsions:
DOCKED: REMARK  status: ('A' for Active; 'I' for Inactive)
DOCKED: REMARK    1  A    between atoms: C_1  and  N_2
DOCKED: REMARK    2  A    between atoms: N_2  and  C_3
DOCKED: REMARK    3  A    between atoms: N_2  and  C_22
DOCKED: REMARK    4  A    between atoms: C_6  and  C_9
DOCKED: REMARK    5  A    between atoms: C_9  and  C_10
DOCKED: REMARK    6  A    between atoms: C_10  and  C_11
DOCKED: REMARK    7  A    between atoms: C_10  and  C_20
DOCKED: REMARK    8  A    between atoms: C_12  and  C_13
DOCKED: REMARK    9  A    between atoms: C_12  and  C_19
DOCKED: REMARK   10  A    between atoms: C_14  and  C_15
DOCKED: REMARK                            x       y       z     vdW  Elec       q    Type
DOCKED: REMARK                         _______ _______ _______ _____ _____    ______ ____
DOCKED: USER                              x       y       z     vdW  Elec       q    Type
DOCKED: USER                           _______ _______ _______ _____ _____    ______ ____
DOCKED: ROOT
DOCKED: ATOM      1  C   UNL     1      20.515 -10.303  -4.426 -0.44 -0.00    +0.000 C 
DOCKED: ATOM      2  C   UNL     1      21.877 -10.865  -4.844 -0.46 -0.00    +0.000 C 
DOCKED: ENDROOT
DOCKED: BRANCH   1   3
DOCKED: ATOM      3  C   UNL     1      20.188 -10.732  -3.009 -0.47 -0.00    +0.000 C 
DOCKED: ATOM      4  C   UNL     1      20.432  -9.997  -1.904 -0.54 -0.00    +0.000 C 
DOCKED: ATOM      5  C   UNL     1      21.065  -8.626  -1.980 -0.51 -0.00    +0.000 C 
DOCKED: BRANCH   4   6
DOCKED: ATOM      6  C   UNL     1      20.016 -10.558  -0.592 -0.58 -0.00    +0.000 C 
DOCKED: ATOM      7  C   UNL     1      20.881 -10.815   0.401 -0.69 -0.00    +0.000 C 
DOCKED: BRANCH   7   8
DOCKED: ATOM      8  C   UNL     1      20.478 -11.369   1.710 -0.76 -0.00    +0.000 C 
DOCKED: ATOM      9  N   UNL     1      20.636 -10.642   2.933 -0.64 -0.00    +0.000 N 
DOCKED: ATOM     10  O   UNL     1      20.156 -11.151   4.092 -1.09 -0.00    +0.000 OA
DOCKED: ATOM     11  O   UNL     1      20.001 -12.535   1.744 -1.71 -0.00    +0.000 OA
DOCKED: ATOM     12  H   UNL     1      21.094  -9.770   2.932 -0.60 -0.00    +0.000 HD
DOCKED: ENDBRANCH   7   8
DOCKED: ENDBRANCH   4   6
DOCKED: ENDBRANCH   1   3
DOCKED: BRANCH   1  13
DOCKED: ATOM     13  C   UNL     1      19.446 -10.775  -5.391 -0.39 -0.00    +0.000 C 
DOCKED: ATOM     14  O   UNL     1      19.796 -11.268  -6.500 -0.40 -0.00    +0.000 OA
DOCKED: BRANCH  13  18
DOCKED: ATOM     15  C   UNL     1      15.239 -10.389  -4.471 -0.21 -0.00    +0.000 A 
DOCKED: ATOM     16  C   UNL     1      16.222  -9.776  -3.670 -0.21 -0.00    +0.000 A 
DOCKED: ATOM     17  C   UNL     1      17.579  -9.907  -3.973 -0.23 -0.00    +0.000 A 
DOCKED: ATOM     18  C   UNL     1      17.996 -10.646  -5.092 -0.27 -0.00    +0.000 A 
DOCKED: ATOM     19  C   UNL     1      17.021 -11.271  -5.889 -0.28 -0.00    +0.000 A 
DOCKED: ATOM     20  C   UNL     1      15.664 -11.142  -5.585 -0.24 -0.00    +0.000 A 
DOCKED: BRANCH  15  22
DOCKED: ATOM     21  C   UNL     1      13.361 -10.339  -2.767 -0.26 -0.00    +0.000 C 
DOCKED: ATOM     22  N   UNL     1      13.828 -10.254  -4.157 -0.20 -0.00    +0.000 N 
DOCKED: ATOM     23  C   UNL     1      12.844 -10.028  -5.223 -0.14 -0.00    +0.000 C 
DOCKED: ENDBRANCH  15  22
DOCKED: ENDBRANCH  13  18
DOCKED: ENDBRANCH   1  13
DOCKED: TORSDOF 6
DOCKED: TER
DOCKED: ENDMDL
________________________________________________________________________________


	BEGINNING GENETIC ALGORITHM DOCKING 60 of 100
Run: 60 Seed: 1327149598 554031965 [ Run 60 of 100 GA/GALS ]
Beginning LAMARCKIAN GENETIC ALGORITHM (LGA), with a maximum of 2500000 energy evaluations.

Final-Value: -12.387


	FINAL GENETIC ALGORITHM DOCKED STATE
	_______________________________________________


Detailed state:  trans 19.040 -9.713 -3.292 quatxyzw 0.269016 0.741407 -0.390190 -0.475076 center -0.963 -0.416 0.212 ntor 6 121.0136 -0.8305 177.6856 113.4770 -2.0916 -75.1631
State:	 19.040  -9.713  -3.292   0.306  0.843 -0.443 -123.271    121.01   -0.83  177.69  113.48   -2.09  -75.16

DOCKED: MODEL       60
DOCKED: USER    Run = 60
DOCKED: USER    DPF = ligand_dock.biased.dpf
DOCKED: USER  
DOCKED: USER    Estimated Free Energy of Binding    =   -9.48 kcal/mol  [=(1)+(2)+(3)-(4)]
DOCKED: USER    Estimated Inhibition Constant, Ki   =  111.57 nM (nanomolar)  [Temperature = 298.15 K]
DOCKED: USER    
DOCKED: USER    (1) Final Intermolecular Energy     =  -11.27 kcal/mol
DOCKED: USER        vdW + Hbond + desolv Energy     =  -11.27 kcal/mol
DOCKED: USER        Electrostatic Energy            =   +0.00 kcal/mol
DOCKED: USER    (2) Final Total Internal Energy     =   -1.11 kcal/mol
DOCKED: USER    (3) Torsional Free Energy           =   +1.79 kcal/mol
DOCKED: USER    (4) Unbound System's Energy  [=(2)] =   -1.11 kcal/mol
DOCKED: USER    
DOCKED: USER    
DOCKED: USER    NEWDPF move ligand.pdbqt
DOCKED: USER    NEWDPF about -0.963000 -0.416000 0.212000
DOCKED: USER    NEWDPF tran0 19.039991 -9.712800 -3.291710
DOCKED: USER    NEWDPF quaternion0 0.269016 0.741407 -0.390190 -0.475076
DOCKED: USER    NEWDPF axisangle0 0.305719 0.842561 -0.443426 -123.271388
DOCKED: USER    NEWDPF quat0 0.305719 0.842561 -0.443426 -123.271388
DOCKED: USER    NEWDPF dihe0 121.01 -0.83 177.69 113.48 -2.09 -75.16 
DOCKED: USER  keepresnum = 1 
DOCKED: USER  
DOCKED: REMARK  Name = 
DOCKED: REMARK  10 active torsions:
DOCKED: REMARK  status: ('A' for Active; 'I' for Inactive)
DOCKED: REMARK    1  A    between atoms: C_1  and  N_2
DOCKED: REMARK    2  A    between atoms: N_2  and  C_3
DOCKED: REMARK    3  A    between atoms: N_2  and  C_22
DOCKED: REMARK    4  A    between atoms: C_6  and  C_9
DOCKED: REMARK    5  A    between atoms: C_9  and  C_10
DOCKED: REMARK    6  A    between atoms: C_10  and  C_11
DOCKED: REMARK    7  A    between atoms: C_10  and  C_20
DOCKED: REMARK    8  A    between atoms: C_12  and  C_13
DOCKED: REMARK    9  A    between atoms: C_12  and  C_19
DOCKED: REMARK   10  A    between atoms: C_14  and  C_15
DOCKED: REMARK                            x       y       z     vdW  Elec       q    Type
DOCKED: REMARK                         _______ _______ _______ _____ _____    ______ ____
DOCKED: USER                              x       y       z     vdW  Elec       q    Type
DOCKED: USER                           _______ _______ _______ _____ _____    ______ ____
DOCKED: ROOT
DOCKED: ATOM      1  C   UNL     1      20.434 -10.187  -3.918 -0.45 -0.00    +0.000 C 
DOCKED: ATOM      2  C   UNL     1      21.768 -10.718  -4.450 -0.49 -0.00    +0.000 C 
DOCKED: ENDROOT
DOCKED: BRANCH   1   3
DOCKED: ATOM      3  C   UNL     1      20.354 -10.392  -2.418 -0.52 -0.00    +0.000 C 
DOCKED: ATOM      4  C   UNL     1      20.780  -9.505  -1.493 -0.58 -0.00    +0.000 C 
DOCKED: ATOM      5  C   UNL     1      21.384  -8.175  -1.882 -0.50 -0.00    +0.000 C 
DOCKED: BRANCH   4   6
DOCKED: ATOM      6  C   UNL     1      20.595  -9.854  -0.061 -0.63 -0.00    +0.000 C 
DOCKED: ATOM      7  C   UNL     1      20.485 -11.118   0.376 -0.67 -0.00    +0.000 C 
DOCKED: BRANCH   7   8
DOCKED: ATOM      8  C   UNL     1      20.304 -11.477   1.797 -0.77 -0.00    +0.000 C 
DOCKED: ATOM      9  N   UNL     1      20.609 -10.569   2.863 -0.63 -0.00    +0.000 N 
DOCKED: ATOM     10  O   UNL     1      20.327 -10.907   4.143 -1.05 -0.00    +0.000 OA
DOCKED: ATOM     11  O   UNL     1      19.889 -12.634   2.075 -1.67 -0.00    +0.000 OA
DOCKED: ATOM     12  H   UNL     1      21.023  -9.698   2.663 -0.59 -0.00    +0.000 HD
DOCKED: ENDBRANCH   7   8
DOCKED: ENDBRANCH   4   6
DOCKED: ENDBRANCH   1   3
DOCKED: BRANCH   1  13
DOCKED: ATOM     13  C   UNL     1      19.286 -10.887  -4.618 -0.42 -0.00    +0.000 C 
DOCKED: ATOM     14  O   UNL     1      19.543 -11.766  -5.488 -0.52 -0.00    +0.000 OA
DOCKED: BRANCH  13  18
DOCKED: ATOM     15  C   UNL     1      15.159  -9.924  -3.762 -0.20 -0.00    +0.000 A 
DOCKED: ATOM     16  C   UNL     1      16.122  -9.995  -2.735 -0.23 -0.00    +0.000 A 
DOCKED: ATOM     17  C   UNL     1      17.453 -10.308  -3.021 -0.18 -0.00    +0.000 A 
DOCKED: ATOM     18  C   UNL     1      17.865 -10.550  -4.340 -0.21 -0.00    +0.000 A 
DOCKED: ATOM     19  C   UNL     1      16.908 -10.494  -5.368 -0.23 -0.00    +0.000 A 
DOCKED: ATOM     20  C   UNL     1      15.576 -10.182  -5.083 -0.19 -0.00    +0.000 A 
DOCKED: BRANCH  15  22
DOCKED: ATOM     21  C   UNL     1      13.127 -10.119  -2.255 -0.25 -0.00    +0.000 C 
DOCKED: ATOM     22  N   UNL     1      13.776  -9.598  -3.466 -0.17 -0.00    +0.000 N 
DOCKED: ATOM     23  C   UNL     1      13.001  -8.742  -4.373 -0.12 -0.00    +0.000 C 
DOCKED: ENDBRANCH  15  22
DOCKED: ENDBRANCH  13  18
DOCKED: ENDBRANCH   1  13
DOCKED: TORSDOF 6
DOCKED: TER
DOCKED: ENDMDL
________________________________________________________________________________


	BEGINNING GENETIC ALGORITHM DOCKING 61 of 100
Run: 61 Seed: 566125097 302215657 [ Run 61 of 100 GA/GALS ]
Beginning LAMARCKIAN GENETIC ALGORITHM (LGA), with a maximum of 2500000 energy evaluations.

Final-Value: -13.091


	FINAL GENETIC ALGORITHM DOCKED STATE
	_______________________________________________


Detailed state:  trans 19.058 -10.394 -3.447 quatxyzw -0.007998 0.735019 -0.102680 -0.670179 center -0.963 -0.416 0.212 ntor 6 -123.3436 -86.4671 135.3823 -95.9094 74.9121 95.3242
State:	 19.058 -10.394  -3.447  -0.011  0.990 -0.138 -95.838   -123.34  -86.47  135.38  -95.91   74.91   95.32

DOCKED: MODEL       61
DOCKED: USER    Run = 61
DOCKED: USER    DPF = ligand_dock.biased.dpf
DOCKED: USER  
DOCKED: USER    Estimated Free Energy of Binding    =  -10.31 kcal/mol  [=(1)+(2)+(3)-(4)]
DOCKED: USER    Estimated Inhibition Constant, Ki   =   27.93 nM (nanomolar)  [Temperature = 298.15 K]
DOCKED: USER    
DOCKED: USER    (1) Final Intermolecular Energy     =  -12.10 kcal/mol
DOCKED: USER        vdW + Hbond + desolv Energy     =  -12.10 kcal/mol
DOCKED: USER        Electrostatic Energy            =   +0.00 kcal/mol
DOCKED: USER    (2) Final Total Internal Energy     =   -1.00 kcal/mol
DOCKED: USER    (3) Torsional Free Energy           =   +1.79 kcal/mol
DOCKED: USER    (4) Unbound System's Energy  [=(2)] =   -1.00 kcal/mol
DOCKED: USER    
DOCKED: USER    
DOCKED: USER    NEWDPF move ligand.pdbqt
DOCKED: USER    NEWDPF about -0.963000 -0.416000 0.212000
DOCKED: USER    NEWDPF tran0 19.057602 -10.393682 -3.447192
DOCKED: USER    NEWDPF quaternion0 -0.007998 0.735019 -0.102680 -0.670179
DOCKED: USER    NEWDPF axisangle0 -0.010775 0.990325 -0.138345 -95.838295
DOCKED: USER    NEWDPF quat0 -0.010775 0.990325 -0.138345 -95.838295
DOCKED: USER    NEWDPF dihe0 -123.34 -86.47 135.38 -95.91 74.91 95.32 
DOCKED: USER  keepresnum = 1 
DOCKED: USER  
DOCKED: REMARK  Name = 
DOCKED: REMARK  10 active torsions:
DOCKED: REMARK  status: ('A' for Active; 'I' for Inactive)
DOCKED: REMARK    1  A    between atoms: C_1  and  N_2
DOCKED: REMARK    2  A    between atoms: N_2  and  C_3
DOCKED: REMARK    3  A    between atoms: N_2  and  C_22
DOCKED: REMARK    4  A    between atoms: C_6  and  C_9
DOCKED: REMARK    5  A    between atoms: C_9  and  C_10
DOCKED: REMARK    6  A    between atoms: C_10  and  C_11
DOCKED: REMARK    7  A    between atoms: C_10  and  C_20
DOCKED: REMARK    8  A    between atoms: C_12  and  C_13
DOCKED: REMARK    9  A    between atoms: C_12  and  C_19
DOCKED: REMARK   10  A    between atoms: C_14  and  C_15
DOCKED: REMARK                            x       y       z     vdW  Elec       q    Type
DOCKED: REMARK                         _______ _______ _______ _____ _____    ______ ____
DOCKED: USER                              x       y       z     vdW  Elec       q    Type
DOCKED: USER                           _______ _______ _______ _____ _____    ______ ____
DOCKED: ROOT
DOCKED: ATOM      1  C   UNL     1      20.407  -9.574  -3.707 -0.41 -0.00    +0.000 C 
DOCKED: ATOM      2  C   UNL     1      21.744  -8.850  -3.887 -0.32 -0.00    +0.000 C 
DOCKED: ENDROOT
DOCKED: BRANCH   1   3
DOCKED: ATOM      3  C   UNL     1      20.229  -9.985  -2.259 -0.50 -0.00    +0.000 C 
DOCKED: ATOM      4  C   UNL     1      19.069 -10.407  -1.713 -0.35 -0.00    +0.000 C 
DOCKED: ATOM      5  C   UNL     1      17.799 -10.524  -2.526 -0.25 -0.00    +0.000 C 
DOCKED: BRANCH   4   6
DOCKED: ATOM      6  C   UNL     1      19.080 -10.802  -0.281 -0.49 -0.00    +0.000 C 
DOCKED: ATOM      7  C   UNL     1      20.205 -11.098   0.388 -0.66 -0.00    +0.000 C 
DOCKED: BRANCH   7   8
DOCKED: ATOM      8  C   UNL     1      20.228 -11.490   1.812 -0.77 -0.00    +0.000 C 
DOCKED: ATOM      9  N   UNL     1      20.646 -10.593   2.848 -0.62 -0.00    +0.000 N 
DOCKED: ATOM     10  O   UNL     1      20.550 -10.965   4.146 -1.02 -0.00    +0.000 OA
DOCKED: ATOM     11  O   UNL     1      19.890 -12.665   2.116 -1.65 -0.00    +0.000 OA
DOCKED: ATOM     12  H   UNL     1      21.003  -9.705   2.616 -0.59 -0.00    +0.000 HD
DOCKED: ENDBRANCH   7   8
DOCKED: ENDBRANCH   4   6
DOCKED: ENDBRANCH   1   3
DOCKED: BRANCH   1  13
DOCKED: ATOM     13  C   UNL     1      20.350 -10.783  -4.620 -0.47 -0.00    +0.000 C 
DOCKED: ATOM     14  O   UNL     1      19.401 -11.606  -4.489 -0.51 -0.00    +0.000 OA
DOCKED: BRANCH  13  18
DOCKED: ATOM     15  C   UNL     1      23.415 -11.595  -7.559 -0.43 -0.00    +0.000 A 
DOCKED: ATOM     16  C   UNL     1      23.271 -12.399  -6.412 -0.40 -0.00    +0.000 A 
DOCKED: ATOM     17  C   UNL     1      22.279 -12.129  -5.467 -0.42 -0.00    +0.000 A 
DOCKED: ATOM     18  C   UNL     1      21.394 -11.054  -5.642 -0.44 -0.00    +0.000 A 
DOCKED: ATOM     19  C   UNL     1      21.540 -10.239  -6.778 -0.28 -0.00    +0.000 A 
DOCKED: ATOM     20  C   UNL     1      22.533 -10.507  -7.724 -0.27 -0.00    +0.000 A 
DOCKED: BRANCH  15  22
DOCKED: ATOM     21  C   UNL     1      24.279 -12.969  -9.509 -0.40 -0.00    +0.000 C 
DOCKED: ATOM     22  N   UNL     1      24.446 -11.875  -8.543 -0.41 -0.00    +0.000 N 
DOCKED: ATOM     23  C   UNL     1      25.671 -11.069  -8.590 -0.40 -0.00    +0.000 C 
DOCKED: ENDBRANCH  15  22
DOCKED: ENDBRANCH  13  18
DOCKED: ENDBRANCH   1  13
DOCKED: TORSDOF 6
DOCKED: TER
DOCKED: ENDMDL
________________________________________________________________________________


	BEGINNING GENETIC ALGORITHM DOCKING 62 of 100
Run: 62 Seed: 1640012239 1251594535 [ Run 62 of 100 GA/GALS ]
Beginning LAMARCKIAN GENETIC ALGORITHM (LGA), with a maximum of 2500000 energy evaluations.

Final-Value: -12.459


	FINAL GENETIC ALGORITHM DOCKED STATE
	_______________________________________________


Detailed state:  trans 19.424 -9.946 -3.228 quatxyzw -0.252739 -0.749316 0.397301 0.465618 center -0.963 -0.416 0.212 ntor 6 -132.8846 24.0721 139.6197 103.7359 10.5255 -56.7045
State:	 19.424  -9.946  -3.228  -0.286 -0.847  0.449 124.500   -132.88   24.07  139.62  103.74   10.53  -56.70

DOCKED: MODEL       62
DOCKED: USER    Run = 62
DOCKED: USER    DPF = ligand_dock.biased.dpf
DOCKED: USER  
DOCKED: USER    Estimated Free Energy of Binding    =   -9.43 kcal/mol  [=(1)+(2)+(3)-(4)]
DOCKED: USER    Estimated Inhibition Constant, Ki   =  123.19 nM (nanomolar)  [Temperature = 298.15 K]
DOCKED: USER    
DOCKED: USER    (1) Final Intermolecular Energy     =  -11.22 kcal/mol
DOCKED: USER        vdW + Hbond + desolv Energy     =  -11.22 kcal/mol
DOCKED: USER        Electrostatic Energy            =   +0.00 kcal/mol
DOCKED: USER    (2) Final Total Internal Energy     =   -1.24 kcal/mol
DOCKED: USER    (3) Torsional Free Energy           =   +1.79 kcal/mol
DOCKED: USER    (4) Unbound System's Energy  [=(2)] =   -1.24 kcal/mol
DOCKED: USER    
DOCKED: USER    
DOCKED: USER    NEWDPF move ligand.pdbqt
DOCKED: USER    NEWDPF about -0.963000 -0.416000 0.212000
DOCKED: USER    NEWDPF tran0 19.424430 -9.946371 -3.228127
DOCKED: USER    NEWDPF quaternion0 -0.252739 -0.749316 0.397301 0.465618
DOCKED: USER    NEWDPF axisangle0 -0.285585 -0.846699 0.448935 124.499604
DOCKED: USER    NEWDPF quat0 -0.285585 -0.846699 0.448935 124.499604
DOCKED: USER    NEWDPF dihe0 -132.88 24.07 139.62 103.74 10.53 -56.70 
DOCKED: USER  keepresnum = 1 
DOCKED: USER  
DOCKED: REMARK  Name = 
DOCKED: REMARK  10 active torsions:
DOCKED: REMARK  status: ('A' for Active; 'I' for Inactive)
DOCKED: REMARK    1  A    between atoms: C_1  and  N_2
DOCKED: REMARK    2  A    between atoms: N_2  and  C_3
DOCKED: REMARK    3  A    between atoms: N_2  and  C_22
DOCKED: REMARK    4  A    between atoms: C_6  and  C_9
DOCKED: REMARK    5  A    between atoms: C_9  and  C_10
DOCKED: REMARK    6  A    between atoms: C_10  and  C_11
DOCKED: REMARK    7  A    between atoms: C_10  and  C_20
DOCKED: REMARK    8  A    between atoms: C_12  and  C_13
DOCKED: REMARK    9  A    between atoms: C_12  and  C_19
DOCKED: REMARK   10  A    between atoms: C_14  and  C_15
DOCKED: REMARK                            x       y       z     vdW  Elec       q    Type
DOCKED: REMARK                         _______ _______ _______ _____ _____    ______ ____
DOCKED: USER                              x       y       z     vdW  Elec       q    Type
DOCKED: USER                           _______ _______ _______ _____ _____    ______ ____
DOCKED: ROOT
DOCKED: ATOM      1  C   UNL     1      20.801 -10.411  -3.900 -0.49 -0.00    +0.000 C 
DOCKED: ATOM      2  C   UNL     1      22.121 -10.930  -4.475 -0.26 -0.00    +0.000 C 
DOCKED: ENDROOT
DOCKED: BRANCH   1   3
DOCKED: ATOM      3  C   UNL     1      20.780 -10.594  -2.395 -0.52 -0.00    +0.000 C 
DOCKED: ATOM      4  C   UNL     1      20.997  -9.612  -1.495 -0.62 -0.00    +0.000 C 
DOCKED: ATOM      5  C   UNL     1      21.275  -8.187  -1.918 -0.49 -0.00    +0.000 C 
DOCKED: BRANCH   4   6
DOCKED: ATOM      6  C   UNL     1      20.907  -9.961  -0.053 -0.68 -0.00    +0.000 C 
DOCKED: ATOM      7  C   UNL     1      20.369 -11.108   0.389 -0.67 -0.00    +0.000 C 
DOCKED: BRANCH   7   8
DOCKED: ATOM      8  C   UNL     1      20.277 -11.467   1.820 -0.77 -0.00    +0.000 C 
DOCKED: ATOM      9  N   UNL     1      20.637 -10.555   2.864 -0.62 -0.00    +0.000 N 
DOCKED: ATOM     10  O   UNL     1      20.437 -10.894   4.159 -1.03 -0.00    +0.000 OA
DOCKED: ATOM     11  O   UNL     1      19.891 -12.627   2.122 -1.67 -0.00    +0.000 OA
DOCKED: ATOM     12  H   UNL     1      21.030  -9.680   2.640 -0.58 -0.00    +0.000 HD
DOCKED: ENDBRANCH   7   8
DOCKED: ENDBRANCH   4   6
DOCKED: ENDBRANCH   1   3
DOCKED: BRANCH   1  13
DOCKED: ATOM     13  C   UNL     1      19.637 -11.137  -4.545 -0.47 -0.00    +0.000 C 
DOCKED: ATOM     14  O   UNL     1      19.849 -12.237  -5.129 -0.65 -0.00    +0.000 OA
DOCKED: BRANCH  13  18
DOCKED: ATOM     15  C   UNL     1      15.622  -9.534  -4.495 -0.17 -0.00    +0.000 A 
DOCKED: ATOM     16  C   UNL     1      16.389  -9.622  -3.317 -0.20 -0.00    +0.000 A 
DOCKED: ATOM     17  C   UNL     1      17.685 -10.142  -3.342 -0.24 -0.00    +0.000 A 
DOCKED: ATOM     18  C   UNL     1      18.258 -10.582  -4.545 -0.26 -0.00    +0.000 A 
DOCKED: ATOM     19  C   UNL     1      17.494 -10.509  -5.723 -0.25 -0.00    +0.000 A 
DOCKED: ATOM     20  C   UNL     1      16.197  -9.990  -5.699 -0.17 -0.00    +0.000 A 
DOCKED: BRANCH  15  22
DOCKED: ATOM     21  C   UNL     1      14.046  -7.571  -4.182 -0.11 -0.00    +0.000 C 
DOCKED: ATOM     22  N   UNL     1      14.275  -8.993  -4.470 -0.11 -0.00    +0.000 N 
DOCKED: ATOM     23  C   UNL     1      13.119  -9.857  -4.733 -0.17 -0.00    +0.000 C 
DOCKED: ENDBRANCH  15  22
DOCKED: ENDBRANCH  13  18
DOCKED: ENDBRANCH   1  13
DOCKED: TORSDOF 6
DOCKED: TER
DOCKED: ENDMDL
________________________________________________________________________________


	BEGINNING GENETIC ALGORITHM DOCKING 63 of 100
Run: 63 Seed: 1314681490 1723474993 [ Run 63 of 100 GA/GALS ]
Beginning LAMARCKIAN GENETIC ALGORITHM (LGA), with a maximum of 2500000 energy evaluations.

Final-Value: -12.506


	FINAL GENETIC ALGORITHM DOCKED STATE
	_______________________________________________


Detailed state:  trans 22.436 -8.628 -3.308 quatxyzw 0.625254 -0.013718 -0.597896 0.501388 center -0.963 -0.416 0.212 ntor 6 153.2829 129.8807 -83.2927 -31.8824 -33.9084 170.9991
State:	 22.436  -8.628  -3.308   0.723 -0.016 -0.691 119.816    153.28  129.88  -83.29  -31.88  -33.91  171.00

DOCKED: MODEL       63
DOCKED: USER    Run = 63
DOCKED: USER    DPF = ligand_dock.biased.dpf
DOCKED: USER  
DOCKED: USER    Estimated Free Energy of Binding    =   -9.79 kcal/mol  [=(1)+(2)+(3)-(4)]
DOCKED: USER    Estimated Inhibition Constant, Ki   =   67.21 nM (nanomolar)  [Temperature = 298.15 K]
DOCKED: USER    
DOCKED: USER    (1) Final Intermolecular Energy     =  -11.57 kcal/mol
DOCKED: USER        vdW + Hbond + desolv Energy     =  -11.57 kcal/mol
DOCKED: USER        Electrostatic Energy            =   +0.00 kcal/mol
DOCKED: USER    (2) Final Total Internal Energy     =   -0.93 kcal/mol
DOCKED: USER    (3) Torsional Free Energy           =   +1.79 kcal/mol
DOCKED: USER    (4) Unbound System's Energy  [=(2)] =   -0.93 kcal/mol
DOCKED: USER    
DOCKED: USER    
DOCKED: USER    NEWDPF move ligand.pdbqt
DOCKED: USER    NEWDPF about -0.963000 -0.416000 0.212000
DOCKED: USER    NEWDPF tran0 22.435776 -8.627574 -3.307730
DOCKED: USER    NEWDPF quaternion0 0.625254 -0.013718 -0.597896 0.501388
DOCKED: USER    NEWDPF axisangle0 0.722651 -0.015855 -0.691032 119.816245
DOCKED: USER    NEWDPF quat0 0.722651 -0.015855 -0.691032 119.816245
DOCKED: USER    NEWDPF dihe0 153.28 129.88 -83.29 -31.88 -33.91 171.00 
DOCKED: USER  keepresnum = 1 
DOCKED: USER  
DOCKED: REMARK  Name = 
DOCKED: REMARK  10 active torsions:
DOCKED: REMARK  status: ('A' for Active; 'I' for Inactive)
DOCKED: REMARK    1  A    between atoms: C_1  and  N_2
DOCKED: REMARK    2  A    between atoms: N_2  and  C_3
DOCKED: REMARK    3  A    between atoms: N_2  and  C_22
DOCKED: REMARK    4  A    between atoms: C_6  and  C_9
DOCKED: REMARK    5  A    between atoms: C_9  and  C_10
DOCKED: REMARK    6  A    between atoms: C_10  and  C_11
DOCKED: REMARK    7  A    between atoms: C_10  and  C_20
DOCKED: REMARK    8  A    between atoms: C_12  and  C_13
DOCKED: REMARK    9  A    between atoms: C_12  and  C_19
DOCKED: REMARK   10  A    between atoms: C_14  and  C_15
DOCKED: REMARK                            x       y       z     vdW  Elec       q    Type
DOCKED: REMARK                         _______ _______ _______ _____ _____    ______ ____
DOCKED: USER                              x       y       z     vdW  Elec       q    Type
DOCKED: USER                           _______ _______ _______ _____ _____    ______ ____
DOCKED: ROOT
DOCKED: ATOM      1  C   UNL     1      20.901  -8.337  -3.654 -0.38 -0.00    +0.000 C 
DOCKED: ATOM      2  C   UNL     1      19.419  -8.034  -3.888 -0.16 -0.00    +0.000 C 
DOCKED: ENDROOT
DOCKED: BRANCH   1   3
DOCKED: ATOM      3  C   UNL     1      21.097  -8.944  -2.279 -0.52 -0.00    +0.000 C 
DOCKED: ATOM      4  C   UNL     1      20.498 -10.071  -1.840 -0.56 -0.00    +0.000 C 
DOCKED: ATOM      5  C   UNL     1      19.554 -10.867  -2.714 -0.45 -0.00    +0.000 C 
DOCKED: BRANCH   4   6
DOCKED: ATOM      6  C   UNL     1      20.829 -10.544  -0.471 -0.67 -0.00    +0.000 C 
DOCKED: ATOM      7  C   UNL     1      19.902 -10.744   0.478 -0.63 -0.00    +0.000 C 
DOCKED: BRANCH   7   8
DOCKED: ATOM      8  C   UNL     1      20.220 -11.217   1.841 -0.75 -0.00    +0.000 C 
DOCKED: ATOM      9  N   UNL     1      20.060 -10.389   2.998 -0.62 -0.00    +0.000 N 
DOCKED: ATOM     10  O   UNL     1      20.265 -10.901   4.234 -1.01 -0.00    +0.000 OA
DOCKED: ATOM     11  O   UNL     1      20.671 -12.386   1.980 -1.76 -0.00    +0.000 OA
DOCKED: ATOM     12  H   UNL     1      19.799  -9.444   2.895 -0.55 -0.00    +0.000 HD
DOCKED: ENDBRANCH   7   8
DOCKED: ENDBRANCH   4   6
DOCKED: ENDBRANCH   1   3
DOCKED: BRANCH   1  13
DOCKED: ATOM     13  C   UNL     1      21.715  -7.067  -3.802 -0.30 -0.00    +0.000 C 
DOCKED: ATOM     14  O   UNL     1      22.529  -6.970  -4.763 -0.21 -0.00    +0.000 OA
DOCKED: BRANCH  13  18
DOCKED: ATOM     15  C   UNL     1      21.471  -3.788  -0.996 -0.34 +0.00    +0.000 A 
DOCKED: ATOM     16  C   UNL     1      22.413  -3.785  -2.043 -0.28 -0.00    +0.000 A 
DOCKED: ATOM     17  C   UNL     1      22.486  -4.849  -2.945 -0.26 -0.00    +0.000 A 
DOCKED: ATOM     18  C   UNL     1      21.615  -5.944  -2.834 -0.35 -0.00    +0.000 A 
DOCKED: ATOM     19  C   UNL     1      20.681  -5.960  -1.784 -0.28 -0.00    +0.000 A 
DOCKED: ATOM     20  C   UNL     1      20.608  -4.896  -0.880 -0.34 +0.00    +0.000 A 
DOCKED: BRANCH  15  22
DOCKED: ATOM     21  C   UNL     1      22.385  -1.597  -0.099 -0.32 -0.00    +0.000 C 
DOCKED: ATOM     22  N   UNL     1      21.394  -2.681  -0.058 -0.38 +0.00    +0.000 N 
DOCKED: ATOM     23  C   UNL     1      20.325  -2.628   0.946 -0.48 -0.00    +0.000 C 
DOCKED: ENDBRANCH  15  22
DOCKED: ENDBRANCH  13  18
DOCKED: ENDBRANCH   1  13
DOCKED: TORSDOF 6
DOCKED: TER
DOCKED: ENDMDL
________________________________________________________________________________


	BEGINNING GENETIC ALGORITHM DOCKING 64 of 100
Run: 64 Seed: 1957757523 230178319 [ Run 64 of 100 GA/GALS ]
Beginning LAMARCKIAN GENETIC ALGORITHM (LGA), with a maximum of 2500000 energy evaluations.

Final-Value: -12.986


	FINAL GENETIC ALGORITHM DOCKED STATE
	_______________________________________________


Detailed state:  trans 20.987 -9.112 -3.238 quatxyzw 0.629709 0.628751 -0.436986 -0.131081 center -0.963 -0.416 0.212 ntor 6 174.3922 -176.7300 -35.5641 77.8066 79.6604 153.1625
State:	 20.987  -9.112  -3.238   0.635  0.634 -0.441 -164.936    174.39 -176.73  -35.56   77.81   79.66  153.16

DOCKED: MODEL       64
DOCKED: USER    Run = 64
DOCKED: USER    DPF = ligand_dock.biased.dpf
DOCKED: USER  
DOCKED: USER    Estimated Free Energy of Binding    =  -10.05 kcal/mol  [=(1)+(2)+(3)-(4)]
DOCKED: USER    Estimated Inhibition Constant, Ki   =   43.07 nM (nanomolar)  [Temperature = 298.15 K]
DOCKED: USER    
DOCKED: USER    (1) Final Intermolecular Energy     =  -11.84 kcal/mol
DOCKED: USER        vdW + Hbond + desolv Energy     =  -11.84 kcal/mol
DOCKED: USER        Electrostatic Energy            =   +0.00 kcal/mol
DOCKED: USER    (2) Final Total Internal Energy     =   -1.15 kcal/mol
DOCKED: USER    (3) Torsional Free Energy           =   +1.79 kcal/mol
DOCKED: USER    (4) Unbound System's Energy  [=(2)] =   -1.15 kcal/mol
DOCKED: USER    
DOCKED: USER    
DOCKED: USER    NEWDPF move ligand.pdbqt
DOCKED: USER    NEWDPF about -0.963000 -0.416000 0.212000
DOCKED: USER    NEWDPF tran0 20.986773 -9.112234 -3.238205
DOCKED: USER    NEWDPF quaternion0 0.629709 0.628751 -0.436986 -0.131081
DOCKED: USER    NEWDPF axisangle0 0.635190 0.634223 -0.440789 -164.935870
DOCKED: USER    NEWDPF quat0 0.635190 0.634223 -0.440789 -164.935870
DOCKED: USER    NEWDPF dihe0 174.39 -176.73 -35.56 77.81 79.66 153.16 
DOCKED: USER  keepresnum = 1 
DOCKED: USER  
DOCKED: REMARK  Name = 
DOCKED: REMARK  10 active torsions:
DOCKED: REMARK  status: ('A' for Active; 'I' for Inactive)
DOCKED: REMARK    1  A    between atoms: C_1  and  N_2
DOCKED: REMARK    2  A    between atoms: N_2  and  C_3
DOCKED: REMARK    3  A    between atoms: N_2  and  C_22
DOCKED: REMARK    4  A    between atoms: C_6  and  C_9
DOCKED: REMARK    5  A    between atoms: C_9  and  C_10
DOCKED: REMARK    6  A    between atoms: C_10  and  C_11
DOCKED: REMARK    7  A    between atoms: C_10  and  C_20
DOCKED: REMARK    8  A    between atoms: C_12  and  C_13
DOCKED: REMARK    9  A    between atoms: C_12  and  C_19
DOCKED: REMARK   10  A    between atoms: C_14  and  C_15
DOCKED: REMARK                            x       y       z     vdW  Elec       q    Type
DOCKED: REMARK                         _______ _______ _______ _____ _____    ______ ____
DOCKED: USER                              x       y       z     vdW  Elec       q    Type
DOCKED: USER                           _______ _______ _______ _____ _____    ______ ____
DOCKED: ROOT
DOCKED: ATOM      1  C   UNL     1      21.429 -10.177  -4.348 -0.47 -0.00    +0.000 C 
DOCKED: ATOM      2  C   UNL     1      21.787 -11.261  -5.367 -0.55 -0.00    +0.000 C 
DOCKED: ENDROOT
DOCKED: BRANCH   1   3
DOCKED: ATOM      3  C   UNL     1      21.155 -10.805  -2.995 -0.45 -0.00    +0.000 C 
DOCKED: ATOM      4  C   UNL     1      20.976 -10.118  -1.847 -0.60 -0.00    +0.000 C 
DOCKED: ATOM      5  C   UNL     1      21.021  -8.607  -1.805 -0.52 -0.00    +0.000 C 
DOCKED: BRANCH   4   6
DOCKED: ATOM      6  C   UNL     1      20.682 -10.893  -0.614 -0.58 -0.00    +0.000 C 
DOCKED: ATOM      7  C   UNL     1      20.660 -10.342   0.609 -0.68 -0.00    +0.000 C 
DOCKED: BRANCH   7   8
DOCKED: ATOM      8  C   UNL     1      20.366 -11.102   1.841 -0.74 -0.00    +0.000 C 
DOCKED: ATOM      9  N   UNL     1      20.635 -10.581   3.147 -0.65 -0.00    +0.000 N 
DOCKED: ATOM     10  O   UNL     1      20.253 -11.272   4.246 -1.08 -0.00    +0.000 OA
DOCKED: ATOM     11  O   UNL     1      19.884 -12.261   1.729 -1.79 -0.00    +0.000 OA
DOCKED: ATOM     12  H   UNL     1      21.099  -9.717   3.246 -0.60 -0.00    +0.000 HD
DOCKED: ENDBRANCH   7   8
DOCKED: ENDBRANCH   4   6
DOCKED: ENDBRANCH   1   3
DOCKED: BRANCH   1  13
DOCKED: ATOM     13  C   UNL     1      20.225  -9.394  -4.831 -0.29 -0.00    +0.000 C 
DOCKED: ATOM     14  O   UNL     1      20.268  -8.132  -4.817 -0.21 -0.00    +0.000 OA
DOCKED: BRANCH  13  18
DOCKED: ATOM     15  C   UNL     1      16.615 -11.328  -6.217 -0.29 -0.00    +0.000 A 
DOCKED: ATOM     16  C   UNL     1      17.774 -11.285  -7.016 -0.34 -0.00    +0.000 A 
DOCKED: ATOM     17  C   UNL     1      18.936 -10.657  -6.561 -0.30 -0.00    +0.000 A 
DOCKED: ATOM     18  C   UNL     1      18.979 -10.061  -5.291 -0.25 -0.00    +0.000 A 
DOCKED: ATOM     19  C   UNL     1      17.822 -10.089  -4.493 -0.24 -0.00    +0.000 A 
DOCKED: ATOM     20  C   UNL     1      16.659 -10.716  -4.948 -0.18 -0.00    +0.000 A 
DOCKED: BRANCH  15  22
DOCKED: ATOM     21  C   UNL     1      15.449 -12.884  -7.847 -0.42 +0.00    +0.000 C 
DOCKED: ATOM     22  N   UNL     1      15.407 -11.981  -6.689 -0.32 -0.00    +0.000 N 
DOCKED: ATOM     23  C   UNL     1      14.123 -11.749  -6.017 -0.30 -0.00    +0.000 C 
DOCKED: ENDBRANCH  15  22
DOCKED: ENDBRANCH  13  18
DOCKED: ENDBRANCH   1  13
DOCKED: TORSDOF 6
DOCKED: TER
DOCKED: ENDMDL
________________________________________________________________________________


	BEGINNING GENETIC ALGORITHM DOCKING 65 of 100
Run: 65 Seed: 2089500974 808866259 [ Run 65 of 100 GA/GALS ]
Beginning LAMARCKIAN GENETIC ALGORITHM (LGA), with a maximum of 2500000 energy evaluations.

Final-Value: -12.259


	FINAL GENETIC ALGORITHM DOCKED STATE
	_______________________________________________


Detailed state:  trans 21.119 -9.243 -4.189 quatxyzw -0.676082 -0.574455 0.397020 0.235139 center -0.963 -0.416 0.212 ntor 6 -173.8031 147.1943 -82.4579 -133.7596 77.6793 173.7437
State:	 21.119  -9.243  -4.189  -0.696 -0.591  0.408 152.800   -173.80  147.19  -82.46 -133.76   77.68  173.74

DOCKED: MODEL       65
DOCKED: USER    Run = 65
DOCKED: USER    DPF = ligand_dock.biased.dpf
DOCKED: USER  
DOCKED: USER    Estimated Free Energy of Binding    =   -9.24 kcal/mol  [=(1)+(2)+(3)-(4)]
DOCKED: USER    Estimated Inhibition Constant, Ki   =  168.62 nM (nanomolar)  [Temperature = 298.15 K]
DOCKED: USER    
DOCKED: USER    (1) Final Intermolecular Energy     =  -11.03 kcal/mol
DOCKED: USER        vdW + Hbond + desolv Energy     =  -11.03 kcal/mol
DOCKED: USER        Electrostatic Energy            =   +0.00 kcal/mol
DOCKED: USER    (2) Final Total Internal Energy     =   -1.23 kcal/mol
DOCKED: USER    (3) Torsional Free Energy           =   +1.79 kcal/mol
DOCKED: USER    (4) Unbound System's Energy  [=(2)] =   -1.23 kcal/mol
DOCKED: USER    
DOCKED: USER    
DOCKED: USER    NEWDPF move ligand.pdbqt
DOCKED: USER    NEWDPF about -0.963000 -0.416000 0.212000
DOCKED: USER    NEWDPF tran0 21.119495 -9.243150 -4.189040
DOCKED: USER    NEWDPF quaternion0 -0.676082 -0.574455 0.397020 0.235139
DOCKED: USER    NEWDPF axisangle0 -0.695585 -0.591026 0.408473 152.800366
DOCKED: USER    NEWDPF quat0 -0.695585 -0.591026 0.408473 152.800366
DOCKED: USER    NEWDPF dihe0 -173.80 147.19 -82.46 -133.76 77.68 173.74 
DOCKED: USER  keepresnum = 1 
DOCKED: USER  
DOCKED: REMARK  Name = 
DOCKED: REMARK  10 active torsions:
DOCKED: REMARK  status: ('A' for Active; 'I' for Inactive)
DOCKED: REMARK    1  A    between atoms: C_1  and  N_2
DOCKED: REMARK    2  A    between atoms: N_2  and  C_3
DOCKED: REMARK    3  A    between atoms: N_2  and  C_22
DOCKED: REMARK    4  A    between atoms: C_6  and  C_9
DOCKED: REMARK    5  A    between atoms: C_9  and  C_10
DOCKED: REMARK    6  A    between atoms: C_10  and  C_11
DOCKED: REMARK    7  A    between atoms: C_10  and  C_20
DOCKED: REMARK    8  A    between atoms: C_12  and  C_13
DOCKED: REMARK    9  A    between atoms: C_12  and  C_19
DOCKED: REMARK   10  A    between atoms: C_14  and  C_15
DOCKED: REMARK                            x       y       z     vdW  Elec       q    Type
DOCKED: REMARK                         _______ _______ _______ _____ _____    ______ ____
DOCKED: USER                              x       y       z     vdW  Elec       q    Type
DOCKED: USER                           _______ _______ _______ _____ _____    ______ ____
DOCKED: ROOT
DOCKED: ATOM      1  C   UNL     1      21.766 -10.436  -5.037 -0.46 -0.00    +0.000 C 
DOCKED: ATOM      2  C   UNL     1      22.309 -11.638  -5.815 -0.51 -0.00    +0.000 C 
DOCKED: ENDROOT
DOCKED: BRANCH   1   3
DOCKED: ATOM      3  C   UNL     1      21.161 -10.897  -3.725 -0.50 -0.00    +0.000 C 
DOCKED: ATOM      4  C   UNL     1      20.781 -10.079  -2.721 -0.53 -0.00    +0.000 C 
DOCKED: ATOM      5  C   UNL     1      20.918  -8.576  -2.819 -0.45 -0.00    +0.000 C 
DOCKED: BRANCH   4   6
DOCKED: ATOM      6  C   UNL     1      20.174 -10.699  -1.514 -0.50 -0.00    +0.000 C 
DOCKED: ATOM      7  C   UNL     1      20.655 -10.513  -0.276 -0.67 -0.00    +0.000 C 
DOCKED: BRANCH   7   8
DOCKED: ATOM      8  C   UNL     1      20.058 -11.122   0.930 -0.69 -0.00    +0.000 C 
DOCKED: ATOM      9  N   UNL     1      20.836 -11.845   1.892 -0.72 -0.00    +0.000 N 
DOCKED: ATOM     10  O   UNL     1      20.260 -12.293   3.031 -1.68 -0.00    +0.000 OA
DOCKED: ATOM     11  O   UNL     1      18.814 -11.017   1.100 -0.65 -0.00    +0.000 OA
DOCKED: ATOM     12  H   UNL     1      21.791 -12.016   1.723 -0.53 -0.00    +0.000 HD
DOCKED: ENDBRANCH   7   8
DOCKED: ENDBRANCH   4   6
DOCKED: ENDBRANCH   1   3
DOCKED: BRANCH   1  13
DOCKED: ATOM     13  C   UNL     1      20.738  -9.702  -5.875 -0.28 -0.00    +0.000 C 
DOCKED: ATOM     14  O   UNL     1      21.018  -8.554  -6.320 -0.16 -0.00    +0.000 OA
DOCKED: BRANCH  13  18
DOCKED: ATOM     15  C   UNL     1      16.830 -11.375  -6.663 -0.32 -0.00    +0.000 A 
DOCKED: ATOM     16  C   UNL     1      17.172 -10.884  -5.387 -0.25 -0.00    +0.000 A 
DOCKED: ATOM     17  C   UNL     1      18.437 -10.347  -5.141 -0.27 -0.00    +0.000 A 
DOCKED: ATOM     18  C   UNL     1      19.397 -10.274  -6.163 -0.26 -0.00    +0.000 A 
DOCKED: ATOM     19  C   UNL     1      19.067 -10.772  -7.435 -0.27 -0.00    +0.000 A 
DOCKED: ATOM     20  C   UNL     1      17.802 -11.312  -7.682 -0.27 -0.00    +0.000 A 
DOCKED: BRANCH  15  22
DOCKED: ATOM     21  C   UNL     1      14.354 -11.507  -6.127 -0.29 -0.00    +0.000 C 
DOCKED: ATOM     22  N   UNL     1      15.515 -11.933  -6.920 -0.32 -0.00    +0.000 N 
DOCKED: ATOM     23  C   UNL     1      15.323 -12.934  -7.977 -0.45 +0.00    +0.000 C 
DOCKED: ENDBRANCH  15  22
DOCKED: ENDBRANCH  13  18
DOCKED: ENDBRANCH   1  13
DOCKED: TORSDOF 6
DOCKED: TER
DOCKED: ENDMDL
________________________________________________________________________________


	BEGINNING GENETIC ALGORITHM DOCKING 66 of 100
Run: 66 Seed: 582747840 517190617 [ Run 66 of 100 GA/GALS ]
Beginning LAMARCKIAN GENETIC ALGORITHM (LGA), with a maximum of 2500000 energy evaluations.

Final-Value: -12.816


	FINAL GENETIC ALGORITHM DOCKED STATE
	_______________________________________________


Detailed state:  trans 20.849 -8.932 -3.316 quatxyzw -0.602711 -0.539151 0.571345 0.140072 center -0.963 -0.416 0.212 ntor 6 -69.1555 21.8474 142.8045 -104.2111 74.5123 112.6814
State:	 20.849  -8.932  -3.316  -0.609 -0.545  0.577 163.896    -69.16   21.85  142.80 -104.21   74.51  112.68

DOCKED: MODEL       66
DOCKED: USER    Run = 66
DOCKED: USER    DPF = ligand_dock.biased.dpf
DOCKED: USER  
DOCKED: USER    Estimated Free Energy of Binding    =   -9.96 kcal/mol  [=(1)+(2)+(3)-(4)]
DOCKED: USER    Estimated Inhibition Constant, Ki   =   50.28 nM (nanomolar)  [Temperature = 298.15 K]
DOCKED: USER    
DOCKED: USER    (1) Final Intermolecular Energy     =  -11.75 kcal/mol
DOCKED: USER        vdW + Hbond + desolv Energy     =  -11.75 kcal/mol
DOCKED: USER        Electrostatic Energy            =   +0.00 kcal/mol
DOCKED: USER    (2) Final Total Internal Energy     =   -1.07 kcal/mol
DOCKED: USER    (3) Torsional Free Energy           =   +1.79 kcal/mol
DOCKED: USER    (4) Unbound System's Energy  [=(2)] =   -1.07 kcal/mol
DOCKED: USER    
DOCKED: USER    
DOCKED: USER    NEWDPF move ligand.pdbqt
DOCKED: USER    NEWDPF about -0.963000 -0.416000 0.212000
DOCKED: USER    NEWDPF tran0 20.849132 -8.932045 -3.315941
DOCKED: USER    NEWDPF quaternion0 -0.602711 -0.539151 0.571345 0.140072
DOCKED: USER    NEWDPF axisangle0 -0.608712 -0.544519 0.577034 163.895952
DOCKED: USER    NEWDPF quat0 -0.608712 -0.544519 0.577034 163.895952
DOCKED: USER    NEWDPF dihe0 -69.16 21.85 142.80 -104.21 74.51 112.68 
DOCKED: USER  keepresnum = 1 
DOCKED: USER  
DOCKED: REMARK  Name = 
DOCKED: REMARK  10 active torsions:
DOCKED: REMARK  status: ('A' for Active; 'I' for Inactive)
DOCKED: REMARK    1  A    between atoms: C_1  and  N_2
DOCKED: REMARK    2  A    between atoms: N_2  and  C_3
DOCKED: REMARK    3  A    between atoms: N_2  and  C_22
DOCKED: REMARK    4  A    between atoms: C_6  and  C_9
DOCKED: REMARK    5  A    between atoms: C_9  and  C_10
DOCKED: REMARK    6  A    between atoms: C_10  and  C_11
DOCKED: REMARK    7  A    between atoms: C_10  and  C_20
DOCKED: REMARK    8  A    between atoms: C_12  and  C_13
DOCKED: REMARK    9  A    between atoms: C_12  and  C_19
DOCKED: REMARK   10  A    between atoms: C_14  and  C_15
DOCKED: REMARK                            x       y       z     vdW  Elec       q    Type
DOCKED: REMARK                         _______ _______ _______ _____ _____    ______ ____
DOCKED: USER                              x       y       z     vdW  Elec       q    Type
DOCKED: USER                           _______ _______ _______ _____ _____    ______ ____
DOCKED: ROOT
DOCKED: ATOM      1  C   UNL     1      21.006 -10.290  -4.147 -0.48 -0.00    +0.000 C 
DOCKED: ATOM      2  C   UNL     1      21.093 -11.634  -4.875 -0.49 -0.00    +0.000 C 
DOCKED: ENDROOT
DOCKED: BRANCH   1   3
DOCKED: ATOM      3  C   UNL     1      20.913 -10.515  -2.651 -0.55 -0.00    +0.000 C 
DOCKED: ATOM      4  C   UNL     1      21.088  -9.559  -1.714 -0.60 -0.00    +0.000 C 
DOCKED: ATOM      5  C   UNL     1      21.390  -8.124  -2.085 -0.49 -0.00    +0.000 C 
DOCKED: BRANCH   4   6
DOCKED: ATOM      6  C   UNL     1      20.929  -9.947  -0.289 -0.68 -0.00    +0.000 C 
DOCKED: ATOM      7  C   UNL     1      20.425 -11.129   0.095 -0.61 -0.00    +0.000 C 
DOCKED: BRANCH   7   8
DOCKED: ATOM      8  C   UNL     1      20.266 -11.527   1.509 -0.76 -0.00    +0.000 C 
DOCKED: ATOM      9  N   UNL     1      20.558 -10.639   2.594 -0.63 -0.00    +0.000 N 
DOCKED: ATOM     10  O   UNL     1      20.297 -11.015   3.868 -1.19 -0.00    +0.000 OA
DOCKED: ATOM     11  O   UNL     1      19.881 -12.700   1.761 -1.64 -0.00    +0.000 OA
DOCKED: ATOM     12  H   UNL     1      20.950  -9.753   2.413 -0.58 -0.00    +0.000 HD
DOCKED: ENDBRANCH   7   8
DOCKED: ENDBRANCH   4   6
DOCKED: ENDBRANCH   1   3
DOCKED: BRANCH   1  13
DOCKED: ATOM     13  C   UNL     1      19.806  -9.511  -4.649 -0.29 -0.00    +0.000 C 
DOCKED: ATOM     14  O   UNL     1      19.657  -8.312  -4.280 -0.23 -0.00    +0.000 OA
DOCKED: BRANCH  13  18
DOCKED: ATOM     15  C   UNL     1      16.798 -11.304  -7.183 -0.32 -0.00    +0.000 A 
DOCKED: ATOM     16  C   UNL     1      16.576 -11.117  -5.805 -0.26 -0.00    +0.000 A 
DOCKED: ATOM     17  C   UNL     1      17.554 -10.538  -4.993 -0.24 -0.00    +0.000 A 
DOCKED: ATOM     18  C   UNL     1      18.779 -10.119  -5.534 -0.25 -0.00    +0.000 A 
DOCKED: ATOM     19  C   UNL     1      19.013 -10.314  -6.906 -0.25 -0.00    +0.000 A 
DOCKED: ATOM     20  C   UNL     1      18.036 -10.895  -7.719 -0.28 -0.00    +0.000 A 
DOCKED: BRANCH  15  22
DOCKED: ATOM     21  C   UNL     1      15.401 -11.278  -9.301 -0.18 -0.00    +0.000 C 
DOCKED: ATOM     22  N   UNL     1      15.782 -11.906  -8.028 -0.31 -0.00    +0.000 N 
DOCKED: ATOM     23  C   UNL     1      15.118 -13.151  -7.626 -0.43 +0.00    +0.000 C 
DOCKED: ENDBRANCH  15  22
DOCKED: ENDBRANCH  13  18
DOCKED: ENDBRANCH   1  13
DOCKED: TORSDOF 6
DOCKED: TER
DOCKED: ENDMDL
________________________________________________________________________________


	BEGINNING GENETIC ALGORITHM DOCKING 67 of 100
Run: 67 Seed: 1478144644 1751017494 [ Run 67 of 100 GA/GALS ]
Beginning LAMARCKIAN GENETIC ALGORITHM (LGA), with a maximum of 2500000 energy evaluations.

Final-Value: -12.227


	FINAL GENETIC ALGORITHM DOCKED STATE
	_______________________________________________


Detailed state:  trans 20.278 -9.403 -4.072 quatxyzw 0.569752 0.634134 -0.399595 -0.337017 center -0.963 -0.416 0.212 ntor 6 14.2496 -113.2100 -80.1875 -133.7320 40.1768 -122.7383
State:	 20.278  -9.403  -4.072   0.605  0.674 -0.424 -140.610     14.25 -113.21  -80.19 -133.73   40.18 -122.74

DOCKED: MODEL       67
DOCKED: USER    Run = 67
DOCKED: USER    DPF = ligand_dock.biased.dpf
DOCKED: USER  
DOCKED: USER    Estimated Free Energy of Binding    =   -9.05 kcal/mol  [=(1)+(2)+(3)-(4)]
DOCKED: USER    Estimated Inhibition Constant, Ki   =  232.61 nM (nanomolar)  [Temperature = 298.15 K]
DOCKED: USER    
DOCKED: USER    (1) Final Intermolecular Energy     =  -10.84 kcal/mol
DOCKED: USER        vdW + Hbond + desolv Energy     =  -10.84 kcal/mol
DOCKED: USER        Electrostatic Energy            =   +0.00 kcal/mol
DOCKED: USER    (2) Final Total Internal Energy     =   -1.39 kcal/mol
DOCKED: USER    (3) Torsional Free Energy           =   +1.79 kcal/mol
DOCKED: USER    (4) Unbound System's Energy  [=(2)] =   -1.39 kcal/mol
DOCKED: USER    
DOCKED: USER    
DOCKED: USER    NEWDPF move ligand.pdbqt
DOCKED: USER    NEWDPF about -0.963000 -0.416000 0.212000
DOCKED: USER    NEWDPF tran0 20.278268 -9.403411 -4.072398
DOCKED: USER    NEWDPF quaternion0 0.569752 0.634134 -0.399595 -0.337017
DOCKED: USER    NEWDPF axisangle0 0.605154 0.673537 -0.424424 -140.609559
DOCKED: USER    NEWDPF quat0 0.605154 0.673537 -0.424424 -140.609559
DOCKED: USER    NEWDPF dihe0 14.25 -113.21 -80.19 -133.73 40.18 -122.74 
DOCKED: USER  keepresnum = 1 
DOCKED: USER  
DOCKED: REMARK  Name = 
DOCKED: REMARK  10 active torsions:
DOCKED: REMARK  status: ('A' for Active; 'I' for Inactive)
DOCKED: REMARK    1  A    between atoms: C_1  and  N_2
DOCKED: REMARK    2  A    between atoms: N_2  and  C_3
DOCKED: REMARK    3  A    between atoms: N_2  and  C_22
DOCKED: REMARK    4  A    between atoms: C_6  and  C_9
DOCKED: REMARK    5  A    between atoms: C_9  and  C_10
DOCKED: REMARK    6  A    between atoms: C_10  and  C_11
DOCKED: REMARK    7  A    between atoms: C_10  and  C_20
DOCKED: REMARK    8  A    between atoms: C_12  and  C_13
DOCKED: REMARK    9  A    between atoms: C_12  and  C_19
DOCKED: REMARK   10  A    between atoms: C_14  and  C_15
DOCKED: REMARK                            x       y       z     vdW  Elec       q    Type
DOCKED: REMARK                         _______ _______ _______ _____ _____    ______ ____
DOCKED: USER                              x       y       z     vdW  Elec       q    Type
DOCKED: USER                           _______ _______ _______ _____ _____    ______ ____
DOCKED: ROOT
DOCKED: ATOM      1  C   UNL     1      21.250 -10.476  -4.755 -0.48 -0.00    +0.000 C 
DOCKED: ATOM      2  C   UNL     1      22.123 -11.576  -5.366 -0.55 -0.00    +0.000 C 
DOCKED: ENDROOT
DOCKED: BRANCH   1   3
DOCKED: ATOM      3  C   UNL     1      20.769 -10.897  -3.380 -0.48 -0.00    +0.000 C 
DOCKED: ATOM      4  C   UNL     1      20.830 -10.129  -2.272 -0.57 -0.00    +0.000 C 
DOCKED: ATOM      5  C   UNL     1      21.391  -8.725  -2.303 -0.50 -0.00    +0.000 C 
DOCKED: BRANCH   4   6
DOCKED: ATOM      6  C   UNL     1      20.282 -10.689  -1.009 -0.55 -0.00    +0.000 C 
DOCKED: ATOM      7  C   UNL     1      20.988 -10.752   0.130 -0.69 -0.00    +0.000 C 
DOCKED: BRANCH   7   8
DOCKED: ATOM      8  C   UNL     1      20.452 -11.303   1.391 -0.75 -0.00    +0.000 C 
DOCKED: ATOM      9  N   UNL     1      20.558 -10.609   2.639 -0.63 -0.00    +0.000 N 
DOCKED: ATOM     10  O   UNL     1      19.960 -11.107   3.746 -1.13 -0.00    +0.000 OA
DOCKED: ATOM     11  O   UNL     1      19.904 -12.438   1.364 -1.62 -0.00    +0.000 OA
DOCKED: ATOM     12  H   UNL     1      21.067  -9.766   2.692 -0.60 -0.00    +0.000 HD
DOCKED: ENDBRANCH   7   8
DOCKED: ENDBRANCH   4   6
DOCKED: ENDBRANCH   1   3
DOCKED: BRANCH   1  13
DOCKED: ATOM     13  C   UNL     1      20.076 -10.184  -5.668 -0.32 -0.00    +0.000 C 
DOCKED: ATOM     14  O   UNL     1      20.286 -10.025  -6.904 -0.24 -0.00    +0.000 OA
DOCKED: BRANCH  13  18
DOCKED: ATOM     15  C   UNL     1      16.056  -9.746  -4.140 -0.20 -0.00    +0.000 A 
DOCKED: ATOM     16  C   UNL     1      17.034  -8.757  -3.920 -0.10 -0.00    +0.000 A 
DOCKED: ATOM     17  C   UNL     1      18.331  -8.906  -4.416 -0.19 -0.00    +0.000 A 
DOCKED: ATOM     18  C   UNL     1      18.688 -10.045  -5.155 -0.24 -0.00    +0.000 A 
DOCKED: ATOM     19  C   UNL     1      17.722 -11.043  -5.368 -0.25 -0.00    +0.000 A 
DOCKED: ATOM     20  C   UNL     1      16.424 -10.894  -4.870 -0.14 -0.00    +0.000 A 
DOCKED: BRANCH  15  22
DOCKED: ATOM     21  C   UNL     1      13.947 -10.758  -3.157 -0.29 -0.00    +0.000 C 
DOCKED: ATOM     22  N   UNL     1      14.707  -9.591  -3.624 -0.17 -0.00    +0.000 N 
DOCKED: ATOM     23  C   UNL     1      14.081  -8.265  -3.561 -0.15 -0.00    +0.000 C 
DOCKED: ENDBRANCH  15  22
DOCKED: ENDBRANCH  13  18
DOCKED: ENDBRANCH   1  13
DOCKED: TORSDOF 6
DOCKED: TER
DOCKED: ENDMDL
________________________________________________________________________________


	BEGINNING GENETIC ALGORITHM DOCKING 68 of 100
Run: 68 Seed: 1349704810 1907726749 [ Run 68 of 100 GA/GALS ]
Beginning LAMARCKIAN GENETIC ALGORITHM (LGA), with a maximum of 2500000 energy evaluations.

Final-Value: -12.330


	FINAL GENETIC ALGORITHM DOCKED STATE
	_______________________________________________


Detailed state:  trans 21.830 -8.489 -3.087 quatxyzw -0.640068 -0.460493 0.614184 -0.032211 center -0.963 -0.416 0.212 ntor 6 59.6755 86.4412 -21.3781 144.4497 -154.0026 -80.7429
State:	 21.830  -8.489  -3.087  -0.640 -0.461  0.615 -176.308     59.68   86.44  -21.38  144.45 -154.00  -80.74

DOCKED: MODEL       68
DOCKED: USER    Run = 68
DOCKED: USER    DPF = ligand_dock.biased.dpf
DOCKED: USER  
DOCKED: USER    Estimated Free Energy of Binding    =   -9.57 kcal/mol  [=(1)+(2)+(3)-(4)]
DOCKED: USER    Estimated Inhibition Constant, Ki   =   96.16 nM (nanomolar)  [Temperature = 298.15 K]
DOCKED: USER    
DOCKED: USER    (1) Final Intermolecular Energy     =  -11.36 kcal/mol
DOCKED: USER        vdW + Hbond + desolv Energy     =  -11.36 kcal/mol
DOCKED: USER        Electrostatic Energy            =   +0.00 kcal/mol
DOCKED: USER    (2) Final Total Internal Energy     =   -0.97 kcal/mol
DOCKED: USER    (3) Torsional Free Energy           =   +1.79 kcal/mol
DOCKED: USER    (4) Unbound System's Energy  [=(2)] =   -0.97 kcal/mol
DOCKED: USER    
DOCKED: USER    
DOCKED: USER    NEWDPF move ligand.pdbqt
DOCKED: USER    NEWDPF about -0.963000 -0.416000 0.212000
DOCKED: USER    NEWDPF tran0 21.829768 -8.488759 -3.086850
DOCKED: USER    NEWDPF quaternion0 -0.640068 -0.460493 0.614184 -0.032211
DOCKED: USER    NEWDPF axisangle0 -0.640401 -0.460732 0.614502 -176.308292
DOCKED: USER    NEWDPF quat0 -0.640401 -0.460732 0.614502 -176.308292
DOCKED: USER    NEWDPF dihe0 59.68 86.44 -21.38 144.45 -154.00 -80.74 
DOCKED: USER  keepresnum = 1 
DOCKED: USER  
DOCKED: REMARK  Name = 
DOCKED: REMARK  10 active torsions:
DOCKED: REMARK  status: ('A' for Active; 'I' for Inactive)
DOCKED: REMARK    1  A    between atoms: C_1  and  N_2
DOCKED: REMARK    2  A    between atoms: N_2  and  C_3
DOCKED: REMARK    3  A    between atoms: N_2  and  C_22
DOCKED: REMARK    4  A    between atoms: C_6  and  C_9
DOCKED: REMARK    5  A    between atoms: C_9  and  C_10
DOCKED: REMARK    6  A    between atoms: C_10  and  C_11
DOCKED: REMARK    7  A    between atoms: C_10  and  C_20
DOCKED: REMARK    8  A    between atoms: C_12  and  C_13
DOCKED: REMARK    9  A    between atoms: C_12  and  C_19
DOCKED: REMARK   10  A    between atoms: C_14  and  C_15
DOCKED: REMARK                            x       y       z     vdW  Elec       q    Type
DOCKED: REMARK                         _______ _______ _______ _____ _____    ______ ____
DOCKED: USER                              x       y       z     vdW  Elec       q    Type
DOCKED: USER                           _______ _______ _______ _____ _____    ______ ____
DOCKED: ROOT
DOCKED: ATOM      1  C   UNL     1      21.378  -9.722  -4.001 -0.45 -0.00    +0.000 C 
DOCKED: ATOM      2  C   UNL     1      20.883 -10.930  -4.800 -0.51 -0.00    +0.000 C 
DOCKED: ENDROOT
DOCKED: BRANCH   1   3
DOCKED: ATOM      3  C   UNL     1      21.448 -10.067  -2.526 -0.52 -0.00    +0.000 C 
DOCKED: ATOM      4  C   UNL     1      20.389 -10.414  -1.763 -0.55 -0.00    +0.000 C 
DOCKED: ATOM      5  C   UNL     1      18.991 -10.508  -2.332 -0.40 -0.00    +0.000 C 
DOCKED: BRANCH   4   6
DOCKED: ATOM      6  C   UNL     1      20.643 -10.753  -0.339 -0.64 -0.00    +0.000 C 
DOCKED: ATOM      7  C   UNL     1      19.687 -11.208   0.486 -0.63 -0.00    +0.000 C 
DOCKED: BRANCH   7   8
DOCKED: ATOM      8  C   UNL     1      19.929 -11.551   1.902 -0.75 -0.00    +0.000 C 
DOCKED: ATOM      9  N   UNL     1      20.227 -10.560   2.892 -0.67 -0.00    +0.000 N 
DOCKED: ATOM     10  O   UNL     1      20.337 -10.912   4.194 -1.03 -0.00    +0.000 OA
DOCKED: ATOM     11  O   UNL     1      19.893 -12.765   2.239 -1.57 -0.00    +0.000 OA
DOCKED: ATOM     12  H   UNL     1      20.351  -9.619   2.625 -0.54 -0.00    +0.000 HD
DOCKED: ENDBRANCH   7   8
DOCKED: ENDBRANCH   4   6
DOCKED: ENDBRANCH   1   3
DOCKED: BRANCH   1  13
DOCKED: ATOM     13  C   UNL     1      20.458  -8.540  -4.233 -0.31 -0.00    +0.000 C 
DOCKED: ATOM     14  O   UNL     1      19.524  -8.647  -5.077 -0.18 -0.00    +0.000 OA
DOCKED: BRANCH  13  18
DOCKED: ATOM     15  C   UNL     1      21.001  -4.798  -2.138 -0.36 -0.00    +0.000 A 
DOCKED: ATOM     16  C   UNL     1      21.734  -5.947  -1.783 -0.29 +0.00    +0.000 A 
DOCKED: ATOM     17  C   UNL     1      21.551  -7.153  -2.464 -0.35 -0.00    +0.000 A 
DOCKED: ATOM     18  C   UNL     1      20.639  -7.245  -3.527 -0.30 -0.00    +0.000 A 
DOCKED: ATOM     19  C   UNL     1      19.895  -6.105  -3.879 -0.16 -0.00    +0.000 A 
DOCKED: ATOM     20  C   UNL     1      20.076  -4.899  -3.196 -0.18 -0.00    +0.000 A 
DOCKED: BRANCH  15  22
DOCKED: ATOM     21  C   UNL     1      20.247  -3.126  -0.385 -0.42 -0.00    +0.000 C 
DOCKED: ATOM     22  N   UNL     1      21.190  -3.544  -1.430 -0.32 -0.00    +0.000 N 
DOCKED: ATOM     23  C   UNL     1      22.328  -2.672  -1.747 -0.24 -0.00    +0.000 C 
DOCKED: ENDBRANCH  15  22
DOCKED: ENDBRANCH  13  18
DOCKED: ENDBRANCH   1  13
DOCKED: TORSDOF 6
DOCKED: TER
DOCKED: ENDMDL
________________________________________________________________________________


	BEGINNING GENETIC ALGORITHM DOCKING 69 of 100
Run: 69 Seed: 1971300890 840487031 [ Run 69 of 100 GA/GALS ]
Beginning LAMARCKIAN GENETIC ALGORITHM (LGA), with a maximum of 2500000 energy evaluations.

Final-Value: -12.474


	FINAL GENETIC ALGORITHM DOCKED STATE
	_______________________________________________


Detailed state:  trans 19.855 -9.528 -3.109 quatxyzw -0.385958 -0.763624 0.425047 0.295380 center -0.963 -0.416 0.212 ntor 6 -85.7632 128.1313 45.9375 105.9873 41.5613 -100.5975
State:	 19.855  -9.528  -3.109  -0.404 -0.799  0.445 145.639    -85.76  128.13   45.94  105.99   41.56 -100.60

DOCKED: MODEL       69
DOCKED: USER    Run = 69
DOCKED: USER    DPF = ligand_dock.biased.dpf
DOCKED: USER  
DOCKED: USER    Estimated Free Energy of Binding    =   -9.61 kcal/mol  [=(1)+(2)+(3)-(4)]
DOCKED: USER    Estimated Inhibition Constant, Ki   =   89.70 nM (nanomolar)  [Temperature = 298.15 K]
DOCKED: USER    
DOCKED: USER    (1) Final Intermolecular Energy     =  -11.40 kcal/mol
DOCKED: USER        vdW + Hbond + desolv Energy     =  -11.40 kcal/mol
DOCKED: USER        Electrostatic Energy            =   +0.00 kcal/mol
DOCKED: USER    (2) Final Total Internal Energy     =   -1.07 kcal/mol
DOCKED: USER    (3) Torsional Free Energy           =   +1.79 kcal/mol
DOCKED: USER    (4) Unbound System's Energy  [=(2)] =   -1.07 kcal/mol
DOCKED: USER    
DOCKED: USER    
DOCKED: USER    NEWDPF move ligand.pdbqt
DOCKED: USER    NEWDPF about -0.963000 -0.416000 0.212000
DOCKED: USER    NEWDPF tran0 19.854885 -9.528426 -3.108831
DOCKED: USER    NEWDPF quaternion0 -0.385958 -0.763624 0.425047 0.295380
DOCKED: USER    NEWDPF axisangle0 -0.403983 -0.799289 0.444899 145.639363
DOCKED: USER    NEWDPF quat0 -0.403983 -0.799289 0.444899 145.639363
DOCKED: USER    NEWDPF dihe0 -85.76 128.13 45.94 105.99 41.56 -100.60 
DOCKED: USER  keepresnum = 1 
DOCKED: USER  
DOCKED: REMARK  Name = 
DOCKED: REMARK  10 active torsions:
DOCKED: REMARK  status: ('A' for Active; 'I' for Inactive)
DOCKED: REMARK    1  A    between atoms: C_1  and  N_2
DOCKED: REMARK    2  A    between atoms: N_2  and  C_3
DOCKED: REMARK    3  A    between atoms: N_2  and  C_22
DOCKED: REMARK    4  A    between atoms: C_6  and  C_9
DOCKED: REMARK    5  A    between atoms: C_9  and  C_10
DOCKED: REMARK    6  A    between atoms: C_10  and  C_11
DOCKED: REMARK    7  A    between atoms: C_10  and  C_20
DOCKED: REMARK    8  A    between atoms: C_12  and  C_13
DOCKED: REMARK    9  A    between atoms: C_12  and  C_19
DOCKED: REMARK   10  A    between atoms: C_14  and  C_15
DOCKED: REMARK                            x       y       z     vdW  Elec       q    Type
DOCKED: REMARK                         _______ _______ _______ _____ _____    ______ ____
DOCKED: USER                              x       y       z     vdW  Elec       q    Type
DOCKED: USER                           _______ _______ _______ _____ _____    ______ ____
DOCKED: ROOT
DOCKED: ATOM      1  C   UNL     1      20.862 -10.270  -4.107 -0.47 -0.00    +0.000 C 
DOCKED: ATOM      2  C   UNL     1      21.810 -11.065  -5.009 -0.52 -0.00    +0.000 C 
DOCKED: ENDROOT
DOCKED: BRANCH   1   3
DOCKED: ATOM      3  C   UNL     1      20.988 -10.744  -2.673 -0.46 -0.00    +0.000 C 
DOCKED: ATOM      4  C   UNL     1      21.109  -9.934  -1.600 -0.62 -0.00    +0.000 C 
DOCKED: ATOM      5  C   UNL     1      21.115  -8.427  -1.734 -0.51 -0.00    +0.000 C 
DOCKED: BRANCH   4   6
DOCKED: ATOM      6  C   UNL     1      21.190 -10.567  -0.258 -0.70 -0.00    +0.000 C 
DOCKED: ATOM      7  C   UNL     1      20.186 -10.528   0.631 -0.65 -0.00    +0.000 C 
DOCKED: BRANCH   7   8
DOCKED: ATOM      8  C   UNL     1      20.254 -11.157   1.966 -0.75 -0.00    +0.000 C 
DOCKED: ATOM      9  N   UNL     1      20.315 -10.390   3.174 -0.63 -0.00    +0.000 N 
DOCKED: ATOM     10  O   UNL     1      20.271 -11.012   4.375 -0.95 -0.00    +0.000 OA
DOCKED: ATOM     11  O   UNL     1      20.284 -12.415   2.034 -1.84 -0.00    +0.000 OA
DOCKED: ATOM     12  H   UNL     1      20.388  -9.409   3.130 -0.58 -0.00    +0.000 HD
DOCKED: ENDBRANCH   7   8
DOCKED: ENDBRANCH   4   6
DOCKED: ENDBRANCH   1   3
DOCKED: BRANCH   1  13
DOCKED: ATOM     13  C   UNL     1      19.436 -10.423  -4.600 -0.37 -0.00    +0.000 C 
DOCKED: ATOM     14  O   UNL     1      19.234 -10.697  -5.816 -0.34 -0.00    +0.000 OA
DOCKED: BRANCH  13  18
DOCKED: ATOM     15  C   UNL     1      16.039  -9.896  -1.978 -0.19 -0.00    +0.000 A 
DOCKED: ATOM     16  C   UNL     1      17.139 -10.689  -1.598 -0.23 -0.00    +0.000 A 
DOCKED: ATOM     17  C   UNL     1      18.232 -10.855  -2.452 -0.14 -0.00    +0.000 A 
DOCKED: ATOM     18  C   UNL     1      18.264 -10.226  -3.707 -0.27 -0.00    +0.000 A 
DOCKED: ATOM     19  C   UNL     1      17.164  -9.444  -4.098 -0.20 -0.00    +0.000 A 
DOCKED: ATOM     20  C   UNL     1      16.070  -9.278  -3.245 -0.18 -0.00    +0.000 A 
DOCKED: BRANCH  15  22
DOCKED: ATOM     21  C   UNL     1      14.587  -8.401  -0.531 -0.24 -0.00    +0.000 C 
DOCKED: ATOM     22  N   UNL     1      14.902  -9.722  -1.091 -0.23 -0.00    +0.000 N 
DOCKED: ATOM     23  C   UNL     1      14.049 -10.863  -0.740 -0.32 +0.00    +0.000 C 
DOCKED: ENDBRANCH  15  22
DOCKED: ENDBRANCH  13  18
DOCKED: ENDBRANCH   1  13
DOCKED: TORSDOF 6
DOCKED: TER
DOCKED: ENDMDL
________________________________________________________________________________


	BEGINNING GENETIC ALGORITHM DOCKING 70 of 100
Run: 70 Seed: 2036381404 1541160469 [ Run 70 of 100 GA/GALS ]
Beginning LAMARCKIAN GENETIC ALGORITHM (LGA), with a maximum of 2500000 energy evaluations.

Final-Value: -12.382


	FINAL GENETIC ALGORITHM DOCKED STATE
	_______________________________________________


Detailed state:  trans 21.628 -8.873 -2.727 quatxyzw 0.719751 0.445617 -0.520140 0.113304 center -0.963 -0.416 0.212 ntor 6 100.5763 -142.6222 -151.3415 75.3251 -151.0483 -54.6934
State:	 21.628  -8.873  -2.727   0.724  0.449 -0.524 166.988    100.58 -142.62 -151.34   75.33 -151.05  -54.69

DOCKED: MODEL       70
DOCKED: USER    Run = 70
DOCKED: USER    DPF = ligand_dock.biased.dpf
DOCKED: USER  
DOCKED: USER    Estimated Free Energy of Binding    =   -9.49 kcal/mol  [=(1)+(2)+(3)-(4)]
DOCKED: USER    Estimated Inhibition Constant, Ki   =  110.15 nM (nanomolar)  [Temperature = 298.15 K]
DOCKED: USER    
DOCKED: USER    (1) Final Intermolecular Energy     =  -11.28 kcal/mol
DOCKED: USER        vdW + Hbond + desolv Energy     =  -11.28 kcal/mol
DOCKED: USER        Electrostatic Energy            =   +0.00 kcal/mol
DOCKED: USER    (2) Final Total Internal Energy     =   -1.10 kcal/mol
DOCKED: USER    (3) Torsional Free Energy           =   +1.79 kcal/mol
DOCKED: USER    (4) Unbound System's Energy  [=(2)] =   -1.10 kcal/mol
DOCKED: USER    
DOCKED: USER    
DOCKED: USER    NEWDPF move ligand.pdbqt
DOCKED: USER    NEWDPF about -0.963000 -0.416000 0.212000
DOCKED: USER    NEWDPF tran0 21.628215 -8.872762 -2.726853
DOCKED: USER    NEWDPF quaternion0 0.719751 0.445617 -0.520140 0.113304
DOCKED: USER    NEWDPF axisangle0 0.724416 0.448506 -0.523512 166.988335
DOCKED: USER    NEWDPF quat0 0.724416 0.448506 -0.523512 166.988335
DOCKED: USER    NEWDPF dihe0 100.58 -142.62 -151.34 75.33 -151.05 -54.69 
DOCKED: USER  keepresnum = 1 
DOCKED: USER  
DOCKED: REMARK  Name = 
DOCKED: REMARK  10 active torsions:
DOCKED: REMARK  status: ('A' for Active; 'I' for Inactive)
DOCKED: REMARK    1  A    between atoms: C_1  and  N_2
DOCKED: REMARK    2  A    between atoms: N_2  and  C_3
DOCKED: REMARK    3  A    between atoms: N_2  and  C_22
DOCKED: REMARK    4  A    between atoms: C_6  and  C_9
DOCKED: REMARK    5  A    between atoms: C_9  and  C_10
DOCKED: REMARK    6  A    between atoms: C_10  and  C_11
DOCKED: REMARK    7  A    between atoms: C_10  and  C_20
DOCKED: REMARK    8  A    between atoms: C_12  and  C_13
DOCKED: REMARK    9  A    between atoms: C_12  and  C_19
DOCKED: REMARK   10  A    between atoms: C_14  and  C_15
DOCKED: REMARK                            x       y       z     vdW  Elec       q    Type
DOCKED: REMARK                         _______ _______ _______ _____ _____    ______ ____
DOCKED: USER                              x       y       z     vdW  Elec       q    Type
DOCKED: USER                           _______ _______ _______ _____ _____    ______ ____
DOCKED: ROOT
DOCKED: ATOM      1  C   UNL     1      21.107  -9.833  -3.896 -0.46 -0.00    +0.000 C 
DOCKED: ATOM      2  C   UNL     1      20.530 -10.777  -4.954 -0.47 -0.00    +0.000 C 
DOCKED: ENDROOT
DOCKED: BRANCH   1   3
DOCKED: ATOM      3  C   UNL     1      20.879 -10.403  -2.510 -0.55 -0.00    +0.000 C 
DOCKED: ATOM      4  C   UNL     1      19.669 -10.687  -1.981 -0.46 -0.00    +0.000 C 
DOCKED: ATOM      5  C   UNL     1      18.388 -10.467  -2.754 -0.32 -0.00    +0.000 C 
DOCKED: BRANCH   4   6
DOCKED: ATOM      6  C   UNL     1      19.630 -11.274  -0.617 -0.48 -0.00    +0.000 C 
DOCKED: ATOM      7  C   UNL     1      20.211 -10.695   0.445 -0.66 -0.00    +0.000 C 
DOCKED: BRANCH   7   8
DOCKED: ATOM      8  C   UNL     1      20.175 -11.267   1.807 -0.75 -0.00    +0.000 C 
DOCKED: ATOM      9  N   UNL     1      20.420 -10.479   2.977 -0.63 -0.00    +0.000 N 
DOCKED: ATOM     10  O   UNL     1      20.273 -11.026   4.206 -1.05 -0.00    +0.000 OA
DOCKED: ATOM     11  O   UNL     1      19.944 -12.499   1.932 -1.75 -0.00    +0.000 OA
DOCKED: ATOM     12  H   UNL     1      20.695  -9.537   2.888 -0.58 -0.00    +0.000 HD
DOCKED: ENDBRANCH   7   8
DOCKED: ENDBRANCH   4   6
DOCKED: ENDBRANCH   1   3
DOCKED: BRANCH   1  13
DOCKED: ATOM     13  C   UNL     1      20.469  -8.464  -4.026 -0.32 -0.00    +0.000 C 
DOCKED: ATOM     14  O   UNL     1      19.358  -8.359  -4.618 -0.21 -0.00    +0.000 OA
DOCKED: BRANCH  13  18
DOCKED: ATOM     15  C   UNL     1      22.339  -4.885  -2.482 -0.31 -0.00    +0.000 A 
DOCKED: ATOM     16  C   UNL     1      21.666  -5.783  -1.631 -0.28 +0.00    +0.000 A 
DOCKED: ATOM     17  C   UNL     1      21.064  -6.937  -2.138 -0.40 -0.00    +0.000 A 
DOCKED: ATOM     18  C   UNL     1      21.122  -7.233  -3.509 -0.32 -0.00    +0.000 A 
DOCKED: ATOM     19  C   UNL     1      21.781  -6.335  -4.366 -0.21 -0.00    +0.000 A 
DOCKED: ATOM     20  C   UNL     1      22.382  -5.179  -3.860 -0.18 -0.00    +0.000 A 
DOCKED: BRANCH  15  22
DOCKED: ATOM     21  C   UNL     1      22.172  -2.683  -1.232 -0.29 -0.00    +0.000 C 
DOCKED: ATOM     22  N   UNL     1      22.966  -3.685  -1.956 -0.29 +0.00    +0.000 N 
DOCKED: ATOM     23  C   UNL     1      24.404  -3.454  -2.138 -0.30 -0.00    +0.000 C 
DOCKED: ENDBRANCH  15  22
DOCKED: ENDBRANCH  13  18
DOCKED: ENDBRANCH   1  13
DOCKED: TORSDOF 6
DOCKED: TER
DOCKED: ENDMDL
________________________________________________________________________________


	BEGINNING GENETIC ALGORITHM DOCKING 71 of 100
Run: 71 Seed: 1235489474 1318127550 [ Run 71 of 100 GA/GALS ]
Beginning LAMARCKIAN GENETIC ALGORITHM (LGA), with a maximum of 2500000 energy evaluations.

Final-Value: -12.833


	FINAL GENETIC ALGORITHM DOCKED STATE
	_______________________________________________


Detailed state:  trans 18.940 -10.363 -3.475 quatxyzw 0.092181 0.791796 -0.261229 -0.544353 center -0.963 -0.416 0.212 ntor 6 -134.9068 26.2028 149.4502 111.8377 -25.9240 -29.2722
State:	 18.940 -10.363  -3.475   0.110  0.944 -0.311 -114.039   -134.91   26.20  149.45  111.84  -25.92  -29.27

DOCKED: MODEL       71
DOCKED: USER    Run = 71
DOCKED: USER    DPF = ligand_dock.biased.dpf
DOCKED: USER  
DOCKED: USER    Estimated Free Energy of Binding    =   -9.99 kcal/mol  [=(1)+(2)+(3)-(4)]
DOCKED: USER    Estimated Inhibition Constant, Ki   =   47.81 nM (nanomolar)  [Temperature = 298.15 K]
DOCKED: USER    
DOCKED: USER    (1) Final Intermolecular Energy     =  -11.78 kcal/mol
DOCKED: USER        vdW + Hbond + desolv Energy     =  -11.78 kcal/mol
DOCKED: USER        Electrostatic Energy            =   +0.00 kcal/mol
DOCKED: USER    (2) Final Total Internal Energy     =   -1.06 kcal/mol
DOCKED: USER    (3) Torsional Free Energy           =   +1.79 kcal/mol
DOCKED: USER    (4) Unbound System's Energy  [=(2)] =   -1.06 kcal/mol
DOCKED: USER    
DOCKED: USER    
DOCKED: USER    NEWDPF move ligand.pdbqt
DOCKED: USER    NEWDPF about -0.963000 -0.416000 0.212000
DOCKED: USER    NEWDPF tran0 18.939962 -10.363500 -3.474812
DOCKED: USER    NEWDPF quaternion0 0.092181 0.791796 -0.261229 -0.544353
DOCKED: USER    NEWDPF axisangle0 0.109889 0.943900 -0.311410 -114.039027
DOCKED: USER    NEWDPF quat0 0.109889 0.943900 -0.311410 -114.039027
DOCKED: USER    NEWDPF dihe0 -134.91 26.20 149.45 111.84 -25.92 -29.27 
DOCKED: USER  keepresnum = 1 
DOCKED: USER  
DOCKED: REMARK  Name = 
DOCKED: REMARK  10 active torsions:
DOCKED: REMARK  status: ('A' for Active; 'I' for Inactive)
DOCKED: REMARK    1  A    between atoms: C_1  and  N_2
DOCKED: REMARK    2  A    between atoms: N_2  and  C_3
DOCKED: REMARK    3  A    between atoms: N_2  and  C_22
DOCKED: REMARK    4  A    between atoms: C_6  and  C_9
DOCKED: REMARK    5  A    between atoms: C_9  and  C_10
DOCKED: REMARK    6  A    between atoms: C_10  and  C_11
DOCKED: REMARK    7  A    between atoms: C_10  and  C_20
DOCKED: REMARK    8  A    between atoms: C_12  and  C_13
DOCKED: REMARK    9  A    between atoms: C_12  and  C_19
DOCKED: REMARK   10  A    between atoms: C_14  and  C_15
DOCKED: REMARK                            x       y       z     vdW  Elec       q    Type
DOCKED: REMARK                         _______ _______ _______ _____ _____    ______ ____
DOCKED: USER                              x       y       z     vdW  Elec       q    Type
DOCKED: USER                           _______ _______ _______ _____ _____    ______ ____
DOCKED: ROOT
DOCKED: ATOM      1  C   UNL     1      20.386 -10.141  -4.124 -0.43 -0.00    +0.000 C 
DOCKED: ATOM      2  C   UNL     1      21.804  -9.998  -4.681 -0.40 -0.00    +0.000 C 
DOCKED: ENDROOT
DOCKED: BRANCH   1   3
DOCKED: ATOM      3  C   UNL     1      20.436 -10.392  -2.630 -0.52 -0.00    +0.000 C 
DOCKED: ATOM      4  C   UNL     1      20.881  -9.507  -1.713 -0.58 -0.00    +0.000 C 
DOCKED: ATOM      5  C   UNL     1      21.375  -8.132  -2.104 -0.49 -0.00    +0.000 C 
DOCKED: BRANCH   4   6
DOCKED: ATOM      6  C   UNL     1      20.829  -9.906  -0.282 -0.67 -0.00    +0.000 C 
DOCKED: ATOM      7  C   UNL     1      20.294 -11.063   0.135 -0.63 -0.00    +0.000 C 
DOCKED: BRANCH   7   8
DOCKED: ATOM      8  C   UNL     1      20.240 -11.472   1.554 -0.76 -0.00    +0.000 C 
DOCKED: ATOM      9  N   UNL     1      20.596 -10.586   2.622 -0.62 -0.00    +0.000 N 
DOCKED: ATOM     10  O   UNL     1      20.430 -10.973   3.908 -1.14 -0.00    +0.000 OA
DOCKED: ATOM     11  O   UNL     1      19.892 -12.652   1.825 -1.66 -0.00    +0.000 OA
DOCKED: ATOM     12  H   UNL     1      20.960  -9.693   2.420 -0.57 -0.00    +0.000 HD
DOCKED: ENDBRANCH   7   8
DOCKED: ENDBRANCH   4   6
DOCKED: ENDBRANCH   1   3
DOCKED: BRANCH   1  13
DOCKED: ATOM     13  C   UNL     1      19.666 -11.270  -4.835 -0.48 -0.00    +0.000 C 
DOCKED: ATOM     14  O   UNL     1      20.263 -12.371  -4.998 -0.83 -0.00    +0.000 OA
DOCKED: BRANCH  13  18
DOCKED: ATOM     15  C   UNL     1      15.648 -10.815  -6.365 -0.22 -0.00    +0.000 A 
DOCKED: ATOM     16  C   UNL     1      16.015 -10.295  -5.109 -0.20 -0.00    +0.000 A 
DOCKED: ATOM     17  C   UNL     1      17.315 -10.447  -4.621 -0.22 -0.00    +0.000 A 
DOCKED: ATOM     18  C   UNL     1      18.291 -11.116  -5.377 -0.31 -0.00    +0.000 A 
DOCKED: ATOM     19  C   UNL     1      17.928 -11.649  -6.626 -0.29 -0.00    +0.000 A 
DOCKED: ATOM     20  C   UNL     1      16.628 -11.498  -7.114 -0.33 -0.00    +0.000 A 
DOCKED: BRANCH  15  22
DOCKED: ATOM     21  C   UNL     1      13.773  -9.324  -7.201 -0.07 -0.00    +0.000 C 
DOCKED: ATOM     22  N   UNL     1      14.297 -10.657  -6.873 -0.14 -0.00    +0.000 N 
DOCKED: ATOM     23  C   UNL     1      13.431 -11.826  -7.067 -0.24 -0.00    +0.000 C 
DOCKED: ENDBRANCH  15  22
DOCKED: ENDBRANCH  13  18
DOCKED: ENDBRANCH   1  13
DOCKED: TORSDOF 6
DOCKED: TER
DOCKED: ENDMDL
________________________________________________________________________________


	BEGINNING GENETIC ALGORITHM DOCKING 72 of 100
Run: 72 Seed: 1208305848 1904282206 [ Run 72 of 100 GA/GALS ]
Beginning LAMARCKIAN GENETIC ALGORITHM (LGA), with a maximum of 2500000 energy evaluations.

Final-Value: -12.101


	FINAL GENETIC ALGORITHM DOCKED STATE
	_______________________________________________


Detailed state:  trans 18.428 -10.941 -3.304 quatxyzw -0.017222 0.832822 -0.045313 -0.551414 center -0.963 -0.416 0.212 ntor 6 72.6213 -144.8903 -119.0109 113.8301 60.4698 -10.9465
State:	 18.428 -10.941  -3.304  -0.021  0.998 -0.054 -113.072     72.62 -144.89 -119.01  113.83   60.47  -10.95

DOCKED: MODEL       72
DOCKED: USER    Run = 72
DOCKED: USER    DPF = ligand_dock.biased.dpf
DOCKED: USER  
DOCKED: USER    Estimated Free Energy of Binding    =   -9.17 kcal/mol  [=(1)+(2)+(3)-(4)]
DOCKED: USER    Estimated Inhibition Constant, Ki   =  190.03 nM (nanomolar)  [Temperature = 298.15 K]
DOCKED: USER    
DOCKED: USER    (1) Final Intermolecular Energy     =  -10.96 kcal/mol
DOCKED: USER        vdW + Hbond + desolv Energy     =  -10.96 kcal/mol
DOCKED: USER        Electrostatic Energy            =   +0.00 kcal/mol
DOCKED: USER    (2) Final Total Internal Energy     =   -1.14 kcal/mol
DOCKED: USER    (3) Torsional Free Energy           =   +1.79 kcal/mol
DOCKED: USER    (4) Unbound System's Energy  [=(2)] =   -1.14 kcal/mol
DOCKED: USER    
DOCKED: USER    
DOCKED: USER    NEWDPF move ligand.pdbqt
DOCKED: USER    NEWDPF about -0.963000 -0.416000 0.212000
DOCKED: USER    NEWDPF tran0 18.428225 -10.941311 -3.303775
DOCKED: USER    NEWDPF quaternion0 -0.017222 0.832822 -0.045313 -0.551414
DOCKED: USER    NEWDPF axisangle0 -0.020644 0.998310 -0.054317 -113.071899
DOCKED: USER    NEWDPF quat0 -0.020644 0.998310 -0.054317 -113.071899
DOCKED: USER    NEWDPF dihe0 72.62 -144.89 -119.01 113.83 60.47 -10.95 
DOCKED: USER  keepresnum = 1 
DOCKED: USER  
DOCKED: REMARK  Name = 
DOCKED: REMARK  10 active torsions:
DOCKED: REMARK  status: ('A' for Active; 'I' for Inactive)
DOCKED: REMARK    1  A    between atoms: C_1  and  N_2
DOCKED: REMARK    2  A    between atoms: N_2  and  C_3
DOCKED: REMARK    3  A    between atoms: N_2  and  C_22
DOCKED: REMARK    4  A    between atoms: C_6  and  C_9
DOCKED: REMARK    5  A    between atoms: C_9  and  C_10
DOCKED: REMARK    6  A    between atoms: C_10  and  C_11
DOCKED: REMARK    7  A    between atoms: C_10  and  C_20
DOCKED: REMARK    8  A    between atoms: C_12  and  C_13
DOCKED: REMARK    9  A    between atoms: C_12  and  C_19
DOCKED: REMARK   10  A    between atoms: C_14  and  C_15
DOCKED: REMARK                            x       y       z     vdW  Elec       q    Type
DOCKED: REMARK                         _______ _______ _______ _____ _____    ______ ____
DOCKED: USER                              x       y       z     vdW  Elec       q    Type
DOCKED: USER                           _______ _______ _______ _____ _____    ______ ____
DOCKED: ROOT
DOCKED: ATOM      1  C   UNL     1      19.590 -10.002  -3.876 -0.36 -0.00    +0.000 C 
DOCKED: ATOM      2  C   UNL     1      20.769  -9.164  -4.378 -0.35 -0.00    +0.000 C 
DOCKED: ENDROOT
DOCKED: BRANCH   1   3
DOCKED: ATOM      3  C   UNL     1      19.886 -10.539  -2.489 -0.47 -0.00    +0.000 C 
DOCKED: ATOM      4  C   UNL     1      18.953 -10.833  -1.560 -0.44 -0.00    +0.000 C 
DOCKED: ATOM      5  C   UNL     1      17.475 -10.660  -1.830 -0.24 -0.00    +0.000 C 
DOCKED: BRANCH   4   6
DOCKED: ATOM      6  C   UNL     1      19.419 -11.382  -0.260 -0.53 -0.00    +0.000 C 
DOCKED: ATOM      7  C   UNL     1      19.775 -10.608   0.776 -0.62 -0.00    +0.000 C 
DOCKED: BRANCH   7   8
DOCKED: ATOM      8  C   UNL     1      20.236 -11.143   2.074 -0.75 -0.00    +0.000 C 
DOCKED: ATOM      9  N   UNL     1      20.261 -10.350   3.266 -0.64 -0.00    +0.000 N 
DOCKED: ATOM     10  O   UNL     1      20.592 -10.916   4.450 -0.85 -0.00    +0.000 OA
DOCKED: ATOM     11  O   UNL     1      20.642 -12.335   2.119 -1.86 -0.00    +0.000 OA
DOCKED: ATOM     12  H   UNL     1      20.036  -9.392   3.225 -0.59 -0.00    +0.000 HD
DOCKED: ENDBRANCH   7   8
DOCKED: ENDBRANCH   4   6
DOCKED: ENDBRANCH   1   3
DOCKED: BRANCH   1  13
DOCKED: ATOM     13  C   UNL     1      19.316 -11.136  -4.844 -0.44 -0.00    +0.000 C 
DOCKED: ATOM     14  O   UNL     1      20.193 -12.031  -5.004 -0.71 -0.00    +0.000 OA
DOCKED: BRANCH  13  18
DOCKED: ATOM     15  C   UNL     1      15.643 -11.365  -7.113 -0.27 -0.00    +0.000 A 
DOCKED: ATOM     16  C   UNL     1      15.647 -10.944  -5.769 -0.23 -0.00    +0.000 A 
DOCKED: ATOM     17  C   UNL     1      16.838 -10.874  -5.043 -0.17 -0.00    +0.000 A 
DOCKED: ATOM     18  C   UNL     1      18.063 -11.213  -5.639 -0.31 -0.00    +0.000 A 
DOCKED: ATOM     19  C   UNL     1      18.065 -11.646  -6.976 -0.26 -0.00    +0.000 A 
DOCKED: ATOM     20  C   UNL     1      16.874 -11.718  -7.703 -0.31 -0.00    +0.000 A 
DOCKED: BRANCH  15  22
DOCKED: ATOM     21  C   UNL     1      13.575 -12.648  -7.828 -0.30 -0.00    +0.000 C 
DOCKED: ATOM     22  N   UNL     1      14.406 -11.437  -7.869 -0.17 -0.00    +0.000 N 
DOCKED: ATOM     23  C   UNL     1      13.964 -10.302  -8.688 -0.08 -0.00    +0.000 C 
DOCKED: ENDBRANCH  15  22
DOCKED: ENDBRANCH  13  18
DOCKED: ENDBRANCH   1  13
DOCKED: TORSDOF 6
DOCKED: TER
DOCKED: ENDMDL
________________________________________________________________________________


	BEGINNING GENETIC ALGORITHM DOCKING 73 of 100
Run: 73 Seed: 310394238 1073008088 [ Run 73 of 100 GA/GALS ]
Beginning LAMARCKIAN GENETIC ALGORITHM (LGA), with a maximum of 2500000 energy evaluations.

Final-Value: -12.559


	FINAL GENETIC ALGORITHM DOCKED STATE
	_______________________________________________


Detailed state:  trans 19.534 -9.448 -2.961 quatxyzw -0.317105 -0.762045 0.461638 0.324996 center -0.963 -0.416 0.212 ntor 6 70.2177 96.9006 109.5368 98.3274 26.0350 -98.0415
State:	 19.534  -9.448  -2.961  -0.335 -0.806  0.488 142.069     70.22   96.90  109.54   98.33   26.03  -98.04

DOCKED: MODEL       73
DOCKED: USER    Run = 73
DOCKED: USER    DPF = ligand_dock.biased.dpf
DOCKED: USER  
DOCKED: USER    Estimated Free Energy of Binding    =   -9.51 kcal/mol  [=(1)+(2)+(3)-(4)]
DOCKED: USER    Estimated Inhibition Constant, Ki   =  106.59 nM (nanomolar)  [Temperature = 298.15 K]
DOCKED: USER    
DOCKED: USER    (1) Final Intermolecular Energy     =  -11.30 kcal/mol
DOCKED: USER        vdW + Hbond + desolv Energy     =  -11.30 kcal/mol
DOCKED: USER        Electrostatic Energy            =   +0.00 kcal/mol
DOCKED: USER    (2) Final Total Internal Energy     =   -1.26 kcal/mol
DOCKED: USER    (3) Torsional Free Energy           =   +1.79 kcal/mol
DOCKED: USER    (4) Unbound System's Energy  [=(2)] =   -1.26 kcal/mol
DOCKED: USER    
DOCKED: USER    
DOCKED: USER    NEWDPF move ligand.pdbqt
DOCKED: USER    NEWDPF about -0.963000 -0.416000 0.212000
DOCKED: USER    NEWDPF tran0 19.534222 -9.448225 -2.961456
DOCKED: USER    NEWDPF quaternion0 -0.317105 -0.762045 0.461638 0.324996
DOCKED: USER    NEWDPF axisangle0 -0.335307 -0.805787 0.488136 142.069369
DOCKED: USER    NEWDPF quat0 -0.335307 -0.805787 0.488136 142.069369
DOCKED: USER    NEWDPF dihe0 70.22 96.90 109.54 98.33 26.03 -98.04 
DOCKED: USER  keepresnum = 1 
DOCKED: USER  
DOCKED: REMARK  Name = 
DOCKED: REMARK  10 active torsions:
DOCKED: REMARK  status: ('A' for Active; 'I' for Inactive)
DOCKED: REMARK    1  A    between atoms: C_1  and  N_2
DOCKED: REMARK    2  A    between atoms: N_2  and  C_3
DOCKED: REMARK    3  A    between atoms: N_2  and  C_22
DOCKED: REMARK    4  A    between atoms: C_6  and  C_9
DOCKED: REMARK    5  A    between atoms: C_9  and  C_10
DOCKED: REMARK    6  A    between atoms: C_10  and  C_11
DOCKED: REMARK    7  A    between atoms: C_10  and  C_20
DOCKED: REMARK    8  A    between atoms: C_12  and  C_13
DOCKED: REMARK    9  A    between atoms: C_12  and  C_19
DOCKED: REMARK   10  A    between atoms: C_14  and  C_15
DOCKED: REMARK                            x       y       z     vdW  Elec       q    Type
DOCKED: REMARK                         _______ _______ _______ _____ _____    ______ ____
DOCKED: USER                              x       y       z     vdW  Elec       q    Type
DOCKED: USER                           _______ _______ _______ _____ _____    ______ ____
DOCKED: ROOT
DOCKED: ATOM      1  C   UNL     1      20.582 -10.197  -3.912 -0.46 -0.00    +0.000 C 
DOCKED: ATOM      2  C   UNL     1      21.580 -10.993  -4.756 -0.53 -0.00    +0.000 C 
DOCKED: ENDROOT
DOCKED: BRANCH   1   3
DOCKED: ATOM      3  C   UNL     1      20.808 -10.476  -2.439 -0.55 -0.00    +0.000 C 
DOCKED: ATOM      4  C   UNL     1      21.170  -9.550  -1.525 -0.61 -0.00    +0.000 C 
DOCKED: ATOM      5  C   UNL     1      21.377  -8.099  -1.896 -0.49 -0.00    +0.000 C 
DOCKED: BRANCH   4   6
DOCKED: ATOM      6  C   UNL     1      21.318  -9.991  -0.113 -0.70 -0.00    +0.000 C 
DOCKED: ATOM      7  C   UNL     1      20.436 -10.798   0.497 -0.68 -0.00    +0.000 C 
DOCKED: BRANCH   7   8
DOCKED: ATOM      8  C   UNL     1      20.575 -11.244   1.899 -0.74 -0.00    +0.000 C 
DOCKED: ATOM      9  N   UNL     1      20.221 -10.411   3.009 -0.63 -0.00    +0.000 N 
DOCKED: ATOM     10  O   UNL     1      20.268 -10.903   4.268 -0.99 -0.00    +0.000 OA
DOCKED: ATOM     11  O   UNL     1      21.044 -12.393   2.117 -1.53 -0.00    +0.000 OA
DOCKED: ATOM     12  H   UNL     1      19.943  -9.478   2.855 -0.55 -0.00    +0.000 HD
DOCKED: ENDBRANCH   7   8
DOCKED: ENDBRANCH   4   6
DOCKED: ENDBRANCH   1   3
DOCKED: BRANCH   1  13
DOCKED: ATOM     13  C   UNL     1      19.165 -10.557  -4.315 -0.38 -0.00    +0.000 C 
DOCKED: ATOM     14  O   UNL     1      18.960 -11.044  -5.462 -0.40 -0.00    +0.000 OA
DOCKED: BRANCH  13  18
DOCKED: ATOM     15  C   UNL     1      15.796  -9.925  -1.680 -0.22 -0.00    +0.000 A 
DOCKED: ATOM     16  C   UNL     1      16.913 -10.680  -1.271 -0.26 -0.00    +0.000 A 
DOCKED: ATOM     17  C   UNL     1      17.997 -10.880  -2.129 -0.15 -0.00    +0.000 A 
DOCKED: ATOM     18  C   UNL     1      18.003 -10.325  -3.418 -0.23 -0.00    +0.000 A 
DOCKED: ATOM     19  C   UNL     1      16.887  -9.581  -3.838 -0.21 -0.00    +0.000 A 
DOCKED: ATOM     20  C   UNL     1      15.802  -9.381  -2.981 -0.20 -0.00    +0.000 A 
DOCKED: BRANCH  15  22
DOCKED: ATOM     21  C   UNL     1      13.550 -10.666  -0.763 -0.30 +0.00    +0.000 C 
DOCKED: ATOM     22  N   UNL     1      14.670  -9.715  -0.789 -0.22 -0.00    +0.000 N 
DOCKED: ATOM     23  C   UNL     1      14.629  -8.549   0.102 -0.26 -0.00    +0.000 C 
DOCKED: ENDBRANCH  15  22
DOCKED: ENDBRANCH  13  18
DOCKED: ENDBRANCH   1  13
DOCKED: TORSDOF 6
DOCKED: TER
DOCKED: ENDMDL
________________________________________________________________________________


	BEGINNING GENETIC ALGORITHM DOCKING 74 of 100
Run: 74 Seed: 1737326874 218570796 [ Run 74 of 100 GA/GALS ]
Beginning LAMARCKIAN GENETIC ALGORITHM (LGA), with a maximum of 2500000 energy evaluations.

Final-Value: -13.028


	FINAL GENETIC ALGORITHM DOCKED STATE
	_______________________________________________


Detailed state:  trans 20.954 -8.690 -3.129 quatxyzw -0.588034 -0.576914 0.549440 0.139652 center -0.963 -0.416 0.212 ntor 6 172.8469 38.2223 123.3737 77.1626 75.7112 131.9979
State:	 20.954  -8.690  -3.129  -0.594 -0.583  0.555 163.945    172.85   38.22  123.37   77.16   75.71  132.00

DOCKED: MODEL       74
DOCKED: USER    Run = 74
DOCKED: USER    DPF = ligand_dock.biased.dpf
DOCKED: USER  
DOCKED: USER    Estimated Free Energy of Binding    =  -10.10 kcal/mol  [=(1)+(2)+(3)-(4)]
DOCKED: USER    Estimated Inhibition Constant, Ki   =   39.28 nM (nanomolar)  [Temperature = 298.15 K]
DOCKED: USER    
DOCKED: USER    (1) Final Intermolecular Energy     =  -11.89 kcal/mol
DOCKED: USER        vdW + Hbond + desolv Energy     =  -11.89 kcal/mol
DOCKED: USER        Electrostatic Energy            =   +0.00 kcal/mol
DOCKED: USER    (2) Final Total Internal Energy     =   -1.14 kcal/mol
DOCKED: USER    (3) Torsional Free Energy           =   +1.79 kcal/mol
DOCKED: USER    (4) Unbound System's Energy  [=(2)] =   -1.14 kcal/mol
DOCKED: USER    
DOCKED: USER    
DOCKED: USER    NEWDPF move ligand.pdbqt
DOCKED: USER    NEWDPF about -0.963000 -0.416000 0.212000
DOCKED: USER    NEWDPF tran0 20.954153 -8.690483 -3.129157
DOCKED: USER    NEWDPF quaternion0 -0.588034 -0.576914 0.549440 0.139652
DOCKED: USER    NEWDPF axisangle0 -0.593853 -0.582623 0.554877 163.944587
DOCKED: USER    NEWDPF quat0 -0.593853 -0.582623 0.554877 163.944587
DOCKED: USER    NEWDPF dihe0 172.85 38.22 123.37 77.16 75.71 132.00 
DOCKED: USER  keepresnum = 1 
DOCKED: USER  
DOCKED: REMARK  Name = 
DOCKED: REMARK  10 active torsions:
DOCKED: REMARK  status: ('A' for Active; 'I' for Inactive)
DOCKED: REMARK    1  A    between atoms: C_1  and  N_2
DOCKED: REMARK    2  A    between atoms: N_2  and  C_3
DOCKED: REMARK    3  A    between atoms: N_2  and  C_22
DOCKED: REMARK    4  A    between atoms: C_6  and  C_9
DOCKED: REMARK    5  A    between atoms: C_9  and  C_10
DOCKED: REMARK    6  A    between atoms: C_10  and  C_11
DOCKED: REMARK    7  A    between atoms: C_10  and  C_20
DOCKED: REMARK    8  A    between atoms: C_12  and  C_13
DOCKED: REMARK    9  A    between atoms: C_12  and  C_19
DOCKED: REMARK   10  A    between atoms: C_14  and  C_15
DOCKED: REMARK                            x       y       z     vdW  Elec       q    Type
DOCKED: REMARK                         _______ _______ _______ _____ _____    ______ ____
DOCKED: USER                              x       y       z     vdW  Elec       q    Type
DOCKED: USER                           _______ _______ _______ _____ _____    ______ ____
DOCKED: ROOT
DOCKED: ATOM      1  C   UNL     1      21.198  -9.980  -4.044 -0.47 -0.00    +0.000 C 
DOCKED: ATOM      2  C   UNL     1      21.373 -11.266  -4.856 -0.55 -0.00    +0.000 C 
DOCKED: ENDROOT
DOCKED: BRANCH   1   3
DOCKED: ATOM      3  C   UNL     1      21.126 -10.304  -2.565 -0.56 -0.00    +0.000 C 
DOCKED: ATOM      4  C   UNL     1      21.217  -9.396  -1.570 -0.59 -0.00    +0.000 C 
DOCKED: ATOM      5  C   UNL     1      21.392  -7.920  -1.850 -0.48 -0.00    +0.000 C 
DOCKED: BRANCH   4   6
DOCKED: ATOM      6  C   UNL     1      21.094  -9.885  -0.173 -0.69 -0.00    +0.000 C 
DOCKED: ATOM      7  C   UNL     1      20.358 -10.955   0.166 -0.65 -0.00    +0.000 C 
DOCKED: BRANCH   7   8
DOCKED: ATOM      8  C   UNL     1      20.231 -11.451   1.551 -0.76 -0.00    +0.000 C 
DOCKED: ATOM      9  N   UNL     1      20.505 -10.627   2.690 -0.64 -0.00    +0.000 N 
DOCKED: ATOM     10  O   UNL     1      20.273 -11.095   3.939 -1.18 -0.00    +0.000 OA
DOCKED: ATOM     11  O   UNL     1      19.891 -12.651   1.729 -1.66 -0.00    +0.000 OA
DOCKED: ATOM     12  H   UNL     1      20.862  -9.717   2.565 -0.58 -0.00    +0.000 HD
DOCKED: ENDBRANCH   7   8
DOCKED: ENDBRANCH   4   6
DOCKED: ENDBRANCH   1   3
DOCKED: BRANCH   1  13
DOCKED: ATOM     13  C   UNL     1      19.948  -9.252  -4.496 -0.29 -0.00    +0.000 C 
DOCKED: ATOM     14  O   UNL     1      19.889  -7.997  -4.368 -0.23 -0.00    +0.000 OA
DOCKED: BRANCH  13  18
DOCKED: ATOM     15  C   UNL     1      16.542 -11.326  -6.169 -0.28 -0.00    +0.000 A 
DOCKED: ATOM     16  C   UNL     1      17.710 -11.109  -6.926 -0.33 -0.00    +0.000 A 
DOCKED: ATOM     17  C   UNL     1      18.805 -10.437  -6.378 -0.28 -0.00    +0.000 A 
DOCKED: ATOM     18  C   UNL     1      18.772  -9.969  -5.055 -0.24 -0.00    +0.000 A 
DOCKED: ATOM     19  C   UNL     1      17.605 -10.171  -4.297 -0.24 -0.00    +0.000 A 
DOCKED: ATOM     20  C   UNL     1      16.509 -10.842  -4.845 -0.13 -0.00    +0.000 A 
DOCKED: BRANCH  15  22
DOCKED: ATOM     21  C   UNL     1      15.537 -12.773  -7.994 -0.42 +0.00    +0.000 C 
DOCKED: ATOM     22  N   UNL     1      15.403 -12.025  -6.737 -0.33 -0.00    +0.000 N 
DOCKED: ATOM     23  C   UNL     1      14.099 -11.995  -6.064 -0.32 -0.00    +0.000 C 
DOCKED: ENDBRANCH  15  22
DOCKED: ENDBRANCH  13  18
DOCKED: ENDBRANCH   1  13
DOCKED: TORSDOF 6
DOCKED: TER
DOCKED: ENDMDL
________________________________________________________________________________


	BEGINNING GENETIC ALGORITHM DOCKING 75 of 100
Run: 75 Seed: 1065101137 36944961 [ Run 75 of 100 GA/GALS ]
Beginning LAMARCKIAN GENETIC ALGORITHM (LGA), with a maximum of 2500000 energy evaluations.

Final-Value: -12.872


	FINAL GENETIC ALGORITHM DOCKED STATE
	_______________________________________________


Detailed state:  trans 21.368 -8.879 -3.223 quatxyzw 0.616066 0.543574 -0.562426 -0.093093 center -0.963 -0.416 0.212 ntor 6 166.3345 51.8550 104.5749 -113.7665 88.3564 154.2209
State:	 21.368  -8.879  -3.223   0.619  0.546 -0.565 -169.317    166.33   51.86  104.57 -113.77   88.36  154.22

DOCKED: MODEL       75
DOCKED: USER    Run = 75
DOCKED: USER    DPF = ligand_dock.biased.dpf
DOCKED: USER  
DOCKED: USER    Estimated Free Energy of Binding    =   -9.78 kcal/mol  [=(1)+(2)+(3)-(4)]
DOCKED: USER    Estimated Inhibition Constant, Ki   =   67.98 nM (nanomolar)  [Temperature = 298.15 K]
DOCKED: USER    
DOCKED: USER    (1) Final Intermolecular Energy     =  -11.57 kcal/mol
DOCKED: USER        vdW + Hbond + desolv Energy     =  -11.57 kcal/mol
DOCKED: USER        Electrostatic Energy            =   +0.00 kcal/mol
DOCKED: USER    (2) Final Total Internal Energy     =   -1.30 kcal/mol
DOCKED: USER    (3) Torsional Free Energy           =   +1.79 kcal/mol
DOCKED: USER    (4) Unbound System's Energy  [=(2)] =   -1.30 kcal/mol
DOCKED: USER    
DOCKED: USER    
DOCKED: USER    NEWDPF move ligand.pdbqt
DOCKED: USER    NEWDPF about -0.963000 -0.416000 0.212000
DOCKED: USER    NEWDPF tran0 21.368181 -8.879431 -3.223431
DOCKED: USER    NEWDPF quaternion0 0.616066 0.543574 -0.562426 -0.093093
DOCKED: USER    NEWDPF axisangle0 0.618753 0.545945 -0.564879 -169.316814
DOCKED: USER    NEWDPF quat0 0.618753 0.545945 -0.564879 -169.316814
DOCKED: USER    NEWDPF dihe0 166.33 51.86 104.57 -113.77 88.36 154.22 
DOCKED: USER  keepresnum = 1 
DOCKED: USER  
DOCKED: REMARK  Name = 
DOCKED: REMARK  10 active torsions:
DOCKED: REMARK  status: ('A' for Active; 'I' for Inactive)
DOCKED: REMARK    1  A    between atoms: C_1  and  N_2
DOCKED: REMARK    2  A    between atoms: N_2  and  C_3
DOCKED: REMARK    3  A    between atoms: N_2  and  C_22
DOCKED: REMARK    4  A    between atoms: C_6  and  C_9
DOCKED: REMARK    5  A    between atoms: C_9  and  C_10
DOCKED: REMARK    6  A    between atoms: C_10  and  C_11
DOCKED: REMARK    7  A    between atoms: C_10  and  C_20
DOCKED: REMARK    8  A    between atoms: C_12  and  C_13
DOCKED: REMARK    9  A    between atoms: C_12  and  C_19
DOCKED: REMARK   10  A    between atoms: C_14  and  C_15
DOCKED: REMARK                            x       y       z     vdW  Elec       q    Type
DOCKED: REMARK                         _______ _______ _______ _____ _____    ______ ____
DOCKED: USER                              x       y       z     vdW  Elec       q    Type
DOCKED: USER                           _______ _______ _______ _____ _____    ______ ____
DOCKED: ROOT
DOCKED: ATOM      1  C   UNL     1      21.422 -10.178  -4.157 -0.48 -0.00    +0.000 C 
DOCKED: ATOM      2  C   UNL     1      21.409 -11.465  -4.985 -0.54 -0.00    +0.000 C 
DOCKED: ENDROOT
DOCKED: BRANCH   1   3
DOCKED: ATOM      3  C   UNL     1      21.351 -10.509  -2.679 -0.55 -0.00    +0.000 C 
DOCKED: ATOM      4  C   UNL     1      21.343  -9.598  -1.683 -0.59 -0.00    +0.000 C 
DOCKED: ATOM      5  C   UNL     1      21.391  -8.112  -1.960 -0.50 -0.00    +0.000 C 
DOCKED: BRANCH   4   6
DOCKED: ATOM      6  C   UNL     1      21.236 -10.098  -0.288 -0.71 -0.00    +0.000 C 
DOCKED: ATOM      7  C   UNL     1      20.317 -10.995   0.100 -0.64 -0.00    +0.000 C 
DOCKED: BRANCH   7   8
DOCKED: ATOM      8  C   UNL     1      20.205 -11.500   1.483 -0.76 -0.00    +0.000 C 
DOCKED: ATOM      9  N   UNL     1      20.487 -10.683   2.625 -0.65 -0.00    +0.000 N 
DOCKED: ATOM     10  O   UNL     1      20.268 -11.160   3.872 -1.22 -0.00    +0.000 OA
DOCKED: ATOM     11  O   UNL     1      19.871 -12.703   1.656 -1.60 -0.00    +0.000 OA
DOCKED: ATOM     12  H   UNL     1      20.840  -9.771   2.502 -0.58 -0.00    +0.000 HD
DOCKED: ENDBRANCH   7   8
DOCKED: ENDBRANCH   4   6
DOCKED: ENDBRANCH   1   3
DOCKED: BRANCH   1  13
DOCKED: ATOM     13  C   UNL     1      20.261  -9.293  -4.566 -0.31 -0.00    +0.000 C 
DOCKED: ATOM     14  O   UNL     1      20.481  -8.078  -4.832 -0.21 -0.00    +0.000 OA
DOCKED: BRANCH  13  18
DOCKED: ATOM     15  C   UNL     1      16.198 -10.764  -4.701 -0.16 -0.00    +0.000 A 
DOCKED: ATOM     16  C   UNL     1      16.715 -10.152  -3.543 -0.22 -0.00    +0.000 A 
DOCKED: ATOM     17  C   UNL     1      18.030  -9.680  -3.507 -0.21 -0.00    +0.000 A 
DOCKED: ATOM     18  C   UNL     1      18.864  -9.797  -4.630 -0.24 -0.00    +0.000 A 
DOCKED: ATOM     19  C   UNL     1      18.359 -10.418  -5.785 -0.27 -0.00    +0.000 A 
DOCKED: ATOM     20  C   UNL     1      17.044 -10.891  -5.821 -0.27 -0.00    +0.000 A 
DOCKED: BRANCH  15  22
DOCKED: ATOM     21  C   UNL     1      13.911 -10.989  -3.626 -0.27 -0.00    +0.000 C 
DOCKED: ATOM     22  N   UNL     1      14.832 -11.254  -4.740 -0.28 -0.00    +0.000 N 
DOCKED: ATOM     23  C   UNL     1      14.347 -12.022  -5.893 -0.32 -0.00    +0.000 C 
DOCKED: ENDBRANCH  15  22
DOCKED: ENDBRANCH  13  18
DOCKED: ENDBRANCH   1  13
DOCKED: TORSDOF 6
DOCKED: TER
DOCKED: ENDMDL
________________________________________________________________________________


	BEGINNING GENETIC ALGORITHM DOCKING 76 of 100
Run: 76 Seed: 348663281 1093429599 [ Run 76 of 100 GA/GALS ]
Beginning LAMARCKIAN GENETIC ALGORITHM (LGA), with a maximum of 2500000 energy evaluations.

Final-Value: -13.525


	FINAL GENETIC ALGORITHM DOCKED STATE
	_______________________________________________


Detailed state:  trans 19.223 -10.812 -3.696 quatxyzw -0.032525 -0.800496 0.024009 0.597974 center -0.963 -0.416 0.212 ntor 6 -90.7695 169.9546 14.4221 46.6896 -36.6136 116.4922
State:	 19.223 -10.812  -3.696  -0.041 -0.999  0.030 106.550    -90.77  169.95   14.42   46.69  -36.61  116.49

DOCKED: MODEL       76
DOCKED: USER    Run = 76
DOCKED: USER    DPF = ligand_dock.biased.dpf
DOCKED: USER  
DOCKED: USER    Estimated Free Energy of Binding    =  -10.84 kcal/mol  [=(1)+(2)+(3)-(4)]
DOCKED: USER    Estimated Inhibition Constant, Ki   =   11.41 nM (nanomolar)  [Temperature = 298.15 K]
DOCKED: USER    
DOCKED: USER    (1) Final Intermolecular Energy     =  -12.63 kcal/mol
DOCKED: USER        vdW + Hbond + desolv Energy     =  -12.63 kcal/mol
DOCKED: USER        Electrostatic Energy            =   +0.00 kcal/mol
DOCKED: USER    (2) Final Total Internal Energy     =   -0.90 kcal/mol
DOCKED: USER    (3) Torsional Free Energy           =   +1.79 kcal/mol
DOCKED: USER    (4) Unbound System's Energy  [=(2)] =   -0.90 kcal/mol
DOCKED: USER    
DOCKED: USER    
DOCKED: USER    NEWDPF move ligand.pdbqt
DOCKED: USER    NEWDPF about -0.963000 -0.416000 0.212000
DOCKED: USER    NEWDPF tran0 19.222997 -10.811999 -3.696379
DOCKED: USER    NEWDPF quaternion0 -0.032525 -0.800496 0.024009 0.597974
DOCKED: USER    NEWDPF axisangle0 -0.040579 -0.998727 0.029955 106.550166
DOCKED: USER    NEWDPF quat0 -0.040579 -0.998727 0.029955 106.550166
DOCKED: USER    NEWDPF dihe0 -90.77 169.95 14.42 46.69 -36.61 116.49 
DOCKED: USER  keepresnum = 1 
DOCKED: USER  
DOCKED: REMARK  Name = 
DOCKED: REMARK  10 active torsions:
DOCKED: REMARK  status: ('A' for Active; 'I' for Inactive)
DOCKED: REMARK    1  A    between atoms: C_1  and  N_2
DOCKED: REMARK    2  A    between atoms: N_2  and  C_3
DOCKED: REMARK    3  A    between atoms: N_2  and  C_22
DOCKED: REMARK    4  A    between atoms: C_6  and  C_9
DOCKED: REMARK    5  A    between atoms: C_9  and  C_10
DOCKED: REMARK    6  A    between atoms: C_10  and  C_11
DOCKED: REMARK    7  A    between atoms: C_10  and  C_20
DOCKED: REMARK    8  A    between atoms: C_12  and  C_13
DOCKED: REMARK    9  A    between atoms: C_12  and  C_19
DOCKED: REMARK   10  A    between atoms: C_14  and  C_15
DOCKED: REMARK                            x       y       z     vdW  Elec       q    Type
DOCKED: REMARK                         _______ _______ _______ _____ _____    ______ ____
DOCKED: USER                              x       y       z     vdW  Elec       q    Type
DOCKED: USER                           _______ _______ _______ _____ _____    ______ ____
DOCKED: ROOT
DOCKED: ATOM      1  C   UNL     1      20.489  -9.897  -4.043 -0.42 -0.00    +0.000 C 
DOCKED: ATOM      2  C   UNL     1      21.759  -9.091  -4.328 -0.34 -0.00    +0.000 C 
DOCKED: ENDROOT
DOCKED: BRANCH   1   3
DOCKED: ATOM      3  C   UNL     1      20.592 -10.567  -2.687 -0.51 -0.00    +0.000 C 
DOCKED: ATOM      4  C   UNL     1      20.843  -9.926  -1.526 -0.61 -0.00    +0.000 C 
DOCKED: ATOM      5  C   UNL     1      21.040  -8.428  -1.467 -0.49 -0.00    +0.000 C 
DOCKED: BRANCH   4   6
DOCKED: ATOM      6  C   UNL     1      20.877 -10.736  -0.281 -0.66 -0.00    +0.000 C 
DOCKED: ATOM      7  C   UNL     1      20.340 -10.321   0.876 -0.63 -0.00    +0.000 C 
DOCKED: BRANCH   7   8
DOCKED: ATOM      8  C   UNL     1      20.365 -11.119   2.119 -0.74 -0.00    +0.000 C 
DOCKED: ATOM      9  N   UNL     1      20.341 -10.517   3.419 -0.70 -0.00    +0.000 N 
DOCKED: ATOM     10  O   UNL     1      20.260 -11.293   4.525 -0.87 -0.00    +0.000 OA
DOCKED: ATOM     11  O   UNL     1      20.436 -12.373   2.024 -1.84 -0.00    +0.000 OA
DOCKED: ATOM     12  H   UNL     1      20.382  -9.537   3.508 -0.57 -0.00    +0.000 HD
DOCKED: ENDBRANCH   7   8
DOCKED: ENDBRANCH   4   6
DOCKED: ENDBRANCH   1   3
DOCKED: BRANCH   1  13
DOCKED: ATOM     13  C   UNL     1      20.277 -10.926  -5.136 -0.46 -0.00    +0.000 C 
DOCKED: ATOM     14  O   UNL     1      19.170 -11.530  -5.203 -0.49 -0.00    +0.000 OA
DOCKED: BRANCH  13  18
DOCKED: ATOM     15  C   UNL     1      23.340 -11.934  -8.017 -0.42 -0.00    +0.000 A 
DOCKED: ATOM     16  C   UNL     1      22.217 -11.165  -8.382 -0.27 -0.00    +0.000 A 
DOCKED: ATOM     17  C   UNL     1      21.232 -10.845  -7.445 -0.23 -0.00    +0.000 A 
DOCKED: ATOM     18  C   UNL     1      21.342 -11.275  -6.113 -0.34 -0.00    +0.000 A 
DOCKED: ATOM     19  C   UNL     1      22.453 -12.053  -5.745 -0.48 -0.00    +0.000 A 
DOCKED: ATOM     20  C   UNL     1      23.438 -12.375  -6.682 -0.37 -0.00    +0.000 A 
DOCKED: BRANCH  15  22
DOCKED: ATOM     21  C   UNL     1      25.699 -11.657  -8.908 -0.41 -0.00    +0.000 C 
DOCKED: ATOM     22  N   UNL     1      24.365 -12.267  -8.990 -0.39 -0.00    +0.000 N 
DOCKED: ATOM     23  C   UNL     1      24.086 -13.219 -10.072 -0.39 -0.00    +0.000 C 
DOCKED: ENDBRANCH  15  22
DOCKED: ENDBRANCH  13  18
DOCKED: ENDBRANCH   1  13
DOCKED: TORSDOF 6
DOCKED: TER
DOCKED: ENDMDL
________________________________________________________________________________


	BEGINNING GENETIC ALGORITHM DOCKING 77 of 100
Run: 77 Seed: 325305430 793615200 [ Run 77 of 100 GA/GALS ]
Beginning LAMARCKIAN GENETIC ALGORITHM (LGA), with a maximum of 2500000 energy evaluations.

Final-Value: -12.224


	FINAL GENETIC ALGORITHM DOCKED STATE
	_______________________________________________


Detailed state:  trans 22.014 -11.393 -4.019 quatxyzw 0.706502 -0.218204 -0.496019 0.455200 center -0.963 -0.416 0.212 ntor 6 -164.2391 21.7280 118.3319 130.6091 -148.3941 -5.2495
State:	 22.014 -11.393  -4.019   0.793 -0.245 -0.557 125.844   -164.24   21.73  118.33  130.61 -148.39   -5.25

DOCKED: MODEL       77
DOCKED: USER    Run = 77
DOCKED: USER    DPF = ligand_dock.biased.dpf
DOCKED: USER  
DOCKED: USER    Estimated Free Energy of Binding    =   -9.80 kcal/mol  [=(1)+(2)+(3)-(4)]
DOCKED: USER    Estimated Inhibition Constant, Ki   =   65.10 nM (nanomolar)  [Temperature = 298.15 K]
DOCKED: USER    
DOCKED: USER    (1) Final Intermolecular Energy     =  -11.59 kcal/mol
DOCKED: USER        vdW + Hbond + desolv Energy     =  -11.59 kcal/mol
DOCKED: USER        Electrostatic Energy            =   +0.00 kcal/mol
DOCKED: USER    (2) Final Total Internal Energy     =   -0.63 kcal/mol
DOCKED: USER    (3) Torsional Free Energy           =   +1.79 kcal/mol
DOCKED: USER    (4) Unbound System's Energy  [=(2)] =   -0.63 kcal/mol
DOCKED: USER    
DOCKED: USER    
DOCKED: USER    NEWDPF move ligand.pdbqt
DOCKED: USER    NEWDPF about -0.963000 -0.416000 0.212000
DOCKED: USER    NEWDPF tran0 22.014243 -11.392922 -4.019320
DOCKED: USER    NEWDPF quaternion0 0.706502 -0.218204 -0.496019 0.455200
DOCKED: USER    NEWDPF axisangle0 0.793476 -0.245066 -0.557081 125.844357
DOCKED: USER    NEWDPF quat0 0.793476 -0.245066 -0.557081 125.844357
DOCKED: USER    NEWDPF dihe0 -164.24 21.73 118.33 130.61 -148.39 -5.25 
DOCKED: USER  keepresnum = 1 
DOCKED: USER  
DOCKED: REMARK  Name = 
DOCKED: REMARK  10 active torsions:
DOCKED: REMARK  status: ('A' for Active; 'I' for Inactive)
DOCKED: REMARK    1  A    between atoms: C_1  and  N_2
DOCKED: REMARK    2  A    between atoms: N_2  and  C_3
DOCKED: REMARK    3  A    between atoms: N_2  and  C_22
DOCKED: REMARK    4  A    between atoms: C_6  and  C_9
DOCKED: REMARK    5  A    between atoms: C_9  and  C_10
DOCKED: REMARK    6  A    between atoms: C_10  and  C_11
DOCKED: REMARK    7  A    between atoms: C_10  and  C_20
DOCKED: REMARK    8  A    between atoms: C_12  and  C_13
DOCKED: REMARK    9  A    between atoms: C_12  and  C_19
DOCKED: REMARK   10  A    between atoms: C_14  and  C_15
DOCKED: REMARK                            x       y       z     vdW  Elec       q    Type
DOCKED: REMARK                         _______ _______ _______ _____ _____    ______ ____
DOCKED: USER                              x       y       z     vdW  Elec       q    Type
DOCKED: USER                           _______ _______ _______ _____ _____    ______ ____
DOCKED: ROOT
DOCKED: ATOM      1  C   UNL     1      20.620 -10.826  -4.564 -0.50 -0.00    +0.000 C 
DOCKED: ATOM      2  C   UNL     1      19.285 -10.221  -5.006 -0.32 -0.00    +0.000 C 
DOCKED: ENDROOT
DOCKED: BRANCH   1   3
DOCKED: ATOM      3  C   UNL     1      20.684 -10.898  -3.051 -0.45 -0.00    +0.000 C 
DOCKED: ATOM      4  C   UNL     1      20.537  -9.844  -2.221 -0.53 -0.00    +0.000 C 
DOCKED: ATOM      5  C   UNL     1      20.272  -8.449  -2.742 -0.21 -0.00    +0.000 C 
DOCKED: BRANCH   4   6
DOCKED: ATOM      6  C   UNL     1      20.596 -10.099  -0.759 -0.63 -0.00    +0.000 C 
DOCKED: ATOM      7  C   UNL     1      20.118 -11.217  -0.192 -0.54 -0.00    +0.000 C 
DOCKED: BRANCH   7   8
DOCKED: ATOM      8  C   UNL     1      20.174 -11.483   1.260 -0.74 -0.00    +0.000 C 
DOCKED: ATOM      9  N   UNL     1      20.671 -10.521   2.198 -0.57 -0.00    +0.000 N 
DOCKED: ATOM     10  O   UNL     1      20.605 -10.772   3.526 -1.19 -0.00    +0.000 OA
DOCKED: ATOM     11  O   UNL     1      19.792 -12.608   1.679 -1.63 -0.00    +0.000 OA
DOCKED: ATOM     12  H   UNL     1      21.061  -9.676   1.876 -0.55 -0.00    +0.000 HD
DOCKED: ENDBRANCH   7   8
DOCKED: ENDBRANCH   4   6
DOCKED: ENDBRANCH   1   3
DOCKED: BRANCH   1  13
DOCKED: ATOM     13  C   UNL     1      21.766  -9.999  -5.112 -0.41 -0.00    +0.000 C 
DOCKED: ATOM     14  O   UNL     1      21.970  -8.845  -4.639 -0.36 -0.00    +0.000 OA
DOCKED: BRANCH  13  18
DOCKED: ATOM     15  C   UNL     1      24.313 -11.459  -8.286 -0.38 -0.00    +0.000 A 
DOCKED: ATOM     16  C   UNL     1      23.588 -12.344  -7.464 -0.42 -0.00    +0.000 A 
DOCKED: ATOM     17  C   UNL     1      22.769 -11.864  -6.440 -0.43 -0.00    +0.000 A 
DOCKED: ATOM     18  C   UNL     1      22.640 -10.485  -6.211 -0.21 -0.00    +0.000 A 
DOCKED: ATOM     19  C   UNL     1      23.370  -9.596  -7.019 -0.23 -0.00    +0.000 A 
DOCKED: ATOM     20  C   UNL     1      24.191 -10.076  -8.043 -0.26 -0.00    +0.000 A 
DOCKED: BRANCH  15  22
DOCKED: ATOM     21  C   UNL     1      24.772 -13.139 -10.131 -0.38 -0.00    +0.000 C 
DOCKED: ATOM     22  N   UNL     1      25.164 -11.957  -9.352 -0.36 -0.00    +0.000 N 
DOCKED: ATOM     23  C   UNL     1      26.432 -11.287  -9.668 -0.30 -0.00    +0.000 C 
DOCKED: ENDBRANCH  15  22
DOCKED: ENDBRANCH  13  18
DOCKED: ENDBRANCH   1  13
DOCKED: TORSDOF 6
DOCKED: TER
DOCKED: ENDMDL
________________________________________________________________________________


	BEGINNING GENETIC ALGORITHM DOCKING 78 of 100
Run: 78 Seed: 61691751 214108487 [ Run 78 of 100 GA/GALS ]
Beginning LAMARCKIAN GENETIC ALGORITHM (LGA), with a maximum of 2500000 energy evaluations.

Final-Value: -12.102


	FINAL GENETIC ALGORITHM DOCKED STATE
	_______________________________________________


Detailed state:  trans 21.927 -8.798 -3.799 quatxyzw 0.584123 -0.035238 -0.542040 0.603118 center -0.963 -0.416 0.212 ntor 6 141.1640 120.5979 178.2111 171.5144 44.7167 158.8635
State:	 21.927  -8.798  -3.799   0.732 -0.044 -0.680 105.813    141.16  120.60  178.21  171.51   44.72  158.86

DOCKED: MODEL       78
DOCKED: USER    Run = 78
DOCKED: USER    DPF = ligand_dock.biased.dpf
DOCKED: USER  
DOCKED: USER    Estimated Free Energy of Binding    =   -9.16 kcal/mol  [=(1)+(2)+(3)-(4)]
DOCKED: USER    Estimated Inhibition Constant, Ki   =  192.04 nM (nanomolar)  [Temperature = 298.15 K]
DOCKED: USER    
DOCKED: USER    (1) Final Intermolecular Energy     =  -10.95 kcal/mol
DOCKED: USER        vdW + Hbond + desolv Energy     =  -10.95 kcal/mol
DOCKED: USER        Electrostatic Energy            =   +0.00 kcal/mol
DOCKED: USER    (2) Final Total Internal Energy     =   -1.15 kcal/mol
DOCKED: USER    (3) Torsional Free Energy           =   +1.79 kcal/mol
DOCKED: USER    (4) Unbound System's Energy  [=(2)] =   -1.15 kcal/mol
DOCKED: USER    
DOCKED: USER    
DOCKED: USER    NEWDPF move ligand.pdbqt
DOCKED: USER    NEWDPF about -0.963000 -0.416000 0.212000
DOCKED: USER    NEWDPF tran0 21.926765 -8.798445 -3.799181
DOCKED: USER    NEWDPF quaternion0 0.584123 -0.035238 -0.542040 0.603118
DOCKED: USER    NEWDPF axisangle0 0.732303 -0.044177 -0.679545 105.813000
DOCKED: USER    NEWDPF quat0 0.732303 -0.044177 -0.679545 105.813000
DOCKED: USER    NEWDPF dihe0 141.16 120.60 178.21 171.51 44.72 158.86 
DOCKED: USER  keepresnum = 1 
DOCKED: USER  
DOCKED: REMARK  Name = 
DOCKED: REMARK  10 active torsions:
DOCKED: REMARK  status: ('A' for Active; 'I' for Inactive)
DOCKED: REMARK    1  A    between atoms: C_1  and  N_2
DOCKED: REMARK    2  A    between atoms: N_2  and  C_3
DOCKED: REMARK    3  A    between atoms: N_2  and  C_22
DOCKED: REMARK    4  A    between atoms: C_6  and  C_9
DOCKED: REMARK    5  A    between atoms: C_9  and  C_10
DOCKED: REMARK    6  A    between atoms: C_10  and  C_11
DOCKED: REMARK    7  A    between atoms: C_10  and  C_20
DOCKED: REMARK    8  A    between atoms: C_12  and  C_13
DOCKED: REMARK    9  A    between atoms: C_12  and  C_19
DOCKED: REMARK   10  A    between atoms: C_14  and  C_15
DOCKED: REMARK                            x       y       z     vdW  Elec       q    Type
DOCKED: REMARK                         _______ _______ _______ _____ _____    ______ ____
DOCKED: USER                              x       y       z     vdW  Elec       q    Type
DOCKED: USER                           _______ _______ _______ _____ _____    ______ ____
DOCKED: ROOT
DOCKED: ATOM      1  C   UNL     1      20.489  -8.155  -4.082 -0.31 -0.00    +0.000 C 
DOCKED: ATOM      2  C   UNL     1      19.104  -7.526  -4.252 -0.14 -0.00    +0.000 C 
DOCKED: ENDROOT
DOCKED: BRANCH   1   3
DOCKED: ATOM      3  C   UNL     1      20.535  -8.976  -2.808 -0.43 -0.00    +0.000 C 
DOCKED: ATOM      4  C   UNL     1      21.090 -10.201  -2.698 -0.55 -0.00    +0.000 C 
DOCKED: ATOM      5  C   UNL     1      21.751 -10.886  -3.873 -0.47 -0.00    +0.000 C 
DOCKED: BRANCH   4   6
DOCKED: ATOM      6  C   UNL     1      21.075 -10.852  -1.363 -0.46 -0.00    +0.000 C 
DOCKED: ATOM      7  C   UNL     1      20.171 -10.557  -0.415 -0.61 -0.00    +0.000 C 
DOCKED: BRANCH   7   8
DOCKED: ATOM      8  C   UNL     1      20.146 -11.200   0.915 -0.70 -0.00    +0.000 C 
DOCKED: ATOM      9  N   UNL     1      20.629 -10.545   2.093 -0.61 -0.00    +0.000 N 
DOCKED: ATOM     10  O   UNL     1      20.488 -11.135   3.303 -1.35 -0.00    +0.000 OA
DOCKED: ATOM     11  O   UNL     1      19.703 -12.376   1.003 -1.33 -0.00    +0.000 OA
DOCKED: ATOM     12  H   UNL     1      21.065  -9.664   2.023 -0.56 -0.00    +0.000 HD
DOCKED: ENDBRANCH   7   8
DOCKED: ENDBRANCH   4   6
DOCKED: ENDBRANCH   1   3
DOCKED: BRANCH   1  13
DOCKED: ATOM     13  C   UNL     1      21.548  -7.070  -4.061 -0.30 -0.00    +0.000 C 
DOCKED: ATOM     14  O   UNL     1      22.514  -7.141  -4.871 -0.22 -0.00    +0.000 OA
DOCKED: BRANCH  13  18
DOCKED: ATOM     15  C   UNL     1      21.383  -3.806  -1.231 -0.37 +0.00    +0.000 A 
DOCKED: ATOM     16  C   UNL     1      20.642  -4.986  -1.029 -0.35 +0.00    +0.000 A 
DOCKED: ATOM     17  C   UNL     1      20.700  -6.036  -1.949 -0.29 -0.00    +0.000 A 
DOCKED: ATOM     18  C   UNL     1      21.507  -5.943  -3.094 -0.32 -0.00    +0.000 A 
DOCKED: ATOM     19  C   UNL     1      22.240  -4.763  -3.308 -0.22 -0.00    +0.000 A 
DOCKED: ATOM     20  C   UNL     1      22.182  -3.712  -2.389 -0.24 -0.00    +0.000 A 
DOCKED: BRANCH  15  22
DOCKED: ATOM     21  C   UNL     1      20.222  -2.627   0.692 -0.46 -0.00    +0.000 C 
DOCKED: ATOM     22  N   UNL     1      21.324  -2.714  -0.275 -0.36 -0.00    +0.000 N 
DOCKED: ATOM     23  C   UNL     1      22.365  -1.679  -0.259 -0.31 -0.00    +0.000 C 
DOCKED: ENDBRANCH  15  22
DOCKED: ENDBRANCH  13  18
DOCKED: ENDBRANCH   1  13
DOCKED: TORSDOF 6
DOCKED: TER
DOCKED: ENDMDL
________________________________________________________________________________


	BEGINNING GENETIC ALGORITHM DOCKING 79 of 100
Run: 79 Seed: 1139138875 959463917 [ Run 79 of 100 GA/GALS ]
Beginning LAMARCKIAN GENETIC ALGORITHM (LGA), with a maximum of 2500000 energy evaluations.

Final-Value: -12.790


	FINAL GENETIC ALGORITHM DOCKED STATE
	_______________________________________________


Detailed state:  trans 22.628 -7.055 -2.212 quatxyzw 0.710287 0.127071 -0.476336 0.502444 center -0.963 -0.416 0.212 ntor 6 56.5148 -7.2840 -29.7500 -47.6096 0.9591 179.5983
State:	 22.628  -7.055  -2.212   0.822  0.147 -0.551 119.676     56.51   -7.28  -29.75  -47.61    0.96  179.60

DOCKED: MODEL       79
DOCKED: USER    Run = 79
DOCKED: USER    DPF = ligand_dock.biased.dpf
DOCKED: USER  
DOCKED: USER    Estimated Free Energy of Binding    =   -9.96 kcal/mol  [=(1)+(2)+(3)-(4)]
DOCKED: USER    Estimated Inhibition Constant, Ki   =   50.21 nM (nanomolar)  [Temperature = 298.15 K]
DOCKED: USER    
DOCKED: USER    (1) Final Intermolecular Energy     =  -11.75 kcal/mol
DOCKED: USER        vdW + Hbond + desolv Energy     =  -11.75 kcal/mol
DOCKED: USER        Electrostatic Energy            =   +0.00 kcal/mol
DOCKED: USER    (2) Final Total Internal Energy     =   -1.04 kcal/mol
DOCKED: USER    (3) Torsional Free Energy           =   +1.79 kcal/mol
DOCKED: USER    (4) Unbound System's Energy  [=(2)] =   -1.04 kcal/mol
DOCKED: USER    
DOCKED: USER    
DOCKED: USER    NEWDPF move ligand.pdbqt
DOCKED: USER    NEWDPF about -0.963000 -0.416000 0.212000
DOCKED: USER    NEWDPF tran0 22.627665 -7.055224 -2.211628
DOCKED: USER    NEWDPF quaternion0 0.710287 0.127071 -0.476336 0.502444
DOCKED: USER    NEWDPF axisangle0 0.821511 0.146969 -0.550926 119.676371
DOCKED: USER    NEWDPF quat0 0.821511 0.146969 -0.550926 119.676371
DOCKED: USER    NEWDPF dihe0 56.51 -7.28 -29.75 -47.61 0.96 179.60 
DOCKED: USER  keepresnum = 1 
DOCKED: USER  
DOCKED: REMARK  Name = 
DOCKED: REMARK  10 active torsions:
DOCKED: REMARK  status: ('A' for Active; 'I' for Inactive)
DOCKED: REMARK    1  A    between atoms: C_1  and  N_2
DOCKED: REMARK    2  A    between atoms: N_2  and  C_3
DOCKED: REMARK    3  A    between atoms: N_2  and  C_22
DOCKED: REMARK    4  A    between atoms: C_6  and  C_9
DOCKED: REMARK    5  A    between atoms: C_9  and  C_10
DOCKED: REMARK    6  A    between atoms: C_10  and  C_11
DOCKED: REMARK    7  A    between atoms: C_10  and  C_20
DOCKED: REMARK    8  A    between atoms: C_12  and  C_13
DOCKED: REMARK    9  A    between atoms: C_12  and  C_19
DOCKED: REMARK   10  A    between atoms: C_14  and  C_15
DOCKED: REMARK                            x       y       z     vdW  Elec       q    Type
DOCKED: REMARK                         _______ _______ _______ _____ _____    ______ ____
DOCKED: USER                              x       y       z     vdW  Elec       q    Type
DOCKED: USER                           _______ _______ _______ _____ _____    ______ ____
DOCKED: ROOT
DOCKED: ATOM      1  C   UNL     1      21.327  -6.793  -3.107 -0.39 -0.00    +0.000 C 
DOCKED: ATOM      2  C   UNL     1      20.032  -6.527  -3.878 -0.21 -0.00    +0.000 C 
DOCKED: ENDROOT
DOCKED: BRANCH   1   3
DOCKED: ATOM      3  C   UNL     1      21.022  -7.514  -1.809 -0.41 -0.00    +0.000 C 
DOCKED: ATOM      4  C   UNL     1      21.022  -8.855  -1.651 -0.55 -0.00    +0.000 C 
DOCKED: ATOM      5  C   UNL     1      21.352  -9.793  -2.791 -0.53 -0.00    +0.000 C 
DOCKED: BRANCH   4   6
DOCKED: ATOM      6  C   UNL     1      20.731  -9.394  -0.298 -0.57 -0.00    +0.000 C 
DOCKED: ATOM      7  C   UNL     1      20.643 -10.707  -0.037 -0.67 -0.00    +0.000 C 
DOCKED: BRANCH   7   8
DOCKED: ATOM      8  C   UNL     1      20.358 -11.254   1.306 -0.74 -0.00    +0.000 C 
DOCKED: ATOM      9  N   UNL     1      20.654 -10.533   2.508 -0.59 -0.00    +0.000 N 
DOCKED: ATOM     10  O   UNL     1      20.278 -11.032   3.708 -1.24 -0.00    +0.000 OA
DOCKED: ATOM     11  O   UNL     1      19.858 -12.407   1.389 -1.64 -0.00    +0.000 OA
DOCKED: ATOM     12  H   UNL     1      21.131  -9.672   2.460 -0.57 -0.00    +0.000 HD
DOCKED: ENDBRANCH   7   8
DOCKED: ENDBRANCH   4   6
DOCKED: ENDBRANCH   1   3
DOCKED: BRANCH   1  13
DOCKED: ATOM     13  C   UNL     1      22.045  -5.485  -2.839 -0.34 -0.00    +0.000 C 
DOCKED: ATOM     14  O   UNL     1      23.070  -5.198  -3.520 -0.18 -0.00    +0.000 OA
DOCKED: BRANCH  13  18
DOCKED: ATOM     15  C   UNL     1      20.812  -2.738   0.263 -0.40 +0.00    +0.000 A 
DOCKED: ATOM     16  C   UNL     1      22.123  -2.718  -0.252 -0.27 +0.00    +0.000 A 
DOCKED: ATOM     17  C   UNL     1      22.513  -3.610  -1.254 -0.19 +0.00    +0.000 A 
DOCKED: ATOM     18  C   UNL     1      21.604  -4.543  -1.778 -0.38 +0.00    +0.000 A 
DOCKED: ATOM     19  C   UNL     1      20.298  -4.576  -1.260 -0.33 -0.00    +0.000 A 
DOCKED: ATOM     20  C   UNL     1      19.907  -3.685  -0.257 -0.23 +0.00    +0.000 A 
DOCKED: BRANCH  15  22
DOCKED: ATOM     21  C   UNL     1      20.285  -2.257   2.698 -0.68 -0.00    +0.000 C 
DOCKED: ATOM     22  N   UNL     1      20.405  -1.810   1.303 -0.39 -0.00    +0.000 N 
DOCKED: ATOM     23  C   UNL     1      20.106  -0.410   0.980 -0.23 -0.00    +0.000 C 
DOCKED: ENDBRANCH  15  22
DOCKED: ENDBRANCH  13  18
DOCKED: ENDBRANCH   1  13
DOCKED: TORSDOF 6
DOCKED: TER
DOCKED: ENDMDL
________________________________________________________________________________


	BEGINNING GENETIC ALGORITHM DOCKING 80 of 100
Run: 80 Seed: 1293977384 598610557 [ Run 80 of 100 GA/GALS ]
Beginning LAMARCKIAN GENETIC ALGORITHM (LGA), with a maximum of 2500000 energy evaluations.

Final-Value: -12.490


	FINAL GENETIC ALGORITHM DOCKED STATE
	_______________________________________________


Detailed state:  trans 21.823 -7.820 -1.976 quatxyzw -0.707657 -0.560191 0.426278 -0.060785 center -0.963 -0.416 0.212 ntor 6 149.4008 -160.8096 -159.0663 58.3706 -146.5054 -48.3255
State:	 21.823  -7.820  -1.976  -0.709 -0.561  0.427 -173.030    149.40 -160.81 -159.07   58.37 -146.51  -48.33

DOCKED: MODEL       80
DOCKED: USER    Run = 80
DOCKED: USER    DPF = ligand_dock.biased.dpf
DOCKED: USER  
DOCKED: USER    Estimated Free Energy of Binding    =   -9.67 kcal/mol  [=(1)+(2)+(3)-(4)]
DOCKED: USER    Estimated Inhibition Constant, Ki   =   81.12 nM (nanomolar)  [Temperature = 298.15 K]
DOCKED: USER    
DOCKED: USER    (1) Final Intermolecular Energy     =  -11.46 kcal/mol
DOCKED: USER        vdW + Hbond + desolv Energy     =  -11.46 kcal/mol
DOCKED: USER        Electrostatic Energy            =   +0.00 kcal/mol
DOCKED: USER    (2) Final Total Internal Energy     =   -1.03 kcal/mol
DOCKED: USER    (3) Torsional Free Energy           =   +1.79 kcal/mol
DOCKED: USER    (4) Unbound System's Energy  [=(2)] =   -1.03 kcal/mol
DOCKED: USER    
DOCKED: USER    
DOCKED: USER    NEWDPF move ligand.pdbqt
DOCKED: USER    NEWDPF about -0.963000 -0.416000 0.212000
DOCKED: USER    NEWDPF tran0 21.822601 -7.819697 -1.975629
DOCKED: USER    NEWDPF quaternion0 -0.707657 -0.560191 0.426278 -0.060785
DOCKED: USER    NEWDPF axisangle0 -0.708968 -0.561228 0.427068 -173.030310
DOCKED: USER    NEWDPF quat0 -0.708968 -0.561228 0.427068 -173.030310
DOCKED: USER    NEWDPF dihe0 149.40 -160.81 -159.07 58.37 -146.51 -48.33 
DOCKED: USER  keepresnum = 1 
DOCKED: USER  
DOCKED: REMARK  Name = 
DOCKED: REMARK  10 active torsions:
DOCKED: REMARK  status: ('A' for Active; 'I' for Inactive)
DOCKED: REMARK    1  A    between atoms: C_1  and  N_2
DOCKED: REMARK    2  A    between atoms: N_2  and  C_3
DOCKED: REMARK    3  A    between atoms: N_2  and  C_22
DOCKED: REMARK    4  A    between atoms: C_6  and  C_9
DOCKED: REMARK    5  A    between atoms: C_9  and  C_10
DOCKED: REMARK    6  A    between atoms: C_10  and  C_11
DOCKED: REMARK    7  A    between atoms: C_10  and  C_20
DOCKED: REMARK    8  A    between atoms: C_12  and  C_13
DOCKED: REMARK    9  A    between atoms: C_12  and  C_19
DOCKED: REMARK   10  A    between atoms: C_14  and  C_15
DOCKED: REMARK                            x       y       z     vdW  Elec       q    Type
DOCKED: REMARK                         _______ _______ _______ _____ _____    ______ ____
DOCKED: USER                              x       y       z     vdW  Elec       q    Type
DOCKED: USER                           _______ _______ _______ _____ _____    ______ ____
DOCKED: ROOT
DOCKED: ATOM      1  C   UNL     1      21.743  -8.678  -3.324 -0.34 -0.00    +0.000 C 
DOCKED: ATOM      2  C   UNL     1      21.586  -9.548  -4.574 -0.39 -0.00    +0.000 C 
DOCKED: ENDROOT
DOCKED: BRANCH   1   3
DOCKED: ATOM      3  C   UNL     1      21.400  -9.481  -2.085 -0.54 -0.00    +0.000 C 
DOCKED: ATOM      4  C   UNL     1      20.239 -10.142  -1.889 -0.53 -0.00    +0.000 C 
DOCKED: ATOM      5  C   UNL     1      19.142 -10.153  -2.929 -0.37 -0.00    +0.000 C 
DOCKED: BRANCH   4   6
DOCKED: ATOM      6  C   UNL     1      20.083 -10.909  -0.626 -0.56 -0.00    +0.000 C 
DOCKED: ATOM      7  C   UNL     1      20.382 -10.402   0.579 -0.65 -0.00    +0.000 C 
DOCKED: BRANCH   7   8
DOCKED: ATOM      8  C   UNL     1      20.227 -11.154   1.841 -0.75 -0.00    +0.000 C 
DOCKED: ATOM      9  N   UNL     1      20.522 -10.578   3.119 -0.66 -0.00    +0.000 N 
DOCKED: ATOM     10  O   UNL     1      20.264 -11.273   4.252 -1.08 -0.00    +0.000 OA
DOCKED: ATOM     11  O   UNL     1      19.843 -12.352   1.781 -1.78 -0.00    +0.000 OA
DOCKED: ATOM     12  H   UNL     1      20.913  -9.675   3.174 -0.60 -0.00    +0.000 HD
DOCKED: ENDBRANCH   7   8
DOCKED: ENDBRANCH   4   6
DOCKED: ENDBRANCH   1   3
DOCKED: BRANCH   1  13
DOCKED: ATOM     13  C   UNL     1      20.854  -7.455  -3.434 -0.36 -0.00    +0.000 C 
DOCKED: ATOM     14  O   UNL     1      19.804  -7.521  -4.134 -0.23 -0.00    +0.000 OA
DOCKED: BRANCH  13  18
DOCKED: ATOM     15  C   UNL     1      21.796  -3.712  -1.485 -0.32 +0.00    +0.000 A 
DOCKED: ATOM     16  C   UNL     1      20.941  -4.656  -0.882 -0.32 +0.00    +0.000 A 
DOCKED: ATOM     17  C   UNL     1      20.641  -5.862  -1.519 -0.24 -0.00    +0.000 A 
DOCKED: ATOM     18  C   UNL     1      21.193  -6.167  -2.773 -0.36 -0.00    +0.000 A 
DOCKED: ATOM     19  C   UNL     1      22.037  -5.225  -3.387 -0.24 -0.00    +0.000 A 
DOCKED: ATOM     20  C   UNL     1      22.336  -4.018  -2.751 -0.23 -0.00    +0.000 A 
DOCKED: BRANCH  15  22
DOCKED: ATOM     21  C   UNL     1      21.377  -2.046   0.381 -0.41 -0.00    +0.000 C 
DOCKED: ATOM     22  N   UNL     1      22.109  -2.459  -0.823 -0.28 -0.00    +0.000 N 
DOCKED: ATOM     23  C   UNL     1      23.164  -1.582  -1.346 -0.21 -0.00    +0.000 C 
DOCKED: ENDBRANCH  15  22
DOCKED: ENDBRANCH  13  18
DOCKED: ENDBRANCH   1  13
DOCKED: TORSDOF 6
DOCKED: TER
DOCKED: ENDMDL
________________________________________________________________________________


	BEGINNING GENETIC ALGORITHM DOCKING 81 of 100
Run: 81 Seed: 1301940575 591034822 [ Run 81 of 100 GA/GALS ]
Beginning LAMARCKIAN GENETIC ALGORITHM (LGA), with a maximum of 2500000 energy evaluations.

Final-Value: -12.544


	FINAL GENETIC ALGORITHM DOCKED STATE
	_______________________________________________


Detailed state:  trans 19.667 -9.607 -3.316 quatxyzw -0.321674 -0.745772 0.434445 0.389369 center -0.963 -0.416 0.212 ntor 6 107.9713 42.1687 110.3096 81.9749 31.7463 -75.6277
State:	 19.667  -9.607  -3.316  -0.349 -0.810  0.472 134.170    107.97   42.17  110.31   81.97   31.75  -75.63

DOCKED: MODEL       81
DOCKED: USER    Run = 81
DOCKED: USER    DPF = ligand_dock.biased.dpf
DOCKED: USER  
DOCKED: USER    Estimated Free Energy of Binding    =   -9.34 kcal/mol  [=(1)+(2)+(3)-(4)]
DOCKED: USER    Estimated Inhibition Constant, Ki   =  142.78 nM (nanomolar)  [Temperature = 298.15 K]
DOCKED: USER    
DOCKED: USER    (1) Final Intermolecular Energy     =  -11.13 kcal/mol
DOCKED: USER        vdW + Hbond + desolv Energy     =  -11.13 kcal/mol
DOCKED: USER        Electrostatic Energy            =   +0.00 kcal/mol
DOCKED: USER    (2) Final Total Internal Energy     =   -1.42 kcal/mol
DOCKED: USER    (3) Torsional Free Energy           =   +1.79 kcal/mol
DOCKED: USER    (4) Unbound System's Energy  [=(2)] =   -1.42 kcal/mol
DOCKED: USER    
DOCKED: USER    
DOCKED: USER    NEWDPF move ligand.pdbqt
DOCKED: USER    NEWDPF about -0.963000 -0.416000 0.212000
DOCKED: USER    NEWDPF tran0 19.666806 -9.606627 -3.316184
DOCKED: USER    NEWDPF quaternion0 -0.321674 -0.745772 0.434445 0.389369
DOCKED: USER    NEWDPF axisangle0 -0.349235 -0.809669 0.471668 134.169540
DOCKED: USER    NEWDPF quat0 -0.349235 -0.809669 0.471668 134.169540
DOCKED: USER    NEWDPF dihe0 107.97 42.17 110.31 81.97 31.75 -75.63 
DOCKED: USER  keepresnum = 1 
DOCKED: USER  
DOCKED: REMARK  Name = 
DOCKED: REMARK  10 active torsions:
DOCKED: REMARK  status: ('A' for Active; 'I' for Inactive)
DOCKED: REMARK    1  A    between atoms: C_1  and  N_2
DOCKED: REMARK    2  A    between atoms: N_2  and  C_3
DOCKED: REMARK    3  A    between atoms: N_2  and  C_22
DOCKED: REMARK    4  A    between atoms: C_6  and  C_9
DOCKED: REMARK    5  A    between atoms: C_9  and  C_10
DOCKED: REMARK    6  A    between atoms: C_10  and  C_11
DOCKED: REMARK    7  A    between atoms: C_10  and  C_20
DOCKED: REMARK    8  A    between atoms: C_12  and  C_13
DOCKED: REMARK    9  A    between atoms: C_12  and  C_19
DOCKED: REMARK   10  A    between atoms: C_14  and  C_15
DOCKED: REMARK                            x       y       z     vdW  Elec       q    Type
DOCKED: REMARK                         _______ _______ _______ _____ _____    ______ ____
DOCKED: USER                              x       y       z     vdW  Elec       q    Type
DOCKED: USER                           _______ _______ _______ _____ _____    ______ ____
DOCKED: ROOT
DOCKED: ATOM      1  C   UNL     1      20.871 -10.298  -4.111 -0.47 -0.00    +0.000 C 
DOCKED: ATOM      2  C   UNL     1      22.016 -11.038  -4.807 -0.40 -0.00    +0.000 C 
DOCKED: ENDROOT
DOCKED: BRANCH   1   3
DOCKED: ATOM      3  C   UNL     1      20.920 -10.551  -2.617 -0.54 -0.00    +0.000 C 
DOCKED: ATOM      4  C   UNL     1      20.995  -9.589  -1.673 -0.61 -0.00    +0.000 C 
DOCKED: ATOM      5  C   UNL     1      21.025  -8.120  -2.030 -0.47 -0.00    +0.000 C 
DOCKED: BRANCH   4   6
DOCKED: ATOM      6  C   UNL     1      21.001 -10.014  -0.249 -0.69 -0.00    +0.000 C 
DOCKED: ATOM      7  C   UNL     1      20.187 -10.965   0.234 -0.65 -0.00    +0.000 C 
DOCKED: BRANCH   7   8
DOCKED: ATOM      8  C   UNL     1      20.187 -11.398   1.646 -0.76 -0.00    +0.000 C 
DOCKED: ATOM      9  N   UNL     1      20.642 -10.552   2.708 -0.61 -0.00    +0.000 N 
DOCKED: ATOM     10  O   UNL     1      20.525 -10.955   3.995 -1.09 -0.00    +0.000 OA
DOCKED: ATOM     11  O   UNL     1      19.793 -12.564   1.915 -1.67 -0.00    +0.000 OA
DOCKED: ATOM     12  H   UNL     1      21.041  -9.675   2.502 -0.57 -0.00    +0.000 HD
DOCKED: ENDBRANCH   7   8
DOCKED: ENDBRANCH   4   6
DOCKED: ENDBRANCH   1   3
DOCKED: BRANCH   1  13
DOCKED: ATOM     13  C   UNL     1      19.543 -10.746  -4.689 -0.42 -0.00    +0.000 C 
DOCKED: ATOM     14  O   UNL     1      19.536 -11.611  -5.609 -0.51 -0.00    +0.000 OA
DOCKED: BRANCH  13  18
DOCKED: ATOM     15  C   UNL     1      15.771  -9.129  -3.329 -0.19 -0.00    +0.000 A 
DOCKED: ATOM     16  C   UNL     1      16.528  -9.998  -2.520 -0.19 -0.00    +0.000 A 
DOCKED: ATOM     17  C   UNL     1      17.746 -10.517  -2.967 -0.17 -0.00    +0.000 A 
DOCKED: ATOM     18  C   UNL     1      18.248 -10.177  -4.233 -0.26 -0.00    +0.000 A 
DOCKED: ATOM     19  C   UNL     1      17.492  -9.320  -5.051 -0.17 -0.00    +0.000 A 
DOCKED: ATOM     20  C   UNL     1      16.274  -8.802  -4.605 -0.15 -0.00    +0.000 A 
DOCKED: BRANCH  15  22
DOCKED: ATOM     21  C   UNL     1      13.463  -9.478  -2.337 -0.21 -0.00    +0.000 C 
DOCKED: ATOM     22  N   UNL     1      14.506  -8.589  -2.865 -0.17 -0.00    +0.000 N 
DOCKED: ATOM     23  C   UNL     1      14.248  -7.145  -2.916 -0.16 -0.00    +0.000 C 
DOCKED: ENDBRANCH  15  22
DOCKED: ENDBRANCH  13  18
DOCKED: ENDBRANCH   1  13
DOCKED: TORSDOF 6
DOCKED: TER
DOCKED: ENDMDL
________________________________________________________________________________


	BEGINNING GENETIC ALGORITHM DOCKING 82 of 100
Run: 82 Seed: 1541992980 1325906706 [ Run 82 of 100 GA/GALS ]
Beginning LAMARCKIAN GENETIC ALGORITHM (LGA), with a maximum of 2500000 energy evaluations.

Final-Value: -12.522


	FINAL GENETIC ALGORITHM DOCKED STATE
	_______________________________________________


Detailed state:  trans 21.281 -8.667 -2.946 quatxyzw -0.612772 -0.550766 0.555798 0.110701 center -0.963 -0.416 0.212 ntor 6 -22.8120 39.7485 116.3197 3.2012 85.1290 175.5241
State:	 21.281  -8.667  -2.946  -0.617 -0.554  0.559 167.289    -22.81   39.75  116.32    3.20   85.13  175.52

DOCKED: MODEL       82
DOCKED: USER    Run = 82
DOCKED: USER    DPF = ligand_dock.biased.dpf
DOCKED: USER  
DOCKED: USER    Estimated Free Energy of Binding    =   -9.59 kcal/mol  [=(1)+(2)+(3)-(4)]
DOCKED: USER    Estimated Inhibition Constant, Ki   =   92.79 nM (nanomolar)  [Temperature = 298.15 K]
DOCKED: USER    
DOCKED: USER    (1) Final Intermolecular Energy     =  -11.38 kcal/mol
DOCKED: USER        vdW + Hbond + desolv Energy     =  -11.38 kcal/mol
DOCKED: USER        Electrostatic Energy            =   +0.00 kcal/mol
DOCKED: USER    (2) Final Total Internal Energy     =   -1.14 kcal/mol
DOCKED: USER    (3) Torsional Free Energy           =   +1.79 kcal/mol
DOCKED: USER    (4) Unbound System's Energy  [=(2)] =   -1.14 kcal/mol
DOCKED: USER    
DOCKED: USER    
DOCKED: USER    NEWDPF move ligand.pdbqt
DOCKED: USER    NEWDPF about -0.963000 -0.416000 0.212000
DOCKED: USER    NEWDPF tran0 21.281196 -8.667475 -2.945975
DOCKED: USER    NEWDPF quaternion0 -0.612772 -0.550766 0.555798 0.110701
DOCKED: USER    NEWDPF axisangle0 -0.616562 -0.554173 0.559236 167.288578
DOCKED: USER    NEWDPF quat0 -0.616562 -0.554173 0.559236 167.288578
DOCKED: USER    NEWDPF dihe0 -22.81 39.75 116.32 3.20 85.13 175.52 
DOCKED: USER  keepresnum = 1 
DOCKED: USER  
DOCKED: REMARK  Name = 
DOCKED: REMARK  10 active torsions:
DOCKED: REMARK  status: ('A' for Active; 'I' for Inactive)
DOCKED: REMARK    1  A    between atoms: C_1  and  N_2
DOCKED: REMARK    2  A    between atoms: N_2  and  C_3
DOCKED: REMARK    3  A    between atoms: N_2  and  C_22
DOCKED: REMARK    4  A    between atoms: C_6  and  C_9
DOCKED: REMARK    5  A    between atoms: C_9  and  C_10
DOCKED: REMARK    6  A    between atoms: C_10  and  C_11
DOCKED: REMARK    7  A    between atoms: C_10  and  C_20
DOCKED: REMARK    8  A    between atoms: C_12  and  C_13
DOCKED: REMARK    9  A    between atoms: C_12  and  C_19
DOCKED: REMARK   10  A    between atoms: C_14  and  C_15
DOCKED: REMARK                            x       y       z     vdW  Elec       q    Type
DOCKED: REMARK                         _______ _______ _______ _____ _____    ______ ____
DOCKED: USER                              x       y       z     vdW  Elec       q    Type
DOCKED: USER                           _______ _______ _______ _____ _____    ______ ____
DOCKED: ROOT
DOCKED: ATOM      1  C   UNL     1      21.399  -9.970  -3.869 -0.48 -0.00    +0.000 C 
DOCKED: ATOM      2  C   UNL     1      21.448 -11.262  -4.687 -0.54 -0.00    +0.000 C 
DOCKED: ENDROOT
DOCKED: BRANCH   1   3
DOCKED: ATOM      3  C   UNL     1      21.306 -10.293  -2.391 -0.57 -0.00    +0.000 C 
DOCKED: ATOM      4  C   UNL     1      21.307  -9.378  -1.398 -0.60 -0.00    +0.000 C 
DOCKED: ATOM      5  C   UNL     1      21.390  -7.895  -1.680 -0.47 -0.00    +0.000 C 
DOCKED: BRANCH   4   6
DOCKED: ATOM      6  C   UNL     1      21.176  -9.870  -0.002 -0.69 -0.00    +0.000 C 
DOCKED: ATOM      7  C   UNL     1      20.394 -10.905   0.339 -0.68 -0.00    +0.000 C 
DOCKED: BRANCH   7   8
DOCKED: ATOM      8  C   UNL     1      20.259 -11.404   1.723 -0.77 -0.00    +0.000 C 
DOCKED: ATOM      9  N   UNL     1      20.556 -10.591   2.864 -0.64 -0.00    +0.000 N 
DOCKED: ATOM     10  O   UNL     1      20.317 -11.059   4.111 -1.09 -0.00    +0.000 OA
DOCKED: ATOM     11  O   UNL     1      19.892 -12.597   1.896 -1.69 -0.00    +0.000 OA
DOCKED: ATOM     12  H   UNL     1      20.934  -9.690   2.741 -0.59 -0.00    +0.000 HD
DOCKED: ENDBRANCH   7   8
DOCKED: ENDBRANCH   4   6
DOCKED: ENDBRANCH   1   3
DOCKED: BRANCH   1  13
DOCKED: ATOM     13  C   UNL     1      20.219  -9.126  -4.309 -0.31 -0.00    +0.000 C 
DOCKED: ATOM     14  O   UNL     1      20.433  -8.063  -4.956 -0.20 -0.00    +0.000 OA
DOCKED: BRANCH  13  18
DOCKED: ATOM     15  C   UNL     1      16.124 -10.147  -3.369 -0.23 -0.00    +0.000 A 
DOCKED: ATOM     16  C   UNL     1      16.449  -9.433  -4.539 -0.18 -0.00    +0.000 A 
DOCKED: ATOM     17  C   UNL     1      17.775  -9.106  -4.835 -0.18 -0.00    +0.000 A 
DOCKED: ATOM     18  C   UNL     1      18.817  -9.491  -3.976 -0.24 -0.00    +0.000 A 
DOCKED: ATOM     19  C   UNL     1      18.498 -10.192  -2.801 -0.26 -0.00    +0.000 A 
DOCKED: ATOM     20  C   UNL     1      17.172 -10.518  -2.503 -0.16 -0.00    +0.000 A 
DOCKED: BRANCH  15  22
DOCKED: ATOM     21  C   UNL     1      14.421 -11.275  -1.865 -0.36 -0.00    +0.000 C 
DOCKED: ATOM     22  N   UNL     1      14.746 -10.487  -3.061 -0.25 -0.00    +0.000 N 
DOCKED: ATOM     23  C   UNL     1      13.655 -10.050  -3.941 -0.22 -0.00    +0.000 C 
DOCKED: ENDBRANCH  15  22
DOCKED: ENDBRANCH  13  18
DOCKED: ENDBRANCH   1  13
DOCKED: TORSDOF 6
DOCKED: TER
DOCKED: ENDMDL
________________________________________________________________________________


	BEGINNING GENETIC ALGORITHM DOCKING 83 of 100
Run: 83 Seed: 1001337860 33066227 [ Run 83 of 100 GA/GALS ]
Beginning LAMARCKIAN GENETIC ALGORITHM (LGA), with a maximum of 2500000 energy evaluations.

Final-Value: -13.685


	FINAL GENETIC ALGORITHM DOCKED STATE
	_______________________________________________


Detailed state:  trans 19.319 -10.607 -3.461 quatxyzw -0.028853 0.793037 -0.078871 -0.603357 center -0.963 -0.416 0.212 ntor 6 87.9351 59.1733 109.9855 62.6473 -37.0303 106.1625
State:	 19.319 -10.607  -3.461  -0.036  0.994 -0.099 -105.779     87.94   59.17  109.99   62.65  -37.03  106.16

DOCKED: MODEL       83
DOCKED: USER    Run = 83
DOCKED: USER    DPF = ligand_dock.biased.dpf
DOCKED: USER  
DOCKED: USER    Estimated Free Energy of Binding    =  -10.94 kcal/mol  [=(1)+(2)+(3)-(4)]
DOCKED: USER    Estimated Inhibition Constant, Ki   =    9.65 nM (nanomolar)  [Temperature = 298.15 K]
DOCKED: USER    
DOCKED: USER    (1) Final Intermolecular Energy     =  -12.72 kcal/mol
DOCKED: USER        vdW + Hbond + desolv Energy     =  -12.72 kcal/mol
DOCKED: USER        Electrostatic Energy            =   +0.00 kcal/mol
DOCKED: USER    (2) Final Total Internal Energy     =   -0.96 kcal/mol
DOCKED: USER    (3) Torsional Free Energy           =   +1.79 kcal/mol
DOCKED: USER    (4) Unbound System's Energy  [=(2)] =   -0.96 kcal/mol
DOCKED: USER    
DOCKED: USER    
DOCKED: USER    NEWDPF move ligand.pdbqt
DOCKED: USER    NEWDPF about -0.963000 -0.416000 0.212000
DOCKED: USER    NEWDPF tran0 19.319081 -10.607240 -3.460586
DOCKED: USER    NEWDPF quaternion0 -0.028853 0.793037 -0.078871 -0.603357
DOCKED: USER    NEWDPF axisangle0 -0.036181 0.994439 -0.098902 -105.778645
DOCKED: USER    NEWDPF quat0 -0.036181 0.994439 -0.098902 -105.778645
DOCKED: USER    NEWDPF dihe0 87.94 59.17 109.99 62.65 -37.03 106.16 
DOCKED: USER  keepresnum = 1 
DOCKED: USER  
DOCKED: REMARK  Name = 
DOCKED: REMARK  10 active torsions:
DOCKED: REMARK  status: ('A' for Active; 'I' for Inactive)
DOCKED: REMARK    1  A    between atoms: C_1  and  N_2
DOCKED: REMARK    2  A    between atoms: N_2  and  C_3
DOCKED: REMARK    3  A    between atoms: N_2  and  C_22
DOCKED: REMARK    4  A    between atoms: C_6  and  C_9
DOCKED: REMARK    5  A    between atoms: C_9  and  C_10
DOCKED: REMARK    6  A    between atoms: C_10  and  C_11
DOCKED: REMARK    7  A    between atoms: C_10  and  C_20
DOCKED: REMARK    8  A    between atoms: C_12  and  C_13
DOCKED: REMARK    9  A    between atoms: C_12  and  C_19
DOCKED: REMARK   10  A    between atoms: C_14  and  C_15
DOCKED: REMARK                            x       y       z     vdW  Elec       q    Type
DOCKED: REMARK                         _______ _______ _______ _____ _____    ______ ____
DOCKED: USER                              x       y       z     vdW  Elec       q    Type
DOCKED: USER                           _______ _______ _______ _____ _____    ______ ____
DOCKED: ROOT
DOCKED: ATOM      1  C   UNL     1      20.561  -9.719  -3.940 -0.41 -0.00    +0.000 C 
DOCKED: ATOM      2  C   UNL     1      21.808  -8.927  -4.341 -0.28 -0.00    +0.000 C 
DOCKED: ENDROOT
DOCKED: BRANCH   1   3
DOCKED: ATOM      3  C   UNL     1      20.666 -10.158  -2.493 -0.54 -0.00    +0.000 C 
DOCKED: ATOM      4  C   UNL     1      20.889  -9.331  -1.449 -0.58 -0.00    +0.000 C 
DOCKED: ATOM      5  C   UNL     1      21.047  -7.838  -1.633 -0.43 -0.00    +0.000 C 
DOCKED: BRANCH   4   6
DOCKED: ATOM      6  C   UNL     1      20.930  -9.927  -0.089 -0.68 -0.00    +0.000 C 
DOCKED: ATOM      7  C   UNL     1      20.048 -10.845   0.334 -0.64 -0.00    +0.000 C 
DOCKED: BRANCH   7   8
DOCKED: ATOM      8  C   UNL     1      20.082 -11.447   1.683 -0.75 -0.00    +0.000 C 
DOCKED: ATOM      9  N   UNL     1      20.349 -10.677   2.861 -0.67 -0.00    +0.000 N 
DOCKED: ATOM     10  O   UNL     1      20.266 -11.254   4.082 -1.15 -0.00    +0.000 OA
DOCKED: ATOM     11  O   UNL     1      19.892 -12.688   1.790 -1.64 -0.00    +0.000 OA
DOCKED: ATOM     12  H   UNL     1      20.593  -9.726   2.782 -0.57 -0.00    +0.000 HD
DOCKED: ENDBRANCH   7   8
DOCKED: ENDBRANCH   4   6
DOCKED: ENDBRANCH   1   3
DOCKED: BRANCH   1  13
DOCKED: ATOM     13  C   UNL     1      20.396 -10.917  -4.854 -0.48 -0.00    +0.000 C 
DOCKED: ATOM     14  O   UNL     1      19.398 -11.675  -4.697 -0.53 -0.00    +0.000 OA
DOCKED: BRANCH  13  18
DOCKED: ATOM     15  C   UNL     1      23.246 -11.877  -7.960 -0.42 -0.00    +0.000 A 
DOCKED: ATOM     16  C   UNL     1      22.136 -11.049  -8.217 -0.27 -0.00    +0.000 A 
DOCKED: ATOM     17  C   UNL     1      21.219 -10.745  -7.208 -0.25 -0.00    +0.000 A 
DOCKED: ATOM     18  C   UNL     1      21.388 -11.250  -5.910 -0.40 -0.00    +0.000 A 
DOCKED: ATOM     19  C   UNL     1      22.486 -12.088  -5.649 -0.46 -0.00    +0.000 A 
DOCKED: ATOM     20  C   UNL     1      23.403 -12.394  -6.658 -0.39 -0.00    +0.000 A 
DOCKED: BRANCH  15  22
DOCKED: ATOM     21  C   UNL     1      23.831 -13.098 -10.106 -0.38 -0.00    +0.000 C 
DOCKED: ATOM     22  N   UNL     1      24.200 -12.194  -9.008 -0.37 -0.00    +0.000 N 
DOCKED: ATOM     23  C   UNL     1      25.549 -11.617  -8.989 -0.41 -0.00    +0.000 C 
DOCKED: ENDBRANCH  15  22
DOCKED: ENDBRANCH  13  18
DOCKED: ENDBRANCH   1  13
DOCKED: TORSDOF 6
DOCKED: TER
DOCKED: ENDMDL
________________________________________________________________________________


	BEGINNING GENETIC ALGORITHM DOCKING 84 of 100
Run: 84 Seed: 1553456647 706241708 [ Run 84 of 100 GA/GALS ]
Beginning LAMARCKIAN GENETIC ALGORITHM (LGA), with a maximum of 2500000 energy evaluations.

Final-Value: -13.154


	FINAL GENETIC ALGORITHM DOCKED STATE
	_______________________________________________


Detailed state:  trans 19.480 -10.985 -3.581 quatxyzw 0.102243 -0.759177 0.058760 0.640112 center -0.963 -0.416 0.212 ntor 6 126.6676 39.1875 129.3284 -95.3844 -48.2054 85.8927
State:	 19.480 -10.985  -3.581   0.133 -0.988  0.076 100.400    126.67   39.19  129.33  -95.38  -48.21   85.89

DOCKED: MODEL       84
DOCKED: USER    Run = 84
DOCKED: USER    DPF = ligand_dock.biased.dpf
DOCKED: USER  
DOCKED: USER    Estimated Free Energy of Binding    =  -10.63 kcal/mol  [=(1)+(2)+(3)-(4)]
DOCKED: USER    Estimated Inhibition Constant, Ki   =   16.18 nM (nanomolar)  [Temperature = 298.15 K]
DOCKED: USER    
DOCKED: USER    (1) Final Intermolecular Energy     =  -12.42 kcal/mol
DOCKED: USER        vdW + Hbond + desolv Energy     =  -12.42 kcal/mol
DOCKED: USER        Electrostatic Energy            =   +0.00 kcal/mol
DOCKED: USER    (2) Final Total Internal Energy     =   -0.73 kcal/mol
DOCKED: USER    (3) Torsional Free Energy           =   +1.79 kcal/mol
DOCKED: USER    (4) Unbound System's Energy  [=(2)] =   -0.73 kcal/mol
DOCKED: USER    
DOCKED: USER    
DOCKED: USER    NEWDPF move ligand.pdbqt
DOCKED: USER    NEWDPF about -0.963000 -0.416000 0.212000
DOCKED: USER    NEWDPF tran0 19.480304 -10.984981 -3.580591
DOCKED: USER    NEWDPF quaternion0 0.102243 -0.759177 0.058760 0.640112
DOCKED: USER    NEWDPF axisangle0 0.133080 -0.988150 0.076483 100.399601
DOCKED: USER    NEWDPF quat0 0.133080 -0.988150 0.076483 100.399601
DOCKED: USER    NEWDPF dihe0 126.67 39.19 129.33 -95.38 -48.21 85.89 
DOCKED: USER  keepresnum = 1 
DOCKED: USER  
DOCKED: REMARK  Name = 
DOCKED: REMARK  10 active torsions:
DOCKED: REMARK  status: ('A' for Active; 'I' for Inactive)
DOCKED: REMARK    1  A    between atoms: C_1  and  N_2
DOCKED: REMARK    2  A    between atoms: N_2  and  C_3
DOCKED: REMARK    3  A    between atoms: N_2  and  C_22
DOCKED: REMARK    4  A    between atoms: C_6  and  C_9
DOCKED: REMARK    5  A    between atoms: C_9  and  C_10
DOCKED: REMARK    6  A    between atoms: C_10  and  C_11
DOCKED: REMARK    7  A    between atoms: C_10  and  C_20
DOCKED: REMARK    8  A    between atoms: C_12  and  C_13
DOCKED: REMARK    9  A    between atoms: C_12  and  C_19
DOCKED: REMARK   10  A    between atoms: C_14  and  C_15
DOCKED: REMARK                            x       y       z     vdW  Elec       q    Type
DOCKED: REMARK                         _______ _______ _______ _____ _____    ______ ____
DOCKED: USER                              x       y       z     vdW  Elec       q    Type
DOCKED: USER                           _______ _______ _______ _____ _____    ______ ____
DOCKED: ROOT
DOCKED: ATOM      1  C   UNL     1      20.618  -9.947  -4.015 -0.44 -0.00    +0.000 C 
DOCKED: ATOM      2  C   UNL     1      21.768  -8.999  -4.364 -0.33 -0.00    +0.000 C 
DOCKED: ENDROOT
DOCKED: BRANCH   1   3
DOCKED: ATOM      3  C   UNL     1      20.654 -10.287  -2.538 -0.54 -0.00    +0.000 C 
DOCKED: ATOM      4  C   UNL     1      20.874  -9.399  -1.546 -0.58 -0.00    +0.000 C 
DOCKED: ATOM      5  C   UNL     1      21.100  -7.930  -1.825 -0.46 -0.00    +0.000 C 
DOCKED: BRANCH   4   6
DOCKED: ATOM      6  C   UNL     1      20.844  -9.900  -0.147 -0.67 -0.00    +0.000 C 
DOCKED: ATOM      7  C   UNL     1      20.177 -11.005   0.219 -0.65 -0.00    +0.000 C 
DOCKED: BRANCH   7   8
DOCKED: ATOM      8  C   UNL     1      20.143 -11.514   1.606 -0.76 -0.00    +0.000 C 
DOCKED: ATOM      9  N   UNL     1      20.415 -10.679   2.737 -0.66 -0.00    +0.000 N 
DOCKED: ATOM     10  O   UNL     1      20.268 -11.166   3.991 -1.18 -0.00    +0.000 OA
DOCKED: ATOM     11  O   UNL     1      19.888 -12.734   1.790 -1.62 -0.00    +0.000 OA
DOCKED: ATOM     12  H   UNL     1      20.708  -9.748   2.602 -0.57 -0.00    +0.000 HD
DOCKED: ENDBRANCH   7   8
DOCKED: ENDBRANCH   4   6
DOCKED: ENDBRANCH   1   3
DOCKED: BRANCH   1  13
DOCKED: ATOM     13  C   UNL     1      20.712 -11.203  -4.858 -0.53 -0.00    +0.000 C 
DOCKED: ATOM     14  O   UNL     1      20.090 -12.238  -4.488 -0.61 -0.00    +0.000 OA
DOCKED: BRANCH  13  18
DOCKED: ATOM     15  C   UNL     1      23.164 -11.410  -8.413 -0.33 -0.00    +0.000 A 
DOCKED: ATOM     16  C   UNL     1      23.504 -12.125  -7.248 -0.47 -0.00    +0.000 A 
DOCKED: ATOM     17  C   UNL     1      22.707 -12.051  -6.104 -0.42 -0.00    +0.000 A 
DOCKED: ATOM     18  C   UNL     1      21.541 -11.269  -6.090 -0.39 -0.00    +0.000 A 
DOCKED: ATOM     19  C   UNL     1      21.202 -10.543  -7.245 -0.27 -0.00    +0.000 A 
DOCKED: ATOM     20  C   UNL     1      22.000 -10.615  -8.390 -0.24 -0.00    +0.000 A 
DOCKED: BRANCH  15  22
DOCKED: ATOM     21  C   UNL     1      25.447 -11.653  -9.493 -0.35 -0.00    +0.000 C 
DOCKED: ATOM     22  N   UNL     1      23.991 -11.486  -9.604 -0.22 -0.00    +0.000 N 
DOCKED: ATOM     23  C   UNL     1      23.388 -11.397 -10.939 -0.15 -0.00    +0.000 C 
DOCKED: ENDBRANCH  15  22
DOCKED: ENDBRANCH  13  18
DOCKED: ENDBRANCH   1  13
DOCKED: TORSDOF 6
DOCKED: TER
DOCKED: ENDMDL
________________________________________________________________________________


	BEGINNING GENETIC ALGORITHM DOCKING 85 of 100
Run: 85 Seed: 1863104358 1611084333 [ Run 85 of 100 GA/GALS ]
Beginning LAMARCKIAN GENETIC ALGORITHM (LGA), with a maximum of 2500000 energy evaluations.

Final-Value: -12.590


	FINAL GENETIC ALGORITHM DOCKED STATE
	_______________________________________________


Detailed state:  trans 21.779 -8.431 -2.674 quatxyzw -0.740767 -0.484472 0.462789 0.048767 center -0.963 -0.416 0.212 ntor 6 179.8285 -104.4916 149.7904 -20.0544 -155.0158 -78.0720
State:	 21.779  -8.431  -2.674  -0.742 -0.485  0.463 174.410    179.83 -104.49  149.79  -20.05 -155.02  -78.07

DOCKED: MODEL       85
DOCKED: USER    Run = 85
DOCKED: USER    DPF = ligand_dock.biased.dpf
DOCKED: USER  
DOCKED: USER    Estimated Free Energy of Binding    =   -9.64 kcal/mol  [=(1)+(2)+(3)-(4)]
DOCKED: USER    Estimated Inhibition Constant, Ki   =   85.92 nM (nanomolar)  [Temperature = 298.15 K]
DOCKED: USER    
DOCKED: USER    (1) Final Intermolecular Energy     =  -11.43 kcal/mol
DOCKED: USER        vdW + Hbond + desolv Energy     =  -11.43 kcal/mol
DOCKED: USER        Electrostatic Energy            =   +0.00 kcal/mol
DOCKED: USER    (2) Final Total Internal Energy     =   -1.16 kcal/mol
DOCKED: USER    (3) Torsional Free Energy           =   +1.79 kcal/mol
DOCKED: USER    (4) Unbound System's Energy  [=(2)] =   -1.16 kcal/mol
DOCKED: USER    
DOCKED: USER    
DOCKED: USER    NEWDPF move ligand.pdbqt
DOCKED: USER    NEWDPF about -0.963000 -0.416000 0.212000
DOCKED: USER    NEWDPF tran0 21.779376 -8.430553 -2.674458
DOCKED: USER    NEWDPF quaternion0 -0.740767 -0.484472 0.462789 0.048767
DOCKED: USER    NEWDPF axisangle0 -0.741649 -0.485049 0.463340 174.409544
DOCKED: USER    NEWDPF quat0 -0.741649 -0.485049 0.463340 174.409544
DOCKED: USER    NEWDPF dihe0 179.83 -104.49 149.79 -20.05 -155.02 -78.07 
DOCKED: USER  keepresnum = 1 
DOCKED: USER  
DOCKED: REMARK  Name = 
DOCKED: REMARK  10 active torsions:
DOCKED: REMARK  status: ('A' for Active; 'I' for Inactive)
DOCKED: REMARK    1  A    between atoms: C_1  and  N_2
DOCKED: REMARK    2  A    between atoms: N_2  and  C_3
DOCKED: REMARK    3  A    between atoms: N_2  and  C_22
DOCKED: REMARK    4  A    between atoms: C_6  and  C_9
DOCKED: REMARK    5  A    between atoms: C_9  and  C_10
DOCKED: REMARK    6  A    between atoms: C_10  and  C_11
DOCKED: REMARK    7  A    between atoms: C_10  and  C_20
DOCKED: REMARK    8  A    between atoms: C_12  and  C_13
DOCKED: REMARK    9  A    between atoms: C_12  and  C_19
DOCKED: REMARK   10  A    between atoms: C_14  and  C_15
DOCKED: REMARK                            x       y       z     vdW  Elec       q    Type
DOCKED: REMARK                         _______ _______ _______ _____ _____    ______ ____
DOCKED: USER                              x       y       z     vdW  Elec       q    Type
DOCKED: USER                           _______ _______ _______ _____ _____    ______ ____
DOCKED: ROOT
DOCKED: ATOM      1  C   UNL     1      21.762  -9.611  -3.755 -0.36 -0.00    +0.000 C 
DOCKED: ATOM      2  C   UNL     1      21.660 -10.774  -4.745 -0.51 -0.00    +0.000 C 
DOCKED: ENDROOT
DOCKED: BRANCH   1   3
DOCKED: ATOM      3  C   UNL     1      21.272 -10.047  -2.388 -0.57 -0.00    +0.000 C 
DOCKED: ATOM      4  C   UNL     1      20.011 -10.440  -2.109 -0.49 -0.00    +0.000 C 
DOCKED: ATOM      5  C   UNL     1      18.938 -10.495  -3.173 -0.38 -0.00    +0.000 C 
DOCKED: BRANCH   4   6
DOCKED: ATOM      6  C   UNL     1      19.710 -10.866  -0.718 -0.54 -0.00    +0.000 C 
DOCKED: ATOM      7  C   UNL     1      20.644 -10.945   0.242 -0.68 -0.00    +0.000 C 
DOCKED: BRANCH   7   8
DOCKED: ATOM      8  C   UNL     1      20.355 -11.364   1.628 -0.76 -0.00    +0.000 C 
DOCKED: ATOM      9  N   UNL     1      20.642 -10.532   2.758 -0.61 -0.00    +0.000 N 
DOCKED: ATOM     10  O   UNL     1      20.264 -10.918   3.999 -1.14 -0.00    +0.000 OA
DOCKED: ATOM     11  O   UNL     1      19.861 -12.508   1.817 -1.73 -0.00    +0.000 OA
DOCKED: ATOM     12  H   UNL     1      21.116  -9.677   2.632 -0.58 -0.00    +0.000 HD
DOCKED: ENDBRANCH   7   8
DOCKED: ENDBRANCH   4   6
DOCKED: ENDBRANCH   1   3
DOCKED: BRANCH   1  13
DOCKED: ATOM     13  C   UNL     1      20.958  -8.431  -4.263 -0.33 -0.00    +0.000 C 
DOCKED: ATOM     14  O   UNL     1      20.383  -8.518  -5.384 -0.18 -0.00    +0.000 OA
DOCKED: BRANCH  13  18
DOCKED: ATOM     15  C   UNL     1      20.629  -4.707  -2.092 -0.34 -0.00    +0.000 A 
DOCKED: ATOM     16  C   UNL     1      19.885  -4.937  -3.265 -0.14 -0.00    +0.000 A 
DOCKED: ATOM     17  C   UNL     1      19.998  -6.142  -3.962 -0.17 -0.00    +0.000 A 
DOCKED: ATOM     18  C   UNL     1      20.850  -7.159  -3.502 -0.31 -0.00    +0.000 A 
DOCKED: ATOM     19  C   UNL     1      21.605  -6.932  -2.338 -0.35 -0.00    +0.000 A 
DOCKED: ATOM     20  C   UNL     1      21.493  -5.725  -1.642 -0.34 +0.00    +0.000 A 
DOCKED: BRANCH  15  22
DOCKED: ATOM     21  C   UNL     1      19.337  -2.592  -1.551 -0.20 -0.00    +0.000 C 
DOCKED: ATOM     22  N   UNL     1      20.512  -3.454  -1.367 -0.32 -0.00    +0.000 N 
DOCKED: ATOM     23  C   UNL     1      21.565  -3.028  -0.438 -0.39 +0.00    +0.000 C 
DOCKED: ENDBRANCH  15  22
DOCKED: ENDBRANCH  13  18
DOCKED: ENDBRANCH   1  13
DOCKED: TORSDOF 6
DOCKED: TER
DOCKED: ENDMDL
________________________________________________________________________________


	BEGINNING GENETIC ALGORITHM DOCKING 86 of 100
Run: 86 Seed: 657953541 1915138359 [ Run 86 of 100 GA/GALS ]
Beginning LAMARCKIAN GENETIC ALGORITHM (LGA), with a maximum of 2500000 energy evaluations.

Final-Value: -12.543


	FINAL GENETIC ALGORITHM DOCKED STATE
	_______________________________________________


Detailed state:  trans 21.659 -8.549 -2.683 quatxyzw 0.729479 0.504017 -0.462241 -0.012679 center -0.963 -0.416 0.212 ntor 6 -137.3058 -134.5552 -179.0334 154.8567 -158.2092 -69.5744
State:	 21.659  -8.549  -2.683   0.730  0.504 -0.462 -178.547   -137.31 -134.56 -179.03  154.86 -158.21  -69.57

DOCKED: MODEL       86
DOCKED: USER    Run = 86
DOCKED: USER    DPF = ligand_dock.biased.dpf
DOCKED: USER  
DOCKED: USER    Estimated Free Energy of Binding    =   -9.61 kcal/mol  [=(1)+(2)+(3)-(4)]
DOCKED: USER    Estimated Inhibition Constant, Ki   =   90.83 nM (nanomolar)  [Temperature = 298.15 K]
DOCKED: USER    
DOCKED: USER    (1) Final Intermolecular Energy     =  -11.40 kcal/mol
DOCKED: USER        vdW + Hbond + desolv Energy     =  -11.40 kcal/mol
DOCKED: USER        Electrostatic Energy            =   +0.00 kcal/mol
DOCKED: USER    (2) Final Total Internal Energy     =   -1.15 kcal/mol
DOCKED: USER    (3) Torsional Free Energy           =   +1.79 kcal/mol
DOCKED: USER    (4) Unbound System's Energy  [=(2)] =   -1.15 kcal/mol
DOCKED: USER    
DOCKED: USER    
DOCKED: USER    NEWDPF move ligand.pdbqt
DOCKED: USER    NEWDPF about -0.963000 -0.416000 0.212000
DOCKED: USER    NEWDPF tran0 21.659068 -8.549174 -2.683414
DOCKED: USER    NEWDPF quaternion0 0.729479 0.504017 -0.462241 -0.012679
DOCKED: USER    NEWDPF axisangle0 0.729537 0.504058 -0.462278 -178.547038
DOCKED: USER    NEWDPF quat0 0.729537 0.504058 -0.462278 -178.547038
DOCKED: USER    NEWDPF dihe0 -137.31 -134.56 -179.03 154.86 -158.21 -69.57 
DOCKED: USER  keepresnum = 1 
DOCKED: USER  
DOCKED: REMARK  Name = 
DOCKED: REMARK  10 active torsions:
DOCKED: REMARK  status: ('A' for Active; 'I' for Inactive)
DOCKED: REMARK    1  A    between atoms: C_1  and  N_2
DOCKED: REMARK    2  A    between atoms: N_2  and  C_3
DOCKED: REMARK    3  A    between atoms: N_2  and  C_22
DOCKED: REMARK    4  A    between atoms: C_6  and  C_9
DOCKED: REMARK    5  A    between atoms: C_9  and  C_10
DOCKED: REMARK    6  A    between atoms: C_10  and  C_11
DOCKED: REMARK    7  A    between atoms: C_10  and  C_20
DOCKED: REMARK    8  A    between atoms: C_12  and  C_13
DOCKED: REMARK    9  A    between atoms: C_12  and  C_19
DOCKED: REMARK   10  A    between atoms: C_14  and  C_15
DOCKED: REMARK                            x       y       z     vdW  Elec       q    Type
DOCKED: REMARK                         _______ _______ _______ _____ _____    ______ ____
DOCKED: USER                              x       y       z     vdW  Elec       q    Type
DOCKED: USER                           _______ _______ _______ _____ _____    ______ ____
DOCKED: ROOT
DOCKED: ATOM      1  C   UNL     1      21.597  -9.650  -3.843 -0.41 -0.00    +0.000 C 
DOCKED: ATOM      2  C   UNL     1      21.455 -10.741  -4.907 -0.50 -0.00    +0.000 C 
DOCKED: ENDROOT
DOCKED: BRANCH   1   3
DOCKED: ATOM      3  C   UNL     1      21.174 -10.186  -2.489 -0.56 -0.00    +0.000 C 
DOCKED: ATOM      4  C   UNL     1      19.916 -10.550  -2.162 -0.48 -0.00    +0.000 C 
DOCKED: ATOM      5  C   UNL     1      18.777 -10.468  -3.154 -0.37 -0.00    +0.000 C 
DOCKED: BRANCH   4   6
DOCKED: ATOM      6  C   UNL     1      19.682 -11.087  -0.796 -0.48 -0.00    +0.000 C 
DOCKED: ATOM      7  C   UNL     1      20.441 -10.755   0.259 -0.67 -0.00    +0.000 C 
DOCKED: BRANCH   7   8
DOCKED: ATOM      8  C   UNL     1      20.216 -11.279   1.622 -0.75 -0.00    +0.000 C 
DOCKED: ATOM      9  N   UNL     1      20.589 -10.549   2.797 -0.63 -0.00    +0.000 N 
DOCKED: ATOM     10  O   UNL     1      20.267 -11.026   4.022 -1.14 -0.00    +0.000 OA
DOCKED: ATOM     11  O   UNL     1      19.699 -12.422   1.746 -1.71 -0.00    +0.000 OA
DOCKED: ATOM     12  H   UNL     1      21.079  -9.699   2.713 -0.59 -0.00    +0.000 HD
DOCKED: ENDBRANCH   7   8
DOCKED: ENDBRANCH   4   6
DOCKED: ENDBRANCH   1   3
DOCKED: BRANCH   1  13
DOCKED: ATOM     13  C   UNL     1      20.764  -8.444  -4.228 -0.33 -0.00    +0.000 C 
DOCKED: ATOM     14  O   UNL     1      20.012  -8.516  -5.240 -0.18 -0.00    +0.000 OA
DOCKED: BRANCH  13  18
DOCKED: ATOM     15  C   UNL     1      20.968  -4.746  -1.997 -0.38 -0.00    +0.000 A 
DOCKED: ATOM     16  C   UNL     1      21.764  -5.855  -1.648 -0.24 +0.00    +0.000 A 
DOCKED: ATOM     17  C   UNL     1      21.691  -7.047  -2.374 -0.31 -0.00    +0.000 A 
DOCKED: ATOM     18  C   UNL     1      20.828  -7.164  -3.475 -0.31 -0.00    +0.000 A 
DOCKED: ATOM     19  C   UNL     1      20.022  -6.066  -3.821 -0.16 -0.00    +0.000 A 
DOCKED: ATOM     20  C   UNL     1      20.094  -4.874  -3.095 -0.18 -0.00    +0.000 A 
DOCKED: BRANCH  15  22
DOCKED: ATOM     21  C   UNL     1      22.291  -2.732  -1.203 -0.30 -0.00    +0.000 C 
DOCKED: ATOM     22  N   UNL     1      21.044  -3.507  -1.244 -0.34 -0.00    +0.000 N 
DOCKED: ATOM     23  C   UNL     1      19.875  -3.008  -0.510 -0.37 -0.00    +0.000 C 
DOCKED: ENDBRANCH  15  22
DOCKED: ENDBRANCH  13  18
DOCKED: ENDBRANCH   1  13
DOCKED: TORSDOF 6
DOCKED: TER
DOCKED: ENDMDL
________________________________________________________________________________


	BEGINNING GENETIC ALGORITHM DOCKING 87 of 100
Run: 87 Seed: 1345901676 1643579010 [ Run 87 of 100 GA/GALS ]
Beginning LAMARCKIAN GENETIC ALGORITHM (LGA), with a maximum of 2500000 energy evaluations.

Final-Value: -12.501


	FINAL GENETIC ALGORITHM DOCKED STATE
	_______________________________________________


Detailed state:  trans 19.393 -9.665 -3.335 quatxyzw -0.306915 -0.732876 0.432431 0.426263 center -0.963 -0.416 0.212 ntor 6 -146.8329 15.3224 146.5147 -78.9179 20.9667 -82.5735
State:	 19.393  -9.665  -3.335  -0.339 -0.810  0.478 129.539   -146.83   15.32  146.51  -78.92   20.97  -82.57

DOCKED: MODEL       87
DOCKED: USER    Run = 87
DOCKED: USER    DPF = ligand_dock.biased.dpf
DOCKED: USER  
DOCKED: USER    Estimated Free Energy of Binding    =   -9.46 kcal/mol  [=(1)+(2)+(3)-(4)]
DOCKED: USER    Estimated Inhibition Constant, Ki   =  116.35 nM (nanomolar)  [Temperature = 298.15 K]
DOCKED: USER    
DOCKED: USER    (1) Final Intermolecular Energy     =  -11.25 kcal/mol
DOCKED: USER        vdW + Hbond + desolv Energy     =  -11.25 kcal/mol
DOCKED: USER        Electrostatic Energy            =   +0.00 kcal/mol
DOCKED: USER    (2) Final Total Internal Energy     =   -1.25 kcal/mol
DOCKED: USER    (3) Torsional Free Energy           =   +1.79 kcal/mol
DOCKED: USER    (4) Unbound System's Energy  [=(2)] =   -1.25 kcal/mol
DOCKED: USER    
DOCKED: USER    
DOCKED: USER    NEWDPF move ligand.pdbqt
DOCKED: USER    NEWDPF about -0.963000 -0.416000 0.212000
DOCKED: USER    NEWDPF tran0 19.392675 -9.664559 -3.335499
DOCKED: USER    NEWDPF quaternion0 -0.306915 -0.732876 0.432431 0.426263
DOCKED: USER    NEWDPF axisangle0 -0.339283 -0.810166 0.478036 129.538703
DOCKED: USER    NEWDPF quat0 -0.339283 -0.810166 0.478036 129.538703
DOCKED: USER    NEWDPF dihe0 -146.83 15.32 146.51 -78.92 20.97 -82.57 
DOCKED: USER  keepresnum = 1 
DOCKED: USER  
DOCKED: REMARK  Name = 
DOCKED: REMARK  10 active torsions:
DOCKED: REMARK  status: ('A' for Active; 'I' for Inactive)
DOCKED: REMARK    1  A    between atoms: C_1  and  N_2
DOCKED: REMARK    2  A    between atoms: N_2  and  C_3
DOCKED: REMARK    3  A    between atoms: N_2  and  C_22
DOCKED: REMARK    4  A    between atoms: C_6  and  C_9
DOCKED: REMARK    5  A    between atoms: C_9  and  C_10
DOCKED: REMARK    6  A    between atoms: C_10  and  C_11
DOCKED: REMARK    7  A    between atoms: C_10  and  C_20
DOCKED: REMARK    8  A    between atoms: C_12  and  C_13
DOCKED: REMARK    9  A    between atoms: C_12  and  C_19
DOCKED: REMARK   10  A    between atoms: C_14  and  C_15
DOCKED: REMARK                            x       y       z     vdW  Elec       q    Type
DOCKED: REMARK                         _______ _______ _______ _____ _____    ______ ____
DOCKED: USER                              x       y       z     vdW  Elec       q    Type
DOCKED: USER                           _______ _______ _______ _____ _____    ______ ____
DOCKED: ROOT
DOCKED: ATOM      1  C   UNL     1      20.669 -10.330  -4.034 -0.47 -0.00    +0.000 C 
DOCKED: ATOM      2  C   UNL     1      21.884 -11.042  -4.636 -0.45 -0.00    +0.000 C 
DOCKED: ENDROOT
DOCKED: BRANCH   1   3
DOCKED: ATOM      3  C   UNL     1      20.648 -10.517  -2.530 -0.53 -0.00    +0.000 C 
DOCKED: ATOM      4  C   UNL     1      20.834  -9.532  -1.627 -0.58 -0.00    +0.000 C 
DOCKED: ATOM      5  C   UNL     1      21.076  -8.099  -2.046 -0.47 -0.00    +0.000 C 
DOCKED: BRANCH   4   6
DOCKED: ATOM      6  C   UNL     1      20.749  -9.886  -0.186 -0.66 -0.00    +0.000 C 
DOCKED: ATOM      7  C   UNL     1      20.366 -11.097   0.247 -0.65 -0.00    +0.000 C 
DOCKED: BRANCH   7   8
DOCKED: ATOM      8  C   UNL     1      20.280 -11.462   1.676 -0.77 -0.00    +0.000 C 
DOCKED: ATOM      9  N   UNL     1      20.649 -10.556   2.723 -0.61 -0.00    +0.000 N 
DOCKED: ATOM     10  O   UNL     1      20.454 -10.900   4.017 -1.10 -0.00    +0.000 OA
DOCKED: ATOM     11  O   UNL     1      19.891 -12.622   1.976 -1.68 -0.00    +0.000 OA
DOCKED: ATOM     12  H   UNL     1      21.044  -9.682   2.500 -0.57 -0.00    +0.000 HD
DOCKED: ENDBRANCH   7   8
DOCKED: ENDBRANCH   4   6
DOCKED: ENDBRANCH   1   3
DOCKED: BRANCH   1  13
DOCKED: ATOM     13  C   UNL     1      19.397 -10.866  -4.660 -0.43 -0.00    +0.000 C 
DOCKED: ATOM     14  O   UNL     1      19.483 -11.670  -5.631 -0.51 -0.00    +0.000 OA
DOCKED: BRANCH  13  18
DOCKED: ATOM     15  C   UNL     1      15.470  -9.628  -3.343 -0.20 -0.00    +0.000 A 
DOCKED: ATOM     16  C   UNL     1      15.844  -9.551  -4.698 -0.17 -0.00    +0.000 A 
DOCKED: ATOM     17  C   UNL     1      17.115  -9.952  -5.116 -0.20 -0.00    +0.000 A 
DOCKED: ATOM     18  C   UNL     1      18.048 -10.451  -4.193 -0.25 -0.00    +0.000 A 
DOCKED: ATOM     19  C   UNL     1      17.686 -10.519  -2.837 -0.17 -0.00    +0.000 A 
DOCKED: ATOM     20  C   UNL     1      16.415 -10.117  -2.419 -0.22 -0.00    +0.000 A 
DOCKED: BRANCH  15  22
DOCKED: ATOM     21  C   UNL     1      12.944  -9.768  -3.540 -0.20 -0.00    +0.000 C 
DOCKED: ATOM     22  N   UNL     1      14.148  -9.212  -2.908 -0.16 -0.00    +0.000 N 
DOCKED: ATOM     23  C   UNL     1      13.992  -8.228  -1.830 -0.19 -0.00    +0.000 C 
DOCKED: ENDBRANCH  15  22
DOCKED: ENDBRANCH  13  18
DOCKED: ENDBRANCH   1  13
DOCKED: TORSDOF 6
DOCKED: TER
DOCKED: ENDMDL
________________________________________________________________________________


	BEGINNING GENETIC ALGORITHM DOCKING 88 of 100
Run: 88 Seed: 1090953433 616285719 [ Run 88 of 100 GA/GALS ]
Beginning LAMARCKIAN GENETIC ALGORITHM (LGA), with a maximum of 2500000 energy evaluations.

Final-Value: -12.484


	FINAL GENETIC ALGORITHM DOCKED STATE
	_______________________________________________


Detailed state:  trans 14.746 -6.855 3.736 quatxyzw 0.091043 -0.173581 0.844657 -0.498131 center -0.963 -0.416 0.212 ntor 6 -158.8480 78.2103 -117.3824 6.3776 28.4166 -74.2678
State:	 14.746  -6.855   3.736   0.105 -0.200  0.974 -120.247   -158.85   78.21 -117.38    6.38   28.42  -74.27

DOCKED: MODEL       88
DOCKED: USER    Run = 88
DOCKED: USER    DPF = ligand_dock.biased.dpf
DOCKED: USER  
DOCKED: USER    Estimated Free Energy of Binding    =   -9.43 kcal/mol  [=(1)+(2)+(3)-(4)]
DOCKED: USER    Estimated Inhibition Constant, Ki   =  123.37 nM (nanomolar)  [Temperature = 298.15 K]
DOCKED: USER    
DOCKED: USER    (1) Final Intermolecular Energy     =  -11.22 kcal/mol
DOCKED: USER        vdW + Hbond + desolv Energy     =  -11.22 kcal/mol
DOCKED: USER        Electrostatic Energy            =   +0.00 kcal/mol
DOCKED: USER    (2) Final Total Internal Energy     =   -1.27 kcal/mol
DOCKED: USER    (3) Torsional Free Energy           =   +1.79 kcal/mol
DOCKED: USER    (4) Unbound System's Energy  [=(2)] =   -1.27 kcal/mol
DOCKED: USER    
DOCKED: USER    
DOCKED: USER    NEWDPF move ligand.pdbqt
DOCKED: USER    NEWDPF about -0.963000 -0.416000 0.212000
DOCKED: USER    NEWDPF tran0 14.746251 -6.855209 3.735574
DOCKED: USER    NEWDPF quaternion0 0.091043 -0.173581 0.844657 -0.498131
DOCKED: USER    NEWDPF axisangle0 0.104997 -0.200185 0.974116 -120.247110
DOCKED: USER    NEWDPF quat0 0.104997 -0.200185 0.974116 -120.247110
DOCKED: USER    NEWDPF dihe0 -158.85 78.21 -117.38 6.38 28.42 -74.27 
DOCKED: USER  keepresnum = 1 
DOCKED: USER  
DOCKED: REMARK  Name = 
DOCKED: REMARK  10 active torsions:
DOCKED: REMARK  status: ('A' for Active; 'I' for Inactive)
DOCKED: REMARK    1  A    between atoms: C_1  and  N_2
DOCKED: REMARK    2  A    between atoms: N_2  and  C_3
DOCKED: REMARK    3  A    between atoms: N_2  and  C_22
DOCKED: REMARK    4  A    between atoms: C_6  and  C_9
DOCKED: REMARK    5  A    between atoms: C_9  and  C_10
DOCKED: REMARK    6  A    between atoms: C_10  and  C_11
DOCKED: REMARK    7  A    between atoms: C_10  and  C_20
DOCKED: REMARK    8  A    between atoms: C_12  and  C_13
DOCKED: REMARK    9  A    between atoms: C_12  and  C_19
DOCKED: REMARK   10  A    between atoms: C_14  and  C_15
DOCKED: REMARK                            x       y       z     vdW  Elec       q    Type
DOCKED: REMARK                         _______ _______ _______ _____ _____    ______ ____
DOCKED: USER                              x       y       z     vdW  Elec       q    Type
DOCKED: USER                           _______ _______ _______ _____ _____    ______ ____
DOCKED: ROOT
DOCKED: ATOM      1  C   UNL     1      13.839  -7.783   4.672 -0.36 +0.00    +0.000 C 
DOCKED: ATOM      2  C   UNL     1      13.057  -8.712   5.604 -0.46 +0.00    +0.000 C 
DOCKED: ENDROOT
DOCKED: BRANCH   1   3
DOCKED: ATOM      3  C   UNL     1      15.074  -8.490   4.149 -0.38 +0.00    +0.000 C 
DOCKED: ATOM      4  C   UNL     1      15.337  -8.723   2.846 -0.36 +0.00    +0.000 C 
DOCKED: ATOM      5  C   UNL     1      14.398  -8.272   1.749 -0.26 +0.00    +0.000 C 
DOCKED: BRANCH   4   6
DOCKED: ATOM      6  C   UNL     1      16.615  -9.402   2.507 -0.39 +0.00    +0.000 C 
DOCKED: ATOM      7  C   UNL     1      16.736 -10.736   2.430 -0.47 +0.00    +0.000 C 
DOCKED: BRANCH   7   8
DOCKED: ATOM      8  C   UNL     1      17.999 -11.422   2.091 -0.47 +0.00    +0.000 C 
DOCKED: ATOM      9  N   UNL     1      19.183 -11.288   2.887 -0.61 -0.00    +0.000 N 
DOCKED: ATOM     10  O   UNL     1      20.284 -12.018   2.593 -1.94 -0.00    +0.000 OA
DOCKED: ATOM     11  O   UNL     1      18.036 -12.129   1.049 -0.65 +0.00    +0.000 OA
DOCKED: ATOM     12  H   UNL     1      19.195 -10.664   3.649 -0.03 -0.00    +0.000 HD
DOCKED: ENDBRANCH   7   8
DOCKED: ENDBRANCH   4   6
DOCKED: ENDBRANCH   1   3
DOCKED: BRANCH   1  13
DOCKED: ATOM     13  C   UNL     1      14.218  -6.515   5.410 -0.45 +0.00    +0.000 C 
DOCKED: ATOM     14  O   UNL     1      13.892  -6.391   6.624 -1.02 +0.00    +0.000 OA
DOCKED: BRANCH  13  18
DOCKED: ATOM     15  C   UNL     1      16.300  -3.231   3.519 -0.40 -0.00    +0.000 A 
DOCKED: ATOM     16  C   UNL     1      16.503  -3.540   4.878 -0.45 -0.00    +0.000 A 
DOCKED: ATOM     17  C   UNL     1      15.825  -4.602   5.481 -0.40 +0.00    +0.000 A 
DOCKED: ATOM     18  C   UNL     1      14.932  -5.394   4.744 -0.39 +0.00    +0.000 A 
DOCKED: ATOM     19  C   UNL     1      14.715  -5.084   3.390 -0.26 +0.00    +0.000 A 
DOCKED: ATOM     20  C   UNL     1      15.391  -4.021   2.786 -0.23 -0.00    +0.000 A 
DOCKED: BRANCH  15  22
DOCKED: ATOM     21  C   UNL     1      18.427  -1.892   3.172 -0.50 -0.00    +0.000 C 
DOCKED: ATOM     22  N   UNL     1      17.005  -2.128   2.890 -0.42 -0.00    +0.000 N 
DOCKED: ATOM     23  C   UNL     1      16.308  -1.230   1.962 -0.30 -0.00    +0.000 C 
DOCKED: ENDBRANCH  15  22
DOCKED: ENDBRANCH  13  18
DOCKED: ENDBRANCH   1  13
DOCKED: TORSDOF 6
DOCKED: TER
DOCKED: ENDMDL
________________________________________________________________________________


	BEGINNING GENETIC ALGORITHM DOCKING 89 of 100
Run: 89 Seed: 477088352 1491669920 [ Run 89 of 100 GA/GALS ]
Beginning LAMARCKIAN GENETIC ALGORITHM (LGA), with a maximum of 2500000 energy evaluations.

Final-Value: -13.035


	FINAL GENETIC ALGORITHM DOCKED STATE
	_______________________________________________


Detailed state:  trans 21.094 -8.753 -3.254 quatxyzw -0.645941 -0.529666 0.516519 0.188205 center -0.963 -0.416 0.212 ntor 6 164.3950 -22.2855 177.8937 -110.8744 77.0927 141.9859
State:	 21.094  -8.753  -3.254  -0.658 -0.539  0.526 158.304    164.40  -22.29  177.89 -110.87   77.09  141.99

DOCKED: MODEL       89
DOCKED: USER    Run = 89
DOCKED: USER    DPF = ligand_dock.biased.dpf
DOCKED: USER  
DOCKED: USER    Estimated Free Energy of Binding    =  -10.03 kcal/mol  [=(1)+(2)+(3)-(4)]
DOCKED: USER    Estimated Inhibition Constant, Ki   =   44.19 nM (nanomolar)  [Temperature = 298.15 K]
DOCKED: USER    
DOCKED: USER    (1) Final Intermolecular Energy     =  -11.82 kcal/mol
DOCKED: USER        vdW + Hbond + desolv Energy     =  -11.82 kcal/mol
DOCKED: USER        Electrostatic Energy            =   +0.00 kcal/mol
DOCKED: USER    (2) Final Total Internal Energy     =   -1.21 kcal/mol
DOCKED: USER    (3) Torsional Free Energy           =   +1.79 kcal/mol
DOCKED: USER    (4) Unbound System's Energy  [=(2)] =   -1.21 kcal/mol
DOCKED: USER    
DOCKED: USER    
DOCKED: USER    NEWDPF move ligand.pdbqt
DOCKED: USER    NEWDPF about -0.963000 -0.416000 0.212000
DOCKED: USER    NEWDPF tran0 21.094157 -8.753291 -3.254349
DOCKED: USER    NEWDPF quaternion0 -0.645941 -0.529666 0.516519 0.188205
DOCKED: USER    NEWDPF axisangle0 -0.657695 -0.539304 0.525918 158.303878
DOCKED: USER    NEWDPF quat0 -0.657695 -0.539304 0.525918 158.303878
DOCKED: USER    NEWDPF dihe0 164.40 -22.29 177.89 -110.87 77.09 141.99 
DOCKED: USER  keepresnum = 1 
DOCKED: USER  
DOCKED: REMARK  Name = 
DOCKED: REMARK  10 active torsions:
DOCKED: REMARK  status: ('A' for Active; 'I' for Inactive)
DOCKED: REMARK    1  A    between atoms: C_1  and  N_2
DOCKED: REMARK    2  A    between atoms: N_2  and  C_3
DOCKED: REMARK    3  A    between atoms: N_2  and  C_22
DOCKED: REMARK    4  A    between atoms: C_6  and  C_9
DOCKED: REMARK    5  A    between atoms: C_9  and  C_10
DOCKED: REMARK    6  A    between atoms: C_10  and  C_11
DOCKED: REMARK    7  A    between atoms: C_10  and  C_20
DOCKED: REMARK    8  A    between atoms: C_12  and  C_13
DOCKED: REMARK    9  A    between atoms: C_12  and  C_19
DOCKED: REMARK   10  A    between atoms: C_14  and  C_15
DOCKED: REMARK                            x       y       z     vdW  Elec       q    Type
DOCKED: REMARK                         _______ _______ _______ _____ _____    ______ ____
DOCKED: USER                              x       y       z     vdW  Elec       q    Type
DOCKED: USER                           _______ _______ _______ _____ _____    ______ ____
DOCKED: ROOT
DOCKED: ATOM      1  C   UNL     1      21.406 -10.107  -4.049 -0.48 -0.00    +0.000 C 
DOCKED: ATOM      2  C   UNL     1      21.632 -11.447  -4.754 -0.46 -0.00    +0.000 C 
DOCKED: ENDROOT
DOCKED: BRANCH   1   3
DOCKED: ATOM      3  C   UNL     1      21.064 -10.337  -2.590 -0.56 -0.00    +0.000 C 
DOCKED: ATOM      4  C   UNL     1      21.018  -9.374  -1.646 -0.60 -0.00    +0.000 C 
DOCKED: ATOM      5  C   UNL     1      21.300  -7.924  -1.971 -0.48 -0.00    +0.000 C 
DOCKED: BRANCH   4   6
DOCKED: ATOM      6  C   UNL     1      20.633  -9.772  -0.267 -0.64 -0.00    +0.000 C 
DOCKED: ATOM      7  C   UNL     1      20.790 -11.018   0.205 -0.65 -0.00    +0.000 C 
DOCKED: BRANCH   7   8
DOCKED: ATOM      8  C   UNL     1      20.413 -11.423   1.575 -0.76 -0.00    +0.000 C 
DOCKED: ATOM      9  N   UNL     1      20.641 -10.585   2.714 -0.62 -0.00    +0.000 N 
DOCKED: ATOM     10  O   UNL     1      20.184 -10.957   3.932 -1.12 -0.00    +0.000 OA
DOCKED: ATOM     11  O   UNL     1      19.895 -12.560   1.742 -1.71 -0.00    +0.000 OA
DOCKED: ATOM     12  H   UNL     1      21.131  -9.737   2.610 -0.59 -0.00    +0.000 HD
DOCKED: ENDBRANCH   7   8
DOCKED: ENDBRANCH   4   6
DOCKED: ENDBRANCH   1   3
DOCKED: BRANCH   1  13
DOCKED: ATOM     13  C   UNL     1      20.300  -9.340  -4.745 -0.30 -0.00    +0.000 C 
DOCKED: ATOM     14  O   UNL     1      20.400  -8.085  -4.856 -0.21 -0.00    +0.000 OA
DOCKED: BRANCH  13  18
DOCKED: ATOM     15  C   UNL     1      16.741 -11.295  -6.231 -0.30 -0.00    +0.000 A 
DOCKED: ATOM     16  C   UNL     1      16.768 -10.694  -4.958 -0.18 -0.00    +0.000 A 
DOCKED: ATOM     17  C   UNL     1      17.922 -10.065  -4.485 -0.24 -0.00    +0.000 A 
DOCKED: ATOM     18  C   UNL     1      19.082 -10.009  -5.273 -0.25 -0.00    +0.000 A 
DOCKED: ATOM     19  C   UNL     1      19.067 -10.618  -6.540 -0.30 -0.00    +0.000 A 
DOCKED: ATOM     20  C   UNL     1      17.914 -11.248  -7.013 -0.34 -0.00    +0.000 A 
DOCKED: BRANCH  15  22
DOCKED: ATOM     21  C   UNL     1      14.295 -11.903  -5.949 -0.31 -0.00    +0.000 C 
DOCKED: ATOM     22  N   UNL     1      15.542 -11.948  -6.724 -0.32 -0.00    +0.000 N 
DOCKED: ATOM     23  C   UNL     1      15.555 -12.664  -8.005 -0.41 +0.00    +0.000 C 
DOCKED: ENDBRANCH  15  22
DOCKED: ENDBRANCH  13  18
DOCKED: ENDBRANCH   1  13
DOCKED: TORSDOF 6
DOCKED: TER
DOCKED: ENDMDL
________________________________________________________________________________


	BEGINNING GENETIC ALGORITHM DOCKING 90 of 100
Run: 90 Seed: 1277145188 587431365 [ Run 90 of 100 GA/GALS ]
Beginning LAMARCKIAN GENETIC ALGORITHM (LGA), with a maximum of 2500000 energy evaluations.

Final-Value: -12.249


	FINAL GENETIC ALGORITHM DOCKED STATE
	_______________________________________________


Detailed state:  trans 19.755 -9.506 -3.019 quatxyzw 0.374436 0.738360 -0.456831 -0.325466 center -0.963 -0.416 0.212 ntor 6 -168.8311 73.6806 94.1542 125.0314 35.7083 50.6405
State:	 19.755  -9.506  -3.019   0.396  0.781 -0.483 -142.012   -168.83   73.68   94.15  125.03   35.71   50.64

DOCKED: MODEL       90
DOCKED: USER    Run = 90
DOCKED: USER    DPF = ligand_dock.biased.dpf
DOCKED: USER  
DOCKED: USER    Estimated Free Energy of Binding    =   -9.37 kcal/mol  [=(1)+(2)+(3)-(4)]
DOCKED: USER    Estimated Inhibition Constant, Ki   =  135.76 nM (nanomolar)  [Temperature = 298.15 K]
DOCKED: USER    
DOCKED: USER    (1) Final Intermolecular Energy     =  -11.16 kcal/mol
DOCKED: USER        vdW + Hbond + desolv Energy     =  -11.16 kcal/mol
DOCKED: USER        Electrostatic Energy            =   +0.00 kcal/mol
DOCKED: USER    (2) Final Total Internal Energy     =   -1.09 kcal/mol
DOCKED: USER    (3) Torsional Free Energy           =   +1.79 kcal/mol
DOCKED: USER    (4) Unbound System's Energy  [=(2)] =   -1.09 kcal/mol
DOCKED: USER    
DOCKED: USER    
DOCKED: USER    NEWDPF move ligand.pdbqt
DOCKED: USER    NEWDPF about -0.963000 -0.416000 0.212000
DOCKED: USER    NEWDPF tran0 19.754966 -9.506429 -3.018690
DOCKED: USER    NEWDPF quaternion0 0.374436 0.738360 -0.456831 -0.325466
DOCKED: USER    NEWDPF axisangle0 0.395996 0.780875 -0.483136 -142.012352
DOCKED: USER    NEWDPF quat0 0.395996 0.780875 -0.483136 -142.012352
DOCKED: USER    NEWDPF dihe0 -168.83 73.68 94.15 125.03 35.71 50.64 
DOCKED: USER  keepresnum = 1 
DOCKED: USER  
DOCKED: REMARK  Name = 
DOCKED: REMARK  10 active torsions:
DOCKED: REMARK  status: ('A' for Active; 'I' for Inactive)
DOCKED: REMARK    1  A    between atoms: C_1  and  N_2
DOCKED: REMARK    2  A    between atoms: N_2  and  C_3
DOCKED: REMARK    3  A    between atoms: N_2  and  C_22
DOCKED: REMARK    4  A    between atoms: C_6  and  C_9
DOCKED: REMARK    5  A    between atoms: C_9  and  C_10
DOCKED: REMARK    6  A    between atoms: C_10  and  C_11
DOCKED: REMARK    7  A    between atoms: C_10  and  C_20
DOCKED: REMARK    8  A    between atoms: C_12  and  C_13
DOCKED: REMARK    9  A    between atoms: C_12  and  C_19
DOCKED: REMARK   10  A    between atoms: C_14  and  C_15
DOCKED: REMARK                            x       y       z     vdW  Elec       q    Type
DOCKED: REMARK                         _______ _______ _______ _____ _____    ______ ____
DOCKED: USER                              x       y       z     vdW  Elec       q    Type
DOCKED: USER                           _______ _______ _______ _____ _____    ______ ____
DOCKED: ROOT
DOCKED: ATOM      1  C   UNL     1      20.791 -10.338  -3.911 -0.49 -0.00    +0.000 C 
DOCKED: ATOM      2  C   UNL     1      21.766 -11.213  -4.703 -0.52 -0.00    +0.000 C 
DOCKED: ENDROOT
DOCKED: BRANCH   1   3
DOCKED: ATOM      3  C   UNL     1      20.881 -10.665  -2.434 -0.49 -0.00    +0.000 C 
DOCKED: ATOM      4  C   UNL     1      21.082  -9.759  -1.453 -0.63 -0.00    +0.000 C 
DOCKED: ATOM      5  C   UNL     1      21.228  -8.283  -1.747 -0.50 -0.00    +0.000 C 
DOCKED: BRANCH   4   6
DOCKED: ATOM      6  C   UNL     1      21.111 -10.251  -0.051 -0.70 -0.00    +0.000 C 
DOCKED: ATOM      7  C   UNL     1      20.080 -10.890   0.521 -0.66 -0.00    +0.000 C 
DOCKED: BRANCH   7   8
DOCKED: ATOM      8  C   UNL     1      20.099 -11.386   1.913 -0.76 -0.00    +0.000 C 
DOCKED: ATOM      9  N   UNL     1      20.369 -10.530   3.029 -0.67 -0.00    +0.000 N 
DOCKED: ATOM     10  O   UNL     1      20.272 -11.009   4.291 -1.00 -0.00    +0.000 OA
DOCKED: ATOM     11  O   UNL     1      19.894 -12.612   2.115 -1.68 -0.00    +0.000 OA
DOCKED: ATOM     12  H   UNL     1      20.624  -9.590   2.878 -0.58 -0.00    +0.000 HD
DOCKED: ENDBRANCH   7   8
DOCKED: ENDBRANCH   4   6
DOCKED: ENDBRANCH   1   3
DOCKED: BRANCH   1  13
DOCKED: ATOM     13  C   UNL     1      19.379 -10.548  -4.423 -0.39 -0.00    +0.000 C 
DOCKED: ATOM     14  O   UNL     1      18.471 -10.865  -3.604 -0.33 -0.00    +0.000 OA
DOCKED: BRANCH  13  18
DOCKED: ATOM     15  C   UNL     1      18.393 -10.150  -8.614 -0.18 -0.00    +0.000 A 
DOCKED: ATOM     16  C   UNL     1      19.458  -9.428  -8.042 -0.14 -0.00    +0.000 A 
DOCKED: ATOM     17  C   UNL     1      19.770  -9.561  -6.686 -0.18 -0.00    +0.000 A 
DOCKED: ATOM     18  C   UNL     1      19.033 -10.427  -5.863 -0.28 -0.00    +0.000 A 
DOCKED: ATOM     19  C   UNL     1      17.960 -11.142  -6.424 -0.34 -0.00    +0.000 A 
DOCKED: ATOM     20  C   UNL     1      17.648 -11.008  -7.780 -0.28 -0.00    +0.000 A 
DOCKED: BRANCH  15  22
DOCKED: ATOM     21  C   UNL     1      19.123  -9.736 -11.008 -0.11 -0.00    +0.000 C 
DOCKED: ATOM     22  N   UNL     1      18.069 -10.013 -10.023 -0.13 -0.00    +0.000 N 
DOCKED: ATOM     23  C   UNL     1      16.683 -10.148 -10.486 -0.12 -0.00    +0.000 C 
DOCKED: ENDBRANCH  15  22
DOCKED: ENDBRANCH  13  18
DOCKED: ENDBRANCH   1  13
DOCKED: TORSDOF 6
DOCKED: TER
DOCKED: ENDMDL
________________________________________________________________________________


	BEGINNING GENETIC ALGORITHM DOCKING 91 of 100
Run: 91 Seed: 759453202 743245125 [ Run 91 of 100 GA/GALS ]
Beginning LAMARCKIAN GENETIC ALGORITHM (LGA), with a maximum of 2500000 energy evaluations.

Final-Value: -12.493


	FINAL GENETIC ALGORITHM DOCKED STATE
	_______________________________________________


Detailed state:  trans 18.794 -10.441 -3.747 quatxyzw -0.086914 -0.755037 0.248986 0.600309 center -0.963 -0.416 0.212 ntor 6 71.9732 -17.3567 -163.0087 69.0609 -35.1622 -17.5857
State:	 18.794 -10.441  -3.747  -0.109 -0.944  0.311 106.216     71.97  -17.36 -163.01   69.06  -35.16  -17.59

DOCKED: MODEL       91
DOCKED: USER    Run = 91
DOCKED: USER    DPF = ligand_dock.biased.dpf
DOCKED: USER  
DOCKED: USER    Estimated Free Energy of Binding    =   -9.77 kcal/mol  [=(1)+(2)+(3)-(4)]
DOCKED: USER    Estimated Inhibition Constant, Ki   =   69.01 nM (nanomolar)  [Temperature = 298.15 K]
DOCKED: USER    
DOCKED: USER    (1) Final Intermolecular Energy     =  -11.56 kcal/mol
DOCKED: USER        vdW + Hbond + desolv Energy     =  -11.56 kcal/mol
DOCKED: USER        Electrostatic Energy            =   +0.00 kcal/mol
DOCKED: USER    (2) Final Total Internal Energy     =   -0.93 kcal/mol
DOCKED: USER    (3) Torsional Free Energy           =   +1.79 kcal/mol
DOCKED: USER    (4) Unbound System's Energy  [=(2)] =   -0.93 kcal/mol
DOCKED: USER    
DOCKED: USER    
DOCKED: USER    NEWDPF move ligand.pdbqt
DOCKED: USER    NEWDPF about -0.963000 -0.416000 0.212000
DOCKED: USER    NEWDPF tran0 18.793788 -10.440906 -3.746512
DOCKED: USER    NEWDPF quaternion0 -0.086914 -0.755037 0.248986 0.600309
DOCKED: USER    NEWDPF axisangle0 -0.108674 -0.944070 0.311323 106.215908
DOCKED: USER    NEWDPF quat0 -0.108674 -0.944070 0.311323 106.215908
DOCKED: USER    NEWDPF dihe0 71.97 -17.36 -163.01 69.06 -35.16 -17.59 
DOCKED: USER  keepresnum = 1 
DOCKED: USER  
DOCKED: REMARK  Name = 
DOCKED: REMARK  10 active torsions:
DOCKED: REMARK  status: ('A' for Active; 'I' for Inactive)
DOCKED: REMARK    1  A    between atoms: C_1  and  N_2
DOCKED: REMARK    2  A    between atoms: N_2  and  C_3
DOCKED: REMARK    3  A    between atoms: N_2  and  C_22
DOCKED: REMARK    4  A    between atoms: C_6  and  C_9
DOCKED: REMARK    5  A    between atoms: C_9  and  C_10
DOCKED: REMARK    6  A    between atoms: C_10  and  C_11
DOCKED: REMARK    7  A    between atoms: C_10  and  C_20
DOCKED: REMARK    8  A    between atoms: C_12  and  C_13
DOCKED: REMARK    9  A    between atoms: C_12  and  C_19
DOCKED: REMARK   10  A    between atoms: C_14  and  C_15
DOCKED: REMARK                            x       y       z     vdW  Elec       q    Type
DOCKED: REMARK                         _______ _______ _______ _____ _____    ______ ____
DOCKED: USER                              x       y       z     vdW  Elec       q    Type
DOCKED: USER                           _______ _______ _______ _____ _____    ______ ____
DOCKED: ROOT
DOCKED: ATOM      1  C   UNL     1      20.300 -10.162  -4.210 -0.41 -0.00    +0.000 C 
DOCKED: ATOM      2  C   UNL     1      21.771  -9.962  -4.584 -0.41 -0.00    +0.000 C 
DOCKED: ENDROOT
DOCKED: BRANCH   1   3
DOCKED: ATOM      3  C   UNL     1      20.169 -10.391  -2.717 -0.49 -0.00    +0.000 C 
DOCKED: ATOM      4  C   UNL     1      20.617  -9.547  -1.764 -0.54 -0.00    +0.000 C 
DOCKED: ATOM      5  C   UNL     1      21.303  -8.244  -2.110 -0.49 -0.00    +0.000 C 
DOCKED: BRANCH   4   6
DOCKED: ATOM      6  C   UNL     1      20.375  -9.913  -0.345 -0.58 -0.00    +0.000 C 
DOCKED: ATOM      7  C   UNL     1      20.556 -11.154   0.132 -0.60 -0.00    +0.000 C 
DOCKED: BRANCH   7   8
DOCKED: ATOM      8  C   UNL     1      20.322 -11.528   1.542 -0.76 -0.00    +0.000 C 
DOCKED: ATOM      9  N   UNL     1      20.595 -10.636   2.628 -0.63 -0.00    +0.000 N 
DOCKED: ATOM     10  O   UNL     1      20.266 -10.986   3.893 -1.18 -0.00    +0.000 OA
DOCKED: ATOM     11  O   UNL     1      19.888 -12.685   1.790 -1.65 -0.00    +0.000 OA
DOCKED: ATOM     12  H   UNL     1      21.022  -9.765   2.454 -0.59 -0.00    +0.000 HD
DOCKED: ENDBRANCH   7   8
DOCKED: ENDBRANCH   4   6
DOCKED: ENDBRANCH   1   3
DOCKED: BRANCH   1  13
DOCKED: ATOM     13  C   UNL     1      19.726 -11.331  -4.986 -0.49 -0.00    +0.000 C 
DOCKED: ATOM     14  O   UNL     1      20.267 -12.467  -4.871 -0.77 -0.00    +0.000 OA
DOCKED: BRANCH  13  18
DOCKED: ATOM     15  C   UNL     1      16.328 -10.919  -7.626 -0.24 -0.00    +0.000 A 
DOCKED: ATOM     16  C   UNL     1      16.158 -11.116  -6.242 -0.26 -0.00    +0.000 A 
DOCKED: ATOM     17  C   UNL     1      17.262 -11.249  -5.396 -0.16 -0.00    +0.000 A 
DOCKED: ATOM     18  C   UNL     1      18.568 -11.181  -5.905 -0.35 -0.00    +0.000 A 
DOCKED: ATOM     19  C   UNL     1      18.745 -10.997  -7.287 -0.28 -0.00    +0.000 A 
DOCKED: ATOM     20  C   UNL     1      17.642 -10.865  -8.135 -0.24 -0.00    +0.000 A 
DOCKED: BRANCH  15  22
DOCKED: ATOM     21  C   UNL     1      14.543 -11.964  -9.095 -0.22 -0.00    +0.000 C 
DOCKED: ATOM     22  N   UNL     1      15.181 -10.779  -8.507 -0.14 -0.00    +0.000 N 
DOCKED: ATOM     23  C   UNL     1      14.641  -9.452  -8.823 -0.06 -0.00    +0.000 C 
DOCKED: ENDBRANCH  15  22
DOCKED: ENDBRANCH  13  18
DOCKED: ENDBRANCH   1  13
DOCKED: TORSDOF 6
DOCKED: TER
DOCKED: ENDMDL
________________________________________________________________________________


	BEGINNING GENETIC ALGORITHM DOCKING 92 of 100
Run: 92 Seed: 1514130276 396116087 [ Run 92 of 100 GA/GALS ]
Beginning LAMARCKIAN GENETIC ALGORITHM (LGA), with a maximum of 2500000 energy evaluations.

Final-Value: -11.649


	FINAL GENETIC ALGORITHM DOCKED STATE
	_______________________________________________


Detailed state:  trans 14.014 -11.998 -0.887 quatxyzw -0.401465 0.373921 0.803360 -0.231563 center -0.963 -0.416 0.212 ntor 6 169.5776 125.8033 30.0424 -97.3723 57.2696 -94.6941
State:	 14.014 -11.998  -0.887  -0.413  0.384  0.826 -153.222    169.58  125.80   30.04  -97.37   57.27  -94.69

DOCKED: MODEL       92
DOCKED: USER    Run = 92
DOCKED: USER    DPF = ligand_dock.biased.dpf
DOCKED: USER  
DOCKED: USER    Estimated Free Energy of Binding    =   -8.35 kcal/mol  [=(1)+(2)+(3)-(4)]
DOCKED: USER    Estimated Inhibition Constant, Ki   =  758.49 nM (nanomolar)  [Temperature = 298.15 K]
DOCKED: USER    
DOCKED: USER    (1) Final Intermolecular Energy     =  -10.14 kcal/mol
DOCKED: USER        vdW + Hbond + desolv Energy     =  -10.14 kcal/mol
DOCKED: USER        Electrostatic Energy            =   +0.00 kcal/mol
DOCKED: USER    (2) Final Total Internal Energy     =   -1.51 kcal/mol
DOCKED: USER    (3) Torsional Free Energy           =   +1.79 kcal/mol
DOCKED: USER    (4) Unbound System's Energy  [=(2)] =   -1.51 kcal/mol
DOCKED: USER    
DOCKED: USER    
DOCKED: USER    NEWDPF move ligand.pdbqt
DOCKED: USER    NEWDPF about -0.963000 -0.416000 0.212000
DOCKED: USER    NEWDPF tran0 14.014178 -11.998222 -0.886743
DOCKED: USER    NEWDPF quaternion0 -0.401465 0.373921 0.803360 -0.231563
DOCKED: USER    NEWDPF axisangle0 -0.412682 0.384368 0.825806 -153.221757
DOCKED: USER    NEWDPF quat0 -0.412682 0.384368 0.825806 -153.221757
DOCKED: USER    NEWDPF dihe0 169.58 125.80 30.04 -97.37 57.27 -94.69 
DOCKED: USER  keepresnum = 1 
DOCKED: USER  
DOCKED: REMARK  Name = 
DOCKED: REMARK  10 active torsions:
DOCKED: REMARK  status: ('A' for Active; 'I' for Inactive)
DOCKED: REMARK    1  A    between atoms: C_1  and  N_2
DOCKED: REMARK    2  A    between atoms: N_2  and  C_3
DOCKED: REMARK    3  A    between atoms: N_2  and  C_22
DOCKED: REMARK    4  A    between atoms: C_6  and  C_9
DOCKED: REMARK    5  A    between atoms: C_9  and  C_10
DOCKED: REMARK    6  A    between atoms: C_10  and  C_11
DOCKED: REMARK    7  A    between atoms: C_10  and  C_20
DOCKED: REMARK    8  A    between atoms: C_12  and  C_13
DOCKED: REMARK    9  A    between atoms: C_12  and  C_19
DOCKED: REMARK   10  A    between atoms: C_14  and  C_15
DOCKED: REMARK                            x       y       z     vdW  Elec       q    Type
DOCKED: REMARK                         _______ _______ _______ _____ _____    ______ ____
DOCKED: USER                              x       y       z     vdW  Elec       q    Type
DOCKED: USER                           _______ _______ _______ _____ _____    ______ ____
DOCKED: ROOT
DOCKED: ATOM      1  C   UNL     1      12.751 -11.646   0.030 -0.38 +0.00    +0.000 C 
DOCKED: ATOM      2  C   UNL     1      11.598 -11.237   0.951 -0.40 +0.00    +0.000 C 
DOCKED: ENDROOT
DOCKED: BRANCH   1   3
DOCKED: ATOM      3  C   UNL     1      14.072 -11.524   0.764 -0.42 +0.00    +0.000 C 
DOCKED: ATOM      4  C   UNL     1      15.154 -12.299   0.540 -0.51 +0.00    +0.000 C 
DOCKED: ATOM      5  C   UNL     1      15.152 -13.390  -0.507 -0.55 +0.00    +0.000 C 
DOCKED: BRANCH   4   6
DOCKED: ATOM      6  C   UNL     1      16.381 -12.020   1.329 -0.48 +0.00    +0.000 C 
DOCKED: ATOM      7  C   UNL     1      17.568 -11.748   0.765 -0.51 +0.00    +0.000 C 
DOCKED: BRANCH   7   8
DOCKED: ATOM      8  C   UNL     1      18.794 -11.466   1.540 -0.60 -0.00    +0.000 C 
DOCKED: ATOM      9  N   UNL     1      19.881 -12.395   1.622 -0.70 -0.00    +0.000 N 
DOCKED: ATOM     10  O   UNL     1      21.024 -12.048   2.258 -1.66 -0.00    +0.000 OA
DOCKED: ATOM     11  O   UNL     1      18.868 -10.376   2.168 -0.64 -0.00    +0.000 OA
DOCKED: ATOM     12  H   UNL     1      19.796 -13.289   1.215 -0.56 -0.00    +0.000 HD
DOCKED: ENDBRANCH   7   8
DOCKED: ENDBRANCH   4   6
DOCKED: ENDBRANCH   1   3
DOCKED: BRANCH   1  13
DOCKED: ATOM     13  C   UNL     1      12.745 -10.782  -1.215 -0.28 +0.00    +0.000 C 
DOCKED: ATOM     14  O   UNL     1      11.690 -10.161  -1.526 -0.26 -0.00    +0.000 OA
DOCKED: BRANCH  13  18
DOCKED: ATOM     15  C   UNL     1      16.178 -10.489  -3.828 -0.17 -0.00    +0.000 A 
DOCKED: ATOM     16  C   UNL     1      15.016 -11.182  -4.221 -0.22 -0.00    +0.000 A 
DOCKED: ATOM     17  C   UNL     1      13.912 -11.273  -3.371 -0.21 -0.00    +0.000 A 
DOCKED: ATOM     18  C   UNL     1      13.930 -10.666  -2.105 -0.28 -0.00    +0.000 A 
DOCKED: ATOM     19  C   UNL     1      15.090  -9.984  -1.700 -0.24 -0.00    +0.000 A 
DOCKED: ATOM     20  C   UNL     1      16.196  -9.894  -2.550 -0.21 -0.00    +0.000 A 
DOCKED: BRANCH  15  22
DOCKED: ATOM     21  C   UNL     1      17.228 -10.822  -6.113 -0.31 -0.00    +0.000 C 
DOCKED: ATOM     22  N   UNL     1      17.326 -10.393  -4.711 -0.24 -0.00    +0.000 N 
DOCKED: ATOM     23  C   UNL     1      18.604  -9.867  -4.219 -0.29 -0.00    +0.000 C 
DOCKED: ENDBRANCH  15  22
DOCKED: ENDBRANCH  13  18
DOCKED: ENDBRANCH   1  13
DOCKED: TORSDOF 6
DOCKED: TER
DOCKED: ENDMDL
________________________________________________________________________________


	BEGINNING GENETIC ALGORITHM DOCKING 93 of 100
Run: 93 Seed: 808741898 1624451190 [ Run 93 of 100 GA/GALS ]
Beginning LAMARCKIAN GENETIC ALGORITHM (LGA), with a maximum of 2500000 energy evaluations.

Final-Value: -12.099


	FINAL GENETIC ALGORITHM DOCKED STATE
	_______________________________________________


Detailed state:  trans 20.183 -12.362 -0.403 quatxyzw -0.351537 -0.397710 -0.413179 -0.739954 center -0.963 -0.416 0.212 ntor 6 -30.4698 179.4725 22.1780 63.4460 -29.4295 179.8254
State:	 20.183 -12.362  -0.403  -0.523 -0.591 -0.614 -84.545    -30.47  179.47   22.18   63.45  -29.43  179.83

DOCKED: MODEL       93
DOCKED: USER    Run = 93
DOCKED: USER    DPF = ligand_dock.biased.dpf
DOCKED: USER  
DOCKED: USER    Estimated Free Energy of Binding    =   -9.24 kcal/mol  [=(1)+(2)+(3)-(4)]
DOCKED: USER    Estimated Inhibition Constant, Ki   =  168.21 nM (nanomolar)  [Temperature = 298.15 K]
DOCKED: USER    
DOCKED: USER    (1) Final Intermolecular Energy     =  -11.03 kcal/mol
DOCKED: USER        vdW + Hbond + desolv Energy     =  -11.03 kcal/mol
DOCKED: USER        Electrostatic Energy            =   +0.00 kcal/mol
DOCKED: USER    (2) Final Total Internal Energy     =   -1.07 kcal/mol
DOCKED: USER    (3) Torsional Free Energy           =   +1.79 kcal/mol
DOCKED: USER    (4) Unbound System's Energy  [=(2)] =   -1.07 kcal/mol
DOCKED: USER    
DOCKED: USER    
DOCKED: USER    NEWDPF move ligand.pdbqt
DOCKED: USER    NEWDPF about -0.963000 -0.416000 0.212000
DOCKED: USER    NEWDPF tran0 20.183309 -12.362373 -0.402598
DOCKED: USER    NEWDPF quaternion0 -0.351537 -0.397710 -0.413179 -0.739954
DOCKED: USER    NEWDPF axisangle0 -0.522609 -0.591252 -0.614249 -84.545055
DOCKED: USER    NEWDPF quat0 -0.522609 -0.591252 -0.614249 -84.545055
DOCKED: USER    NEWDPF dihe0 -30.47 179.47 22.18 63.45 -29.43 179.83 
DOCKED: USER  keepresnum = 1 
DOCKED: USER  
DOCKED: REMARK  Name = 
DOCKED: REMARK  10 active torsions:
DOCKED: REMARK  status: ('A' for Active; 'I' for Inactive)
DOCKED: REMARK    1  A    between atoms: C_1  and  N_2
DOCKED: REMARK    2  A    between atoms: N_2  and  C_3
DOCKED: REMARK    3  A    between atoms: N_2  and  C_22
DOCKED: REMARK    4  A    between atoms: C_6  and  C_9
DOCKED: REMARK    5  A    between atoms: C_9  and  C_10
DOCKED: REMARK    6  A    between atoms: C_10  and  C_11
DOCKED: REMARK    7  A    between atoms: C_10  and  C_20
DOCKED: REMARK    8  A    between atoms: C_12  and  C_13
DOCKED: REMARK    9  A    between atoms: C_12  and  C_19
DOCKED: REMARK   10  A    between atoms: C_14  and  C_15
DOCKED: REMARK                            x       y       z     vdW  Elec       q    Type
DOCKED: REMARK                         _______ _______ _______ _____ _____    ______ ____
DOCKED: USER                              x       y       z     vdW  Elec       q    Type
DOCKED: USER                           _______ _______ _______ _____ _____    ______ ____
DOCKED: ROOT
DOCKED: ATOM      1  C   UNL     1      20.716 -10.893  -0.060 -0.66 -0.00    +0.000 C 
DOCKED: ATOM      2  C   UNL     1      21.134  -9.452   0.245 -0.49 -0.00    +0.000 C 
DOCKED: ENDROOT
DOCKED: BRANCH   1   3
DOCKED: ATOM      3  C   UNL     1      19.739 -10.917  -1.219 -0.48 -0.00    +0.000 C 
DOCKED: ATOM      4  C   UNL     1      20.016 -10.500  -2.472 -0.49 -0.00    +0.000 C 
DOCKED: ATOM      5  C   UNL     1      21.378  -9.963  -2.852 -0.53 -0.00    +0.000 C 
DOCKED: BRANCH   4   6
DOCKED: ATOM      6  C   UNL     1      18.948 -10.625  -3.497 -0.37 -0.00    +0.000 C 
DOCKED: ATOM      7  C   UNL     1      19.154 -11.168  -4.706 -0.43 -0.00    +0.000 C 
DOCKED: BRANCH   7   8
DOCKED: ATOM      8  C   UNL     1      18.099 -11.300  -5.731 -0.36 -0.00    +0.000 C 
DOCKED: ATOM      9  N   UNL     1      18.396 -11.519  -7.115 -0.35 -0.00    +0.000 N 
DOCKED: ATOM     10  O   UNL     1      17.393 -11.738  -7.998 -0.38 -0.00    +0.000 OA
DOCKED: ATOM     11  O   UNL     1      16.897 -11.191  -5.370 -0.32 -0.00    +0.000 OA
DOCKED: ATOM     12  H   UNL     1      19.331 -11.512  -7.425 -0.06 -0.00    +0.000 HD
DOCKED: ENDBRANCH   7   8
DOCKED: ENDBRANCH   4   6
DOCKED: ENDBRANCH   1   3
DOCKED: BRANCH   1  13
DOCKED: ATOM     13  C   UNL     1      20.102 -11.523   1.174 -0.73 -0.00    +0.000 C 
DOCKED: ATOM     14  O   UNL     1      20.779 -12.359   1.837 -1.62 -0.00    +0.000 OA
DOCKED: BRANCH  13  18
DOCKED: ATOM     15  C   UNL     1      16.089 -10.608   2.496 -0.40 +0.00    +0.000 A 
DOCKED: ATOM     16  C   UNL     1      17.195  -9.861   2.945 -0.38 +0.00    +0.000 A 
DOCKED: ATOM     17  C   UNL     1      18.488 -10.164   2.514 -0.50 -0.00    +0.000 A 
DOCKED: ATOM     18  C   UNL     1      18.716 -11.216   1.614 -0.51 -0.00    +0.000 A 
DOCKED: ATOM     19  C   UNL     1      17.619 -11.975   1.171 -0.44 +0.00    +0.000 A 
DOCKED: ATOM     20  C   UNL     1      16.325 -11.673   1.603 -0.39 +0.00    +0.000 A 
DOCKED: BRANCH  15  22
DOCKED: ATOM     21  C   UNL     1      13.579 -10.929   2.312 -0.38 +0.00    +0.000 C 
DOCKED: ATOM     22  N   UNL     1      14.744 -10.294   2.943 -0.35 +0.00    +0.000 N 
DOCKED: ATOM     23  C   UNL     1      14.525  -9.336   4.034 -0.41 +0.00    +0.000 C 
DOCKED: ENDBRANCH  15  22
DOCKED: ENDBRANCH  13  18
DOCKED: ENDBRANCH   1  13
DOCKED: TORSDOF 6
DOCKED: TER
DOCKED: ENDMDL
________________________________________________________________________________


	BEGINNING GENETIC ALGORITHM DOCKING 94 of 100
Run: 94 Seed: 2084897594 1065155450 [ Run 94 of 100 GA/GALS ]
Beginning LAMARCKIAN GENETIC ALGORITHM (LGA), with a maximum of 2500000 energy evaluations.

Final-Value: -12.634


	FINAL GENETIC ALGORITHM DOCKED STATE
	_______________________________________________


Detailed state:  trans 19.467 -9.667 -2.976 quatxyzw -0.280776 -0.789112 0.411839 0.358966 center -0.963 -0.416 0.212 ntor 6 55.0812 106.6544 93.1217 -83.9156 18.5543 -77.6645
State:	 19.467  -9.667  -2.976  -0.301 -0.845  0.441 137.927     55.08  106.65   93.12  -83.92   18.55  -77.66

DOCKED: MODEL       94
DOCKED: USER    Run = 94
DOCKED: USER    DPF = ligand_dock.biased.dpf
DOCKED: USER  
DOCKED: USER    Estimated Free Energy of Binding    =   -9.53 kcal/mol  [=(1)+(2)+(3)-(4)]
DOCKED: USER    Estimated Inhibition Constant, Ki   =  103.09 nM (nanomolar)  [Temperature = 298.15 K]
DOCKED: USER    
DOCKED: USER    (1) Final Intermolecular Energy     =  -11.32 kcal/mol
DOCKED: USER        vdW + Hbond + desolv Energy     =  -11.32 kcal/mol
DOCKED: USER        Electrostatic Energy            =   +0.00 kcal/mol
DOCKED: USER    (2) Final Total Internal Energy     =   -1.31 kcal/mol
DOCKED: USER    (3) Torsional Free Energy           =   +1.79 kcal/mol
DOCKED: USER    (4) Unbound System's Energy  [=(2)] =   -1.31 kcal/mol
DOCKED: USER    
DOCKED: USER    
DOCKED: USER    NEWDPF move ligand.pdbqt
DOCKED: USER    NEWDPF about -0.963000 -0.416000 0.212000
DOCKED: USER    NEWDPF tran0 19.467440 -9.666751 -2.976482
DOCKED: USER    NEWDPF quaternion0 -0.280776 -0.789112 0.411839 0.358966
DOCKED: USER    NEWDPF axisangle0 -0.300825 -0.845461 0.441248 137.926606
DOCKED: USER    NEWDPF quat0 -0.300825 -0.845461 0.441248 137.926606
DOCKED: USER    NEWDPF dihe0 55.08 106.65 93.12 -83.92 18.55 -77.66 
DOCKED: USER  keepresnum = 1 
DOCKED: USER  
DOCKED: REMARK  Name = 
DOCKED: REMARK  10 active torsions:
DOCKED: REMARK  status: ('A' for Active; 'I' for Inactive)
DOCKED: REMARK    1  A    between atoms: C_1  and  N_2
DOCKED: REMARK    2  A    between atoms: N_2  and  C_3
DOCKED: REMARK    3  A    between atoms: N_2  and  C_22
DOCKED: REMARK    4  A    between atoms: C_6  and  C_9
DOCKED: REMARK    5  A    between atoms: C_9  and  C_10
DOCKED: REMARK    6  A    between atoms: C_10  and  C_11
DOCKED: REMARK    7  A    between atoms: C_10  and  C_20
DOCKED: REMARK    8  A    between atoms: C_12  and  C_13
DOCKED: REMARK    9  A    between atoms: C_12  and  C_19
DOCKED: REMARK   10  A    between atoms: C_14  and  C_15
DOCKED: REMARK                            x       y       z     vdW  Elec       q    Type
DOCKED: REMARK                         _______ _______ _______ _____ _____    ______ ____
DOCKED: USER                              x       y       z     vdW  Elec       q    Type
DOCKED: USER                           _______ _______ _______ _____ _____    ______ ____
DOCKED: ROOT
DOCKED: ATOM      1  C   UNL     1      20.634 -10.211  -3.927 -0.47 -0.00    +0.000 C 
DOCKED: ATOM      2  C   UNL     1      21.756 -10.815  -4.776 -0.51 -0.00    +0.000 C 
DOCKED: ENDROOT
DOCKED: BRANCH   1   3
DOCKED: ATOM      3  C   UNL     1      20.855 -10.541  -2.464 -0.54 -0.00    +0.000 C 
DOCKED: ATOM      4  C   UNL     1      21.202  -9.647  -1.514 -0.62 -0.00    +0.000 C 
DOCKED: ATOM      5  C   UNL     1      21.396  -8.181  -1.831 -0.50 -0.00    +0.000 C 
DOCKED: BRANCH   4   6
DOCKED: ATOM      6  C   UNL     1      21.345 -10.137  -0.119 -0.71 -0.00    +0.000 C 
DOCKED: ATOM      7  C   UNL     1      20.339 -10.701   0.565 -0.67 -0.00    +0.000 C 
DOCKED: BRANCH   7   8
DOCKED: ATOM      8  C   UNL     1      20.471 -11.195   1.951 -0.74 -0.00    +0.000 C 
DOCKED: ATOM      9  N   UNL     1      20.235 -10.360   3.090 -0.61 -0.00    +0.000 N 
DOCKED: ATOM     10  O   UNL     1      20.267 -10.886   4.336 -0.95 -0.00    +0.000 OA
DOCKED: ATOM     11  O   UNL     1      20.830 -12.390   2.129 -1.70 -0.00    +0.000 OA
DOCKED: ATOM     12  H   UNL     1      20.048  -9.400   2.966 -0.57 -0.00    +0.000 HD
DOCKED: ENDBRANCH   7   8
DOCKED: ENDBRANCH   4   6
DOCKED: ENDBRANCH   1   3
DOCKED: BRANCH   1  13
DOCKED: ATOM     13  C   UNL     1      19.292 -10.736  -4.399 -0.41 -0.00    +0.000 C 
DOCKED: ATOM     14  O   UNL     1      19.254 -11.516  -5.392 -0.49 -0.00    +0.000 OA
DOCKED: BRANCH  13  18
DOCKED: ATOM     15  C   UNL     1      15.566  -9.537  -2.564 -0.21 -0.00    +0.000 A 
DOCKED: ATOM     16  C   UNL     1      15.804  -9.331  -3.937 -0.18 -0.00    +0.000 A 
DOCKED: ATOM     17  C   UNL     1      17.012  -9.720  -4.522 -0.20 -0.00    +0.000 A 
DOCKED: ATOM     18  C   UNL     1      18.014 -10.335  -3.756 -0.24 -0.00    +0.000 A 
DOCKED: ATOM     19  C   UNL     1      17.788 -10.532  -2.382 -0.21 -0.00    +0.000 A 
DOCKED: ATOM     20  C   UNL     1      16.582 -10.142  -1.796 -0.17 -0.00    +0.000 A 
DOCKED: BRANCH  15  22
DOCKED: ATOM     21  C   UNL     1      14.241  -7.929  -1.116 -0.22 -0.00    +0.000 C 
DOCKED: ATOM     22  N   UNL     1      14.311  -9.133  -1.955 -0.19 -0.00    +0.000 N 
DOCKED: ATOM     23  C   UNL     1      13.091  -9.921  -2.167 -0.24 -0.00    +0.000 C 
DOCKED: ENDBRANCH  15  22
DOCKED: ENDBRANCH  13  18
DOCKED: ENDBRANCH   1  13
DOCKED: TORSDOF 6
DOCKED: TER
DOCKED: ENDMDL
________________________________________________________________________________


	BEGINNING GENETIC ALGORITHM DOCKING 95 of 100
Run: 95 Seed: 1861832766 1550433686 [ Run 95 of 100 GA/GALS ]
Beginning LAMARCKIAN GENETIC ALGORITHM (LGA), with a maximum of 2500000 energy evaluations.

Final-Value: -12.640


	FINAL GENETIC ALGORITHM DOCKED STATE
	_______________________________________________


Detailed state:  trans 20.961 -8.632 -3.346 quatxyzw -0.622851 -0.556825 0.504768 0.217282 center -0.963 -0.416 0.212 ntor 6 130.8570 -19.8727 176.3646 -126.6496 69.5604 -180.0000
State:	 20.961  -8.632  -3.346  -0.638 -0.570  0.517 154.901    130.86  -19.87  176.36 -126.65   69.56 -180.00

DOCKED: MODEL       95
DOCKED: USER    Run = 95
DOCKED: USER    DPF = ligand_dock.biased.dpf
DOCKED: USER  
DOCKED: USER    Estimated Free Energy of Binding    =   -9.45 kcal/mol  [=(1)+(2)+(3)-(4)]
DOCKED: USER    Estimated Inhibition Constant, Ki   =  119.20 nM (nanomolar)  [Temperature = 298.15 K]
DOCKED: USER    
DOCKED: USER    (1) Final Intermolecular Energy     =  -11.24 kcal/mol
DOCKED: USER        vdW + Hbond + desolv Energy     =  -11.24 kcal/mol
DOCKED: USER        Electrostatic Energy            =   +0.00 kcal/mol
DOCKED: USER    (2) Final Total Internal Energy     =   -1.40 kcal/mol
DOCKED: USER    (3) Torsional Free Energy           =   +1.79 kcal/mol
DOCKED: USER    (4) Unbound System's Energy  [=(2)] =   -1.40 kcal/mol
DOCKED: USER    
DOCKED: USER    
DOCKED: USER    NEWDPF move ligand.pdbqt
DOCKED: USER    NEWDPF about -0.963000 -0.416000 0.212000
DOCKED: USER    NEWDPF tran0 20.960690 -8.631930 -3.346398
DOCKED: USER    NEWDPF quaternion0 -0.622851 -0.556825 0.504768 0.217282
DOCKED: USER    NEWDPF axisangle0 -0.638096 -0.570454 0.517123 154.901149
DOCKED: USER    NEWDPF quat0 -0.638096 -0.570454 0.517123 154.901149
DOCKED: USER    NEWDPF dihe0 130.86 -19.87 176.36 -126.65 69.56 -180.00 
DOCKED: USER  keepresnum = 1 
DOCKED: USER  
DOCKED: REMARK  Name = 
DOCKED: REMARK  10 active torsions:
DOCKED: REMARK  status: ('A' for Active; 'I' for Inactive)
DOCKED: REMARK    1  A    between atoms: C_1  and  N_2
DOCKED: REMARK    2  A    between atoms: N_2  and  C_3
DOCKED: REMARK    3  A    between atoms: N_2  and  C_22
DOCKED: REMARK    4  A    between atoms: C_6  and  C_9
DOCKED: REMARK    5  A    between atoms: C_9  and  C_10
DOCKED: REMARK    6  A    between atoms: C_10  and  C_11
DOCKED: REMARK    7  A    between atoms: C_10  and  C_20
DOCKED: REMARK    8  A    between atoms: C_12  and  C_13
DOCKED: REMARK    9  A    between atoms: C_12  and  C_19
DOCKED: REMARK   10  A    between atoms: C_14  and  C_15
DOCKED: REMARK                            x       y       z     vdW  Elec       q    Type
DOCKED: REMARK                         _______ _______ _______ _____ _____    ______ ____
DOCKED: USER                              x       y       z     vdW  Elec       q    Type
DOCKED: USER                           _______ _______ _______ _____ _____    ______ ____
DOCKED: ROOT
DOCKED: ATOM      1  C   UNL     1      21.408  -9.954  -4.129 -0.46 -0.00    +0.000 C 
DOCKED: ATOM      2  C   UNL     1      21.767 -11.271  -4.822 -0.54 -0.00    +0.000 C 
DOCKED: ENDROOT
DOCKED: BRANCH   1   3
DOCKED: ATOM      3  C   UNL     1      21.072 -10.208  -2.672 -0.56 -0.00    +0.000 C 
DOCKED: ATOM      4  C   UNL     1      21.065  -9.266  -1.706 -0.58 -0.00    +0.000 C 
DOCKED: ATOM      5  C   UNL     1      21.391  -7.819  -1.999 -0.49 -0.00    +0.000 C 
DOCKED: BRANCH   4   6
DOCKED: ATOM      6  C   UNL     1      20.679  -9.684  -0.333 -0.62 -0.00    +0.000 C 
DOCKED: ATOM      7  C   UNL     1      20.772 -10.951   0.099 -0.65 -0.00    +0.000 C 
DOCKED: BRANCH   7   8
DOCKED: ATOM      8  C   UNL     1      20.394 -11.377   1.462 -0.75 -0.00    +0.000 C 
DOCKED: ATOM      9  N   UNL     1      20.642 -10.567   2.616 -0.61 -0.00    +0.000 N 
DOCKED: ATOM     10  O   UNL     1      20.183 -10.954   3.829 -1.15 -0.00    +0.000 OA
DOCKED: ATOM     11  O   UNL     1      19.856 -12.507   1.609 -1.67 -0.00    +0.000 OA
DOCKED: ATOM     12  H   UNL     1      21.147  -9.725   2.527 -0.58 -0.00    +0.000 HD
DOCKED: ENDBRANCH   7   8
DOCKED: ENDBRANCH   4   6
DOCKED: ENDBRANCH   1   3
DOCKED: BRANCH   1  13
DOCKED: ATOM     13  C   UNL     1      20.243  -9.298  -4.843 -0.28 -0.00    +0.000 C 
DOCKED: ATOM     14  O   UNL     1      20.463  -8.302  -5.588 -0.17 -0.00    +0.000 OA
DOCKED: BRANCH  13  18
DOCKED: ATOM     15  C   UNL     1      16.174 -10.652  -4.288 -0.12 -0.00    +0.000 A 
DOCKED: ATOM     16  C   UNL     1      16.807  -9.828  -3.337 -0.21 -0.00    +0.000 A 
DOCKED: ATOM     17  C   UNL     1      18.122  -9.396  -3.523 -0.14 -0.00    +0.000 A 
DOCKED: ATOM     18  C   UNL     1      18.843  -9.766  -4.670 -0.24 -0.00    +0.000 A 
DOCKED: ATOM     19  C   UNL     1      18.223 -10.598  -5.617 -0.29 -0.00    +0.000 A 
DOCKED: ATOM     20  C   UNL     1      16.907 -11.032  -5.431 -0.21 -0.00    +0.000 A 
DOCKED: BRANCH  15  22
DOCKED: ATOM     21  C   UNL     1      14.260 -11.272  -2.743 -0.34 -0.00    +0.000 C 
DOCKED: ATOM     22  N   UNL     1      14.807 -11.101  -4.096 -0.28 -0.00    +0.000 N 
DOCKED: ATOM     23  C   UNL     1      13.948 -11.392  -5.250 -0.28 -0.00    +0.000 C 
DOCKED: ENDBRANCH  15  22
DOCKED: ENDBRANCH  13  18
DOCKED: ENDBRANCH   1  13
DOCKED: TORSDOF 6
DOCKED: TER
DOCKED: ENDMDL
________________________________________________________________________________


	BEGINNING GENETIC ALGORITHM DOCKING 96 of 100
Run: 96 Seed: 2002581829 518533029 [ Run 96 of 100 GA/GALS ]
Beginning LAMARCKIAN GENETIC ALGORITHM (LGA), with a maximum of 2500000 energy evaluations.

Final-Value: -12.575


	FINAL GENETIC ALGORITHM DOCKED STATE
	_______________________________________________


Detailed state:  trans 21.746 -8.653 -2.778 quatxyzw 0.748758 0.439296 -0.496053 -0.017642 center -0.963 -0.416 0.212 ntor 6 28.6926 -84.7331 138.2424 -21.6379 -153.6425 -82.8502
State:	 21.746  -8.653  -2.778   0.749  0.439 -0.496 -177.978     28.69  -84.73  138.24  -21.64 -153.64  -82.85

DOCKED: MODEL       96
DOCKED: USER    Run = 96
DOCKED: USER    DPF = ligand_dock.biased.dpf
DOCKED: USER  
DOCKED: USER    Estimated Free Energy of Binding    =   -9.65 kcal/mol  [=(1)+(2)+(3)-(4)]
DOCKED: USER    Estimated Inhibition Constant, Ki   =   84.33 nM (nanomolar)  [Temperature = 298.15 K]
DOCKED: USER    
DOCKED: USER    (1) Final Intermolecular Energy     =  -11.44 kcal/mol
DOCKED: USER        vdW + Hbond + desolv Energy     =  -11.44 kcal/mol
DOCKED: USER        Electrostatic Energy            =   +0.00 kcal/mol
DOCKED: USER    (2) Final Total Internal Energy     =   -1.13 kcal/mol
DOCKED: USER    (3) Torsional Free Energy           =   +1.79 kcal/mol
DOCKED: USER    (4) Unbound System's Energy  [=(2)] =   -1.13 kcal/mol
DOCKED: USER    
DOCKED: USER    
DOCKED: USER    NEWDPF move ligand.pdbqt
DOCKED: USER    NEWDPF about -0.963000 -0.416000 0.212000
DOCKED: USER    NEWDPF tran0 21.745737 -8.653379 -2.777762
DOCKED: USER    NEWDPF quaternion0 0.748758 0.439296 -0.496053 -0.017642
DOCKED: USER    NEWDPF axisangle0 0.748875 0.439364 -0.496131 -177.978248
DOCKED: USER    NEWDPF quat0 0.748875 0.439364 -0.496131 -177.978248
DOCKED: USER    NEWDPF dihe0 28.69 -84.73 138.24 -21.64 -153.64 -82.85 
DOCKED: USER  keepresnum = 1 
DOCKED: USER  
DOCKED: REMARK  Name = 
DOCKED: REMARK  10 active torsions:
DOCKED: REMARK  status: ('A' for Active; 'I' for Inactive)
DOCKED: REMARK    1  A    between atoms: C_1  and  N_2
DOCKED: REMARK    2  A    between atoms: N_2  and  C_3
DOCKED: REMARK    3  A    between atoms: N_2  and  C_22
DOCKED: REMARK    4  A    between atoms: C_6  and  C_9
DOCKED: REMARK    5  A    between atoms: C_9  and  C_10
DOCKED: REMARK    6  A    between atoms: C_10  and  C_11
DOCKED: REMARK    7  A    between atoms: C_10  and  C_20
DOCKED: REMARK    8  A    between atoms: C_12  and  C_13
DOCKED: REMARK    9  A    between atoms: C_12  and  C_19
DOCKED: REMARK   10  A    between atoms: C_14  and  C_15
DOCKED: REMARK                            x       y       z     vdW  Elec       q    Type
DOCKED: REMARK                         _______ _______ _______ _____ _____    ______ ____
DOCKED: USER                              x       y       z     vdW  Elec       q    Type
DOCKED: USER                           _______ _______ _______ _____ _____    ______ ____
DOCKED: ROOT
DOCKED: ATOM      1  C   UNL     1      21.530  -9.850  -3.818 -0.44 -0.00    +0.000 C 
DOCKED: ATOM      2  C   UNL     1      21.237 -11.018  -4.763 -0.53 -0.00    +0.000 C 
DOCKED: ENDROOT
DOCKED: BRANCH   1   3
DOCKED: ATOM      3  C   UNL     1      21.092 -10.199  -2.409 -0.57 -0.00    +0.000 C 
DOCKED: ATOM      4  C   UNL     1      19.822 -10.473  -2.040 -0.48 -0.00    +0.000 C 
DOCKED: ATOM      5  C   UNL     1      18.684 -10.470  -3.036 -0.36 -0.00    +0.000 C 
DOCKED: BRANCH   4   6
DOCKED: ATOM      6  C   UNL     1      19.574 -10.828  -0.619 -0.54 -0.00    +0.000 C 
DOCKED: ATOM      7  C   UNL     1      20.554 -11.174   0.230 -0.63 -0.00    +0.000 C 
DOCKED: BRANCH   7   8
DOCKED: ATOM      8  C   UNL     1      20.319 -11.526   1.645 -0.77 -0.00    +0.000 C 
DOCKED: ATOM      9  N   UNL     1      20.588 -10.615   2.718 -0.63 -0.00    +0.000 N 
DOCKED: ATOM     10  O   UNL     1      20.259 -10.946   3.988 -1.14 -0.00    +0.000 OA
DOCKED: ATOM     11  O   UNL     1      19.889 -12.680   1.913 -1.65 -0.00    +0.000 OA
DOCKED: ATOM     12  H   UNL     1      21.013  -9.746   2.530 -0.59 -0.00    +0.000 HD
DOCKED: ENDBRANCH   7   8
DOCKED: ENDBRANCH   4   6
DOCKED: ENDBRANCH   1   3
DOCKED: BRANCH   1  13
DOCKED: ATOM     13  C   UNL     1      20.821  -8.603  -4.308 -0.33 -0.00    +0.000 C 
DOCKED: ATOM     14  O   UNL     1      20.241  -8.628  -5.429 -0.18 -0.00    +0.000 OA
DOCKED: BRANCH  13  18
DOCKED: ATOM     15  C   UNL     1      20.791  -4.896  -2.083 -0.37 -0.00    +0.000 A 
DOCKED: ATOM     16  C   UNL     1      20.056  -5.038  -3.276 -0.16 -0.00    +0.000 A 
DOCKED: ATOM     17  C   UNL     1      20.073  -6.239  -3.990 -0.18 -0.00    +0.000 A 
DOCKED: ATOM     18  C   UNL     1      20.815  -7.337  -3.528 -0.31 -0.00    +0.000 A 
DOCKED: ATOM     19  C   UNL     1      21.560  -7.199  -2.344 -0.35 -0.00    +0.000 A 
DOCKED: ATOM     20  C   UNL     1      21.545  -5.997  -1.631 -0.27 +0.00    +0.000 A 
DOCKED: BRANCH  15  22
DOCKED: ATOM     21  C   UNL     1      22.028  -3.026  -0.897 -0.35 +0.00    +0.000 C 
DOCKED: ATOM     22  N   UNL     1      20.774  -3.648  -1.340 -0.35 -0.00    +0.000 N 
DOCKED: ATOM     23  C   UNL     1      19.503  -2.988  -1.020 -0.26 -0.00    +0.000 C 
DOCKED: ENDBRANCH  15  22
DOCKED: ENDBRANCH  13  18
DOCKED: ENDBRANCH   1  13
DOCKED: TORSDOF 6
DOCKED: TER
DOCKED: ENDMDL
________________________________________________________________________________


	BEGINNING GENETIC ALGORITHM DOCKING 97 of 100
Run: 97 Seed: 1678656834 1121097987 [ Run 97 of 100 GA/GALS ]
Beginning LAMARCKIAN GENETIC ALGORITHM (LGA), with a maximum of 2500000 energy evaluations.

Final-Value: -12.012


	FINAL GENETIC ALGORITHM DOCKED STATE
	_______________________________________________


Detailed state:  trans 19.797 -9.127 -3.005 quatxyzw 0.537660 -0.630502 0.413775 0.377066 center -0.963 -0.416 0.212 ntor 6 -81.8173 110.3737 145.4181 49.1173 -22.1517 -86.4770
State:	 19.797  -9.127  -3.005   0.581 -0.681  0.447 135.696    -81.82  110.37  145.42   49.12  -22.15  -86.48

DOCKED: MODEL       97
DOCKED: USER    Run = 97
DOCKED: USER    DPF = ligand_dock.biased.dpf
DOCKED: USER  
DOCKED: USER    Estimated Free Energy of Binding    =   -8.96 kcal/mol  [=(1)+(2)+(3)-(4)]
DOCKED: USER    Estimated Inhibition Constant, Ki   =  270.02 nM (nanomolar)  [Temperature = 298.15 K]
DOCKED: USER    
DOCKED: USER    (1) Final Intermolecular Energy     =  -10.75 kcal/mol
DOCKED: USER        vdW + Hbond + desolv Energy     =  -10.75 kcal/mol
DOCKED: USER        Electrostatic Energy            =   +0.00 kcal/mol
DOCKED: USER    (2) Final Total Internal Energy     =   -1.26 kcal/mol
DOCKED: USER    (3) Torsional Free Energy           =   +1.79 kcal/mol
DOCKED: USER    (4) Unbound System's Energy  [=(2)] =   -1.26 kcal/mol
DOCKED: USER    
DOCKED: USER    
DOCKED: USER    NEWDPF move ligand.pdbqt
DOCKED: USER    NEWDPF about -0.963000 -0.416000 0.212000
DOCKED: USER    NEWDPF tran0 19.797040 -9.127466 -3.005331
DOCKED: USER    NEWDPF quaternion0 0.537660 -0.630502 0.413775 0.377066
DOCKED: USER    NEWDPF axisangle0 0.580509 -0.680751 0.446751 135.695884
DOCKED: USER    NEWDPF quat0 0.580509 -0.680751 0.446751 135.695884
DOCKED: USER    NEWDPF dihe0 -81.82 110.37 145.42 49.12 -22.15 -86.48 
DOCKED: USER  keepresnum = 1 
DOCKED: USER  
DOCKED: REMARK  Name = 
DOCKED: REMARK  10 active torsions:
DOCKED: REMARK  status: ('A' for Active; 'I' for Inactive)
DOCKED: REMARK    1  A    between atoms: C_1  and  N_2
DOCKED: REMARK    2  A    between atoms: N_2  and  C_3
DOCKED: REMARK    3  A    between atoms: N_2  and  C_22
DOCKED: REMARK    4  A    between atoms: C_6  and  C_9
DOCKED: REMARK    5  A    between atoms: C_9  and  C_10
DOCKED: REMARK    6  A    between atoms: C_10  and  C_11
DOCKED: REMARK    7  A    between atoms: C_10  and  C_20
DOCKED: REMARK    8  A    between atoms: C_12  and  C_13
DOCKED: REMARK    9  A    between atoms: C_12  and  C_19
DOCKED: REMARK   10  A    between atoms: C_14  and  C_15
DOCKED: REMARK                            x       y       z     vdW  Elec       q    Type
DOCKED: REMARK                         _______ _______ _______ _____ _____    ______ ____
DOCKED: USER                              x       y       z     vdW  Elec       q    Type
DOCKED: USER                           _______ _______ _______ _____ _____    ______ ____
DOCKED: ROOT
DOCKED: ATOM      1  C   UNL     1      20.566  -9.187  -4.407 -0.34 -0.00    +0.000 C 
DOCKED: ATOM      2  C   UNL     1      21.378  -9.192  -5.705 -0.28 -0.00    +0.000 C 
DOCKED: ENDROOT
DOCKED: BRANCH   1   3
DOCKED: ATOM      3  C   UNL     1      20.776  -7.880  -3.668 -0.35 -0.00    +0.000 C 
DOCKED: ATOM      4  C   UNL     1      20.315  -6.679  -4.076 -0.24 -0.00    +0.000 C 
DOCKED: ATOM      5  C   UNL     1      19.509  -6.523  -5.346 -0.13 -0.00    +0.000 C 
DOCKED: BRANCH   4   6
DOCKED: ATOM      6  C   UNL     1      20.585  -5.502  -3.210 -0.29 -0.00    +0.000 C 
DOCKED: ATOM      7  C   UNL     1      21.120  -5.604  -1.984 -0.46 -0.00    +0.000 C 
DOCKED: BRANCH   7   8
DOCKED: ATOM      8  C   UNL     1      21.395  -4.441  -1.115 -0.35 +0.00    +0.000 C 
DOCKED: ATOM      9  N   UNL     1      20.452  -3.964  -0.148 -0.38 +0.00    +0.000 N 
DOCKED: ATOM     10  O   UNL     1      20.792  -2.961   0.694 -1.06 +0.00    +0.000 OA
DOCKED: ATOM     11  O   UNL     1      22.492  -3.837  -1.254 -0.84 +0.00    +0.000 OA
DOCKED: ATOM     12  H   UNL     1      19.555  -4.367  -0.096 -0.07 +0.00    +0.000 HD
DOCKED: ENDBRANCH   7   8
DOCKED: ENDBRANCH   4   6
DOCKED: ENDBRANCH   1   3
DOCKED: BRANCH   1  13
DOCKED: ATOM     13  C   UNL     1      20.971 -10.365  -3.543 -0.52 -0.00    +0.000 C 
DOCKED: ATOM     14  O   UNL     1      21.703 -11.266  -4.040 -0.57 -0.00    +0.000 OA
DOCKED: BRANCH  13  18
DOCKED: ATOM     15  C   UNL     1      19.671 -10.804   0.557 -0.54 -0.00    +0.000 A 
DOCKED: ATOM     16  C   UNL     1      20.983 -10.397   0.245 -0.62 -0.00    +0.000 A 
DOCKED: ATOM     17  C   UNL     1      21.396 -10.259  -1.082 -0.59 -0.00    +0.000 A 
DOCKED: ATOM     18  C   UNL     1      20.507 -10.513  -2.139 -0.47 -0.00    +0.000 A 
DOCKED: ATOM     19  C   UNL     1      19.200 -10.931  -1.836 -0.38 -0.00    +0.000 A 
DOCKED: ATOM     20  C   UNL     1      18.787 -11.071  -0.508 -0.42 -0.00    +0.000 A 
DOCKED: BRANCH  15  22
DOCKED: ATOM     21  C   UNL     1      18.142 -10.129   2.466 -0.54 -0.00    +0.000 C 
DOCKED: ATOM     22  N   UNL     1      19.242 -10.947   1.936 -0.55 -0.00    +0.000 N 
DOCKED: ATOM     23  C   UNL     1      19.899 -11.912   2.826 -0.75 -0.00    +0.000 C 
DOCKED: ENDBRANCH  15  22
DOCKED: ENDBRANCH  13  18
DOCKED: ENDBRANCH   1  13
DOCKED: TORSDOF 6
DOCKED: TER
DOCKED: ENDMDL
________________________________________________________________________________


	BEGINNING GENETIC ALGORITHM DOCKING 98 of 100
Run: 98 Seed: 1387651971 488632549 [ Run 98 of 100 GA/GALS ]
Beginning LAMARCKIAN GENETIC ALGORITHM (LGA), with a maximum of 2500000 energy evaluations.

Final-Value: -11.632


	FINAL GENETIC ALGORITHM DOCKED STATE
	_______________________________________________


Detailed state:  trans 21.944 -8.442 -3.893 quatxyzw -0.738719 -0.101554 0.417479 -0.519319 center -0.963 -0.416 0.212 ntor 6 -170.7737 154.2947 46.0031 68.8921 37.4347 -177.8268
State:	 21.944  -8.442  -3.893  -0.864 -0.119  0.489 -117.427   -170.77  154.29   46.00   68.89   37.43 -177.83

DOCKED: MODEL       98
DOCKED: USER    Run = 98
DOCKED: USER    DPF = ligand_dock.biased.dpf
DOCKED: USER  
DOCKED: USER    Estimated Free Energy of Binding    =   -8.54 kcal/mol  [=(1)+(2)+(3)-(4)]
DOCKED: USER    Estimated Inhibition Constant, Ki   =  553.98 nM (nanomolar)  [Temperature = 298.15 K]
DOCKED: USER    
DOCKED: USER    (1) Final Intermolecular Energy     =  -10.33 kcal/mol
DOCKED: USER        vdW + Hbond + desolv Energy     =  -10.33 kcal/mol
DOCKED: USER        Electrostatic Energy            =   +0.00 kcal/mol
DOCKED: USER    (2) Final Total Internal Energy     =   -1.31 kcal/mol
DOCKED: USER    (3) Torsional Free Energy           =   +1.79 kcal/mol
DOCKED: USER    (4) Unbound System's Energy  [=(2)] =   -1.31 kcal/mol
DOCKED: USER    
DOCKED: USER    
DOCKED: USER    NEWDPF move ligand.pdbqt
DOCKED: USER    NEWDPF about -0.963000 -0.416000 0.212000
DOCKED: USER    NEWDPF tran0 21.943798 -8.442365 -3.893391
DOCKED: USER    NEWDPF quaternion0 -0.738719 -0.101554 0.417479 -0.519319
DOCKED: USER    NEWDPF axisangle0 -0.864423 -0.118835 0.488519 -117.426787
DOCKED: USER    NEWDPF quat0 -0.864423 -0.118835 0.488519 -117.426787
DOCKED: USER    NEWDPF dihe0 -170.77 154.29 46.00 68.89 37.43 -177.83 
DOCKED: USER  keepresnum = 1 
DOCKED: USER  
DOCKED: REMARK  Name = 
DOCKED: REMARK  10 active torsions:
DOCKED: REMARK  status: ('A' for Active; 'I' for Inactive)
DOCKED: REMARK    1  A    between atoms: C_1  and  N_2
DOCKED: REMARK    2  A    between atoms: N_2  and  C_3
DOCKED: REMARK    3  A    between atoms: N_2  and  C_22
DOCKED: REMARK    4  A    between atoms: C_6  and  C_9
DOCKED: REMARK    5  A    between atoms: C_9  and  C_10
DOCKED: REMARK    6  A    between atoms: C_10  and  C_11
DOCKED: REMARK    7  A    between atoms: C_10  and  C_20
DOCKED: REMARK    8  A    between atoms: C_12  and  C_13
DOCKED: REMARK    9  A    between atoms: C_12  and  C_19
DOCKED: REMARK   10  A    between atoms: C_14  and  C_15
DOCKED: REMARK                            x       y       z     vdW  Elec       q    Type
DOCKED: REMARK                         _______ _______ _______ _____ _____    ______ ____
DOCKED: USER                              x       y       z     vdW  Elec       q    Type
DOCKED: USER                           _______ _______ _______ _____ _____    ______ ____
DOCKED: ROOT
DOCKED: ATOM      1  C   UNL     1      20.760  -8.046  -4.894 -0.25 -0.00    +0.000 C 
DOCKED: ATOM      2  C   UNL     1      19.571  -7.643  -5.770 -0.13 -0.00    +0.000 C 
DOCKED: ENDROOT
DOCKED: BRANCH   1   3
DOCKED: ATOM      3  C   UNL     1      20.268  -8.701  -3.618 -0.35 -0.00    +0.000 C 
DOCKED: ATOM      4  C   UNL     1      20.701  -9.888  -3.143 -0.50 -0.00    +0.000 C 
DOCKED: ATOM      5  C   UNL     1      21.764 -10.694  -3.857 -0.47 -0.00    +0.000 C 
DOCKED: BRANCH   4   6
DOCKED: ATOM      6  C   UNL     1      20.134 -10.369  -1.857 -0.52 -0.00    +0.000 C 
DOCKED: ATOM      7  C   UNL     1      20.830 -10.382  -0.710 -0.66 -0.00    +0.000 C 
DOCKED: BRANCH   7   8
DOCKED: ATOM      8  C   UNL     1      20.274 -10.855   0.575 -0.68 -0.00    +0.000 C 
DOCKED: ATOM      9  N   UNL     1      21.015 -11.693   1.470 -0.71 -0.00    +0.000 N 
DOCKED: ATOM     10  O   UNL     1      20.502 -12.013   2.681 -1.83 -0.00    +0.000 OA
DOCKED: ATOM     11  O   UNL     1      19.096 -10.524   0.876 -0.58 -0.00    +0.000 OA
DOCKED: ATOM     12  H   UNL     1      21.899 -12.036   1.204 -0.53 -0.00    +0.000 HD
DOCKED: ENDBRANCH   7   8
DOCKED: ENDBRANCH   4   6
DOCKED: ENDBRANCH   1   3
DOCKED: BRANCH   1  13
DOCKED: ATOM     13  C   UNL     1      21.604  -6.827  -4.581 -0.24 -0.00    +0.000 C 
DOCKED: ATOM     14  O   UNL     1      22.683  -6.649  -5.213 -0.21 -0.00    +0.000 OA
DOCKED: BRANCH  13  18
DOCKED: ATOM     15  C   UNL     1      20.485  -3.947  -1.556 -0.34 -0.00    +0.000 A 
DOCKED: ATOM     16  C   UNL     1      19.976  -3.866  -2.867 -0.19 -0.00    +0.000 A 
DOCKED: ATOM     17  C   UNL     1      20.344  -4.800  -3.838 -0.17 -0.00    +0.000 A 
DOCKED: ATOM     18  C   UNL     1      21.223  -5.849  -3.528 -0.27 -0.00    +0.000 A 
DOCKED: ATOM     19  C   UNL     1      21.745  -5.929  -2.226 -0.39 -0.00    +0.000 A 
DOCKED: ATOM     20  C   UNL     1      21.379  -4.994  -1.254 -0.29 +0.00    +0.000 A 
DOCKED: BRANCH  15  22
DOCKED: ATOM     21  C   UNL     1      18.787  -2.328  -0.592 -0.20 -0.00    +0.000 C 
DOCKED: ATOM     22  N   UNL     1      20.103  -2.977  -0.545 -0.35 -0.00    +0.000 N 
DOCKED: ATOM     23  C   UNL     1      21.027  -2.629   0.541 -0.47 +0.00    +0.000 C 
DOCKED: ENDBRANCH  15  22
DOCKED: ENDBRANCH  13  18
DOCKED: ENDBRANCH   1  13
DOCKED: TORSDOF 6
DOCKED: TER
DOCKED: ENDMDL
________________________________________________________________________________


	BEGINNING GENETIC ALGORITHM DOCKING 99 of 100
Run: 99 Seed: 106132468 1210843804 [ Run 99 of 100 GA/GALS ]
Beginning LAMARCKIAN GENETIC ALGORITHM (LGA), with a maximum of 2500000 energy evaluations.

Final-Value: -12.595


	FINAL GENETIC ALGORITHM DOCKED STATE
	_______________________________________________


Detailed state:  trans 18.788 -10.383 -3.715 quatxyzw 0.102146 0.753898 -0.255924 -0.596412 center -0.963 -0.416 0.212 ntor 6 60.5979 -21.6644 -161.5747 89.7104 -30.8703 -27.5490
State:	 18.788 -10.383  -3.715   0.127  0.939 -0.319 -106.773     60.60  -21.66 -161.57   89.71  -30.87  -27.55

DOCKED: MODEL       99
DOCKED: USER    Run = 99
DOCKED: USER    DPF = ligand_dock.biased.dpf
DOCKED: USER  
DOCKED: USER    Estimated Free Energy of Binding    =   -9.82 kcal/mol  [=(1)+(2)+(3)-(4)]
DOCKED: USER    Estimated Inhibition Constant, Ki   =   63.83 nM (nanomolar)  [Temperature = 298.15 K]
DOCKED: USER    
DOCKED: USER    (1) Final Intermolecular Energy     =  -11.61 kcal/mol
DOCKED: USER        vdW + Hbond + desolv Energy     =  -11.61 kcal/mol
DOCKED: USER        Electrostatic Energy            =   +0.00 kcal/mol
DOCKED: USER    (2) Final Total Internal Energy     =   -0.99 kcal/mol
DOCKED: USER    (3) Torsional Free Energy           =   +1.79 kcal/mol
DOCKED: USER    (4) Unbound System's Energy  [=(2)] =   -0.99 kcal/mol
DOCKED: USER    
DOCKED: USER    
DOCKED: USER    NEWDPF move ligand.pdbqt
DOCKED: USER    NEWDPF about -0.963000 -0.416000 0.212000
DOCKED: USER    NEWDPF tran0 18.788158 -10.383180 -3.715226
DOCKED: USER    NEWDPF quaternion0 0.102146 0.753898 -0.255924 -0.596412
DOCKED: USER    NEWDPF axisangle0 0.127257 0.939228 -0.318837 -106.773252
DOCKED: USER    NEWDPF quat0 0.127257 0.939228 -0.318837 -106.773252
DOCKED: USER    NEWDPF dihe0 60.60 -21.66 -161.57 89.71 -30.87 -27.55 
DOCKED: USER  keepresnum = 1 
DOCKED: USER  
DOCKED: REMARK  Name = 
DOCKED: REMARK  10 active torsions:
DOCKED: REMARK  status: ('A' for Active; 'I' for Inactive)
DOCKED: REMARK    1  A    between atoms: C_1  and  N_2
DOCKED: REMARK    2  A    between atoms: N_2  and  C_3
DOCKED: REMARK    3  A    between atoms: N_2  and  C_22
DOCKED: REMARK    4  A    between atoms: C_6  and  C_9
DOCKED: REMARK    5  A    between atoms: C_9  and  C_10
DOCKED: REMARK    6  A    between atoms: C_10  and  C_11
DOCKED: REMARK    7  A    between atoms: C_10  and  C_20
DOCKED: REMARK    8  A    between atoms: C_12  and  C_13
DOCKED: REMARK    9  A    between atoms: C_12  and  C_19
DOCKED: REMARK   10  A    between atoms: C_14  and  C_15
DOCKED: REMARK                            x       y       z     vdW  Elec       q    Type
DOCKED: REMARK                         _______ _______ _______ _____ _____    ______ ____
DOCKED: USER                              x       y       z     vdW  Elec       q    Type
DOCKED: USER                           _______ _______ _______ _____ _____    ______ ____
DOCKED: ROOT
DOCKED: ATOM      1  C   UNL     1      20.304 -10.151  -4.174 -0.42 -0.00    +0.000 C 
DOCKED: ATOM      2  C   UNL     1      21.781  -9.998  -4.544 -0.41 -0.00    +0.000 C 
DOCKED: ENDROOT
DOCKED: BRANCH   1   3
DOCKED: ATOM      3  C   UNL     1      20.162 -10.387  -2.683 -0.49 -0.00    +0.000 C 
DOCKED: ATOM      4  C   UNL     1      20.563  -9.527  -1.724 -0.53 -0.00    +0.000 C 
DOCKED: ATOM      5  C   UNL     1      21.201  -8.198  -2.059 -0.49 -0.00    +0.000 C 
DOCKED: BRANCH   4   6
DOCKED: ATOM      6  C   UNL     1      20.318  -9.905  -0.308 -0.57 -0.00    +0.000 C 
DOCKED: ATOM      7  C   UNL     1      20.568 -11.131   0.176 -0.62 -0.00    +0.000 C 
DOCKED: BRANCH   7   8
DOCKED: ATOM      8  C   UNL     1      20.330 -11.516   1.583 -0.77 -0.00    +0.000 C 
DOCKED: ATOM      9  N   UNL     1      20.610 -10.635   2.678 -0.63 -0.00    +0.000 N 
DOCKED: ATOM     10  O   UNL     1      20.278 -10.995   3.939 -1.17 -0.00    +0.000 OA
DOCKED: ATOM     11  O   UNL     1      19.888 -12.671   1.821 -1.65 -0.00    +0.000 OA
DOCKED: ATOM     12  H   UNL     1      21.044  -9.767   2.512 -0.60 -0.00    +0.000 HD
DOCKED: ENDBRANCH   7   8
DOCKED: ENDBRANCH   4   6
DOCKED: ENDBRANCH   1   3
DOCKED: BRANCH   1  13
DOCKED: ATOM     13  C   UNL     1      19.693 -11.295  -4.960 -0.49 -0.00    +0.000 C 
DOCKED: ATOM     14  O   UNL     1      20.301 -12.401  -5.005 -0.84 -0.00    +0.000 OA
DOCKED: BRANCH  13  18
DOCKED: ATOM     15  C   UNL     1      15.956 -10.884  -7.095 -0.23 -0.00    +0.000 A 
DOCKED: ATOM     16  C   UNL     1      16.014 -10.763  -5.693 -0.23 -0.00    +0.000 A 
DOCKED: ATOM     17  C   UNL     1      17.225 -10.898  -5.011 -0.17 -0.00    +0.000 A 
DOCKED: ATOM     18  C   UNL     1      18.417 -11.149  -5.708 -0.34 -0.00    +0.000 A 
DOCKED: ATOM     19  C   UNL     1      18.365 -11.284  -7.107 -0.31 -0.00    +0.000 A 
DOCKED: ATOM     20  C   UNL     1      17.153 -11.150  -7.790 -0.29 -0.00    +0.000 A 
DOCKED: BRANCH  15  22
DOCKED: ATOM     21  C   UNL     1      13.939 -11.930  -8.225 -0.21 -0.00    +0.000 C 
DOCKED: ATOM     22  N   UNL     1      14.697 -10.743  -7.805 -0.13 -0.00    +0.000 N 
DOCKED: ATOM     23  C   UNL     1      14.160  -9.413  -8.115 -0.06 -0.00    +0.000 C 
DOCKED: ENDBRANCH  15  22
DOCKED: ENDBRANCH  13  18
DOCKED: ENDBRANCH   1  13
DOCKED: TORSDOF 6
DOCKED: TER
DOCKED: ENDMDL
________________________________________________________________________________


	BEGINNING GENETIC ALGORITHM DOCKING 100 of 100
Run: 100 Seed: 1602785683 1431830407 [ Run 100 of 100 GA/GALS ]
Beginning LAMARCKIAN GENETIC ALGORITHM (LGA), with a maximum of 2500000 energy evaluations.

Final-Value: -12.480


	FINAL GENETIC ALGORITHM DOCKED STATE
	_______________________________________________


Detailed state:  trans 21.449 -9.042 -4.221 quatxyzw 0.671407 0.478014 -0.515092 -0.235360 center -0.963 -0.416 0.212 ntor 6 -180.0000 -170.3958 -169.2025 -135.9227 81.2362 157.3892
State:	 21.449  -9.042  -4.221   0.691  0.492 -0.530 -152.774   -180.00 -170.40 -169.20 -135.92   81.24  157.39

DOCKED: MODEL      100
DOCKED: USER    Run = 100
DOCKED: USER    DPF = ligand_dock.biased.dpf
DOCKED: USER  
DOCKED: USER    Estimated Free Energy of Binding    =   -9.43 kcal/mol  [=(1)+(2)+(3)-(4)]
DOCKED: USER    Estimated Inhibition Constant, Ki   =  122.86 nM (nanomolar)  [Temperature = 298.15 K]
DOCKED: USER    
DOCKED: USER    (1) Final Intermolecular Energy     =  -11.22 kcal/mol
DOCKED: USER        vdW + Hbond + desolv Energy     =  -11.22 kcal/mol
DOCKED: USER        Electrostatic Energy            =   +0.00 kcal/mol
DOCKED: USER    (2) Final Total Internal Energy     =   -1.26 kcal/mol
DOCKED: USER    (3) Torsional Free Energy           =   +1.79 kcal/mol
DOCKED: USER    (4) Unbound System's Energy  [=(2)] =   -1.26 kcal/mol
DOCKED: USER    
DOCKED: USER    
DOCKED: USER    NEWDPF move ligand.pdbqt
DOCKED: USER    NEWDPF about -0.963000 -0.416000 0.212000
DOCKED: USER    NEWDPF tran0 21.448815 -9.041916 -4.221381
DOCKED: USER    NEWDPF quaternion0 0.671407 0.478014 -0.515092 -0.235360
DOCKED: USER    NEWDPF axisangle0 0.690814 0.491831 -0.529980 -152.774260
DOCKED: USER    NEWDPF quat0 0.690814 0.491831 -0.529980 -152.774260
DOCKED: USER    NEWDPF dihe0 -180.00 -170.40 -169.20 -135.92 81.24 157.39 
DOCKED: USER  keepresnum = 1 
DOCKED: USER  
DOCKED: REMARK  Name = 
DOCKED: REMARK  10 active torsions:
DOCKED: REMARK  status: ('A' for Active; 'I' for Inactive)
DOCKED: REMARK    1  A    between atoms: C_1  and  N_2
DOCKED: REMARK    2  A    between atoms: N_2  and  C_3
DOCKED: REMARK    3  A    between atoms: N_2  and  C_22
DOCKED: REMARK    4  A    between atoms: C_6  and  C_9
DOCKED: REMARK    5  A    between atoms: C_9  and  C_10
DOCKED: REMARK    6  A    between atoms: C_10  and  C_11
DOCKED: REMARK    7  A    between atoms: C_10  and  C_20
DOCKED: REMARK    8  A    between atoms: C_12  and  C_13
DOCKED: REMARK    9  A    between atoms: C_12  and  C_19
DOCKED: REMARK   10  A    between atoms: C_14  and  C_15
DOCKED: REMARK                            x       y       z     vdW  Elec       q    Type
DOCKED: REMARK                         _______ _______ _______ _____ _____    ______ ____
DOCKED: USER                              x       y       z     vdW  Elec       q    Type
DOCKED: USER                           _______ _______ _______ _____ _____    ______ ____
DOCKED: ROOT
DOCKED: ATOM      1  C   UNL     1      21.768 -10.483  -4.840 -0.47 -0.00    +0.000 C 
DOCKED: ATOM      2  C   UNL     1      21.993 -11.897  -5.381 -0.56 -0.00    +0.000 C 
DOCKED: ENDROOT
DOCKED: BRANCH   1   3
DOCKED: ATOM      3  C   UNL     1      21.278 -10.545  -3.407 -0.53 -0.00    +0.000 C 
DOCKED: ATOM      4  C   UNL     1      21.115  -9.476  -2.600 -0.53 -0.00    +0.000 C 
DOCKED: ATOM      5  C   UNL     1      21.402  -8.068  -3.071 -0.42 -0.00    +0.000 C 
DOCKED: BRANCH   4   6
DOCKED: ATOM      6  C   UNL     1      20.593  -9.716  -1.229 -0.58 -0.00    +0.000 C 
DOCKED: ATOM      7  C   UNL     1      20.931 -10.786  -0.495 -0.62 -0.00    +0.000 C 
DOCKED: BRANCH   7   8
DOCKED: ATOM      8  C   UNL     1      20.421 -11.033   0.870 -0.71 -0.00    +0.000 C 
DOCKED: ATOM      9  N   UNL     1      20.661 -12.259   1.569 -0.68 -0.00    +0.000 N 
DOCKED: ATOM     10  O   UNL     1      20.263 -12.396   2.855 -1.78 -0.00    +0.000 OA
DOCKED: ATOM     11  O   UNL     1      19.730 -10.135   1.422 -0.66 -0.00    +0.000 OA
DOCKED: ATOM     12  H   UNL     1      21.118 -13.004   1.114 -0.50 -0.00    +0.000 HD
DOCKED: ENDBRANCH   7   8
DOCKED: ENDBRANCH   4   6
DOCKED: ENDBRANCH   1   3
DOCKED: BRANCH   1  13
DOCKED: ATOM     13  C   UNL     1      20.772  -9.750  -5.717 -0.30 -0.00    +0.000 C 
DOCKED: ATOM     14  O   UNL     1      21.083  -8.619  -6.185 -0.18 -0.00    +0.000 OA
DOCKED: BRANCH  13  18
DOCKED: ATOM     15  C   UNL     1      16.848 -11.367  -6.543 -0.31 -0.00    +0.000 A 
DOCKED: ATOM     16  C   UNL     1      17.188 -10.893  -5.261 -0.22 -0.00    +0.000 A 
DOCKED: ATOM     17  C   UNL     1      18.459 -10.373  -5.003 -0.27 -0.00    +0.000 A 
DOCKED: ATOM     18  C   UNL     1      19.425 -10.302  -6.018 -0.27 -0.00    +0.000 A 
DOCKED: ATOM     19  C   UNL     1      19.097 -10.786  -7.297 -0.28 -0.00    +0.000 A 
DOCKED: ATOM     20  C   UNL     1      17.827 -11.307  -7.556 -0.30 -0.00    +0.000 A 
DOCKED: BRANCH  15  22
DOCKED: ATOM     21  C   UNL     1      14.393 -11.579  -5.940 -0.30 -0.00    +0.000 C 
DOCKED: ATOM     22  N   UNL     1      15.527 -11.908  -6.813 -0.32 -0.00    +0.000 N 
DOCKED: ATOM     23  C   UNL     1      15.304 -12.791  -7.964 -0.44 +0.00    +0.000 C 
DOCKED: ENDBRANCH  15  22
DOCKED: ENDBRANCH  13  18
DOCKED: ENDBRANCH   1  13
DOCKED: TORSDOF 6
DOCKED: TER
DOCKED: ENDMDL
________________________________________________________________________________

DPF>                           # do this many hybrid GA-LS runs

DPF> analysis                             # perform a ranked cluster analysis


		CLUSTER ANALYSIS OF CONFORMATIONS
		_________________________________

Number of conformations = 100

RMSD cluster analysis will be performed using the ligand atoms only (23 / 23 total atoms).

Outputting structurally similar clusters, ranked in order of increasing energy.


________________________________________________________________________________

Number of distinct conformational clusters found = 15,  out of 100 runs,
Using an rmsd-tolerance of 2.0 A


	CLUSTERING HISTOGRAM
	____________________

________________________________________________________________________________
     |           |     |           |     |                                    
Clus | Lowest    | Run | Mean      | Num | Histogram                          
-ter | Binding   |     | Binding   | in  |                                    
Rank | Energy    |     | Energy    | Clus|    5    10   15   20   25   30   35
_____|___________|_____|___________|_____|____:____|____:____|____:____|____:___
   1 |    -10.94 |  83 |    -10.18 |  16 |################
   2 |    -10.57 |   4 |    -10.16 |   3 |###
   3 |    -10.13 |  34 |     -9.64 |  34 |##################################
   4 |     -9.96 |  79 |     -9.52 |   7 |#######
   5 |     -9.89 |  27 |     -9.47 |  15 |###############
   6 |     -9.62 |  15 |     -9.41 |   3 |###
   7 |     -9.62 |  35 |     -9.44 |  11 |###########
   8 |     -9.37 |  90 |     -9.37 |   1 |#
   9 |     -9.24 |  93 |     -9.24 |   1 |#
  10 |     -9.16 |  56 |     -9.16 |   1 |#
  11 |     -8.96 |  97 |     -8.96 |   2 |##
  12 |     -8.87 |   2 |     -8.70 |   2 |##
  13 |     -8.58 |  43 |     -8.58 |   1 |#
  14 |     -8.54 |   5 |     -8.43 |   2 |##
  15 |     -8.35 |  92 |     -8.35 |   1 |#
_____|___________|_____|___________|_____|______________________________________


Number of multi-member conformational clusters found = 10, out of 100 runs.

	RMSD TABLE
	__________

_____________________________________________________________________
     |      |      |           |         |                 |
Rank | Sub- | Run  | Binding   | Cluster | Reference       | Grep
     | Rank |      | Energy    | RMSD    | RMSD            | Pattern
_____|______|______|___________|_________|_________________|___________
   1      1     83      -10.94      0.00     20.99           RANKING
   1      2     76      -10.84      0.47     21.08           RANKING
   1      3     84      -10.63      0.58     21.02           RANKING
   1      4     22      -10.51      0.68     20.86           RANKING
   1      5      6      -10.44      0.88     20.77           RANKING
   1      6     37      -10.41      0.91     20.97           RANKING
   1      7      9      -10.40      0.54     20.90           RANKING
   1      8      1      -10.39      0.85     20.85           RANKING
   1      9     36      -10.32      0.90     21.02           RANKING
   1     10     61      -10.31      0.87     20.82           RANKING
   1     11     29       -9.88      0.87     20.70           RANKING
   1     12     77       -9.80      1.36     21.41           RANKING
   1     13     41       -9.69      1.49     20.06           RANKING
   1     14     49       -9.49      1.67     20.72           RANKING
   1     15     13       -9.48      1.22     20.94           RANKING
   1     16     58       -9.39      1.47     20.48           RANKING
   2      1      4      -10.57      0.00     17.18           RANKING
   2      2     10      -10.49      1.19     17.35           RANKING
   2      3      8       -9.41      1.08     17.37           RANKING
   3      1     34      -10.13      0.00     18.86           RANKING
   3      2     74      -10.10      0.26     18.79           RANKING
   3      3     45      -10.07      0.59     18.97           RANKING
   3      4     64      -10.05      0.50     18.94           RANKING
   3      5     89      -10.03      0.36     18.93           RANKING
   3      6     40      -10.02      1.32     18.80           RANKING
   3      7     71       -9.99      1.44     18.63           RANKING
   3      8      3       -9.98      0.53     18.98           RANKING
   3      9     66       -9.96      0.79     18.97           RANKING
   3     10     99       -9.82      1.54     18.77           RANKING
   3     11     21       -9.81      0.79     18.98           RANKING
   3     12     75       -9.78      0.74     18.58           RANKING
   3     13     91       -9.77      1.60     18.94           RANKING
   3     14     25       -9.73      1.33     18.56           RANKING
   3     15     38       -9.71      0.82     18.81           RANKING
   3     16     54       -9.64      1.67     19.08           RANKING
   3     17     28       -9.60      1.86     18.09           RANKING
   3     18     82       -9.59      1.44     18.33           RANKING
   3     19     30       -9.57      1.37     18.47           RANKING
   3     20     59       -9.55      1.61     18.28           RANKING
   3     21     46       -9.52      1.80     18.29           RANKING
   3     22     31       -9.49      1.72     18.21           RANKING
   3     23     60       -9.48      1.88     18.06           RANKING
   3     24     17       -9.48      0.88     18.81           RANKING
   3     25     95       -9.45      1.01     18.51           RANKING
   3     26     14       -9.44      1.05     18.59           RANKING
   3     27    100       -9.43      1.36     19.26           RANKING
   3     28     62       -9.43      1.81     18.27           RANKING
   3     29     48       -9.38      1.67     18.29           RANKING
   3     30     65       -9.24      1.27     19.25           RANKING
   3     31     72       -9.17      1.76     18.49           RANKING
   3     32     53       -9.17      1.21     18.51           RANKING
   3     33     51       -9.07      1.40     18.44           RANKING
   3     34     67       -9.05      1.68     18.46           RANKING
   4      1     79       -9.96      0.00     18.51           RANKING
   4      2     52       -9.90      0.93     18.78           RANKING
   4      3     63       -9.79      1.44     18.74           RANKING
   4      4     80       -9.67      1.79     18.84           RANKING
   4      5     18       -9.64      1.18     18.81           RANKING
   4      6     78       -9.16      1.44     18.84           RANKING
   4      7     98       -8.54      1.84     18.65           RANKING
   5      1     27       -9.89      0.00     19.15           RANKING
   5      2     57       -9.83      0.77     18.80           RANKING
   5      3     11       -9.81      0.15     19.14           RANKING
   5      4     24       -9.72      0.23     19.18           RANKING
   5      5     96       -9.65      0.87     18.76           RANKING
   5      6     85       -9.64      1.00     18.74           RANKING
   5      7     86       -9.61      0.87     18.77           RANKING
   5      8     68       -9.57      0.93     18.72           RANKING
   5      9     42       -9.53      0.53     19.11           RANKING
   5     10     20       -9.52      0.63     19.11           RANKING
   5     11     70       -9.49      0.50     19.08           RANKING
   5     12     19       -9.36      1.04     18.73           RANKING
   5     13     39       -9.32      0.51     18.97           RANKING
   5     14     16       -8.59      1.82     19.25           RANKING
   5     15     50       -8.51      1.76     18.60           RANKING
   6      1     15       -9.62      0.00     15.49           RANKING
   6      2     88       -9.43      0.99     15.27           RANKING
   6      3     12       -9.18      0.97     15.19           RANKING
   7      1     35       -9.62      0.00     17.76           RANKING
   7      2     69       -9.61      1.33     18.17           RANKING
   7      3     94       -9.53      1.42     18.02           RANKING
   7      4     73       -9.51      1.26     18.07           RANKING
   7      5     44       -9.49      1.40     18.10           RANKING
   7      6     87       -9.46      1.60     18.09           RANKING
   7      7      7       -9.39      1.64     18.05           RANKING
   7      8     23       -9.37      1.75     18.03           RANKING
   7      9     26       -9.35      1.81     18.03           RANKING
   7     10     81       -9.34      1.80     18.10           RANKING
   7     11     33       -9.17      1.56     17.25           RANKING
   8      1     90       -9.37      0.00     19.31           RANKING
   9      1     93       -9.24      0.00     18.16           RANKING
  10      1     56       -9.16      0.00     17.99           RANKING
  11      1     97       -8.96      0.00     18.64           RANKING
  11      2     47       -8.96      0.46     18.81           RANKING
  12      1      2       -8.87      0.00     16.01           RANKING
  12      2     32       -8.53      1.21     15.65           RANKING
  13      1     43       -8.58      0.00     16.39           RANKING
  14      1      5       -8.54      0.00     17.39           RANKING
  14      2     55       -8.32      0.87     16.97           RANKING
  15      1     92       -8.35      0.00     16.61           RANKING
_______________________________________________________________________



	INFORMATION ENTROPY ANALYSIS FOR THIS CLUSTERING
	________________________________________________


Information entropy for this clustering = 0.44  (rmstol = 2.00 Angstrom)

_______________________________________________________________________


	STATISTICAL MECHANICAL ANALYSIS
	_______________________________


Partition function, Q =   101.63            at Temperature, T = 298.15 K
Free energy,        A ~ -2738.06 kcal/mol   at Temperature, T = 298.15 K
Internal energy,    U =    -9.59 kcal/mol   at Temperature, T = 298.15 K
Entropy,            S =     9.15 kcal/mol/K at Temperature, T = 298.15 K

_______________________________________________________________________


	LOWEST ENERGY DOCKED CONFORMATION from EACH CLUSTER
	___________________________________________________



Keeping original residue number (specified in the input PDBQ file) for outputting.

MODEL       83
USER    Run = 83
USER    Cluster Rank = 1
USER    Number of conformations in this cluster = 16
USER  
USER    RMSD from reference structure       = 20.987 A
USER  
USER    Estimated Free Energy of Binding    =  -10.94 kcal/mol  [=(1)+(2)+(3)-(4)]
USER    Estimated Inhibition Constant, Ki   =    9.65 nM (nanomolar)  [Temperature = 298.15 K]
USER    
USER    (1) Final Intermolecular Energy     =  -12.72 kcal/mol
USER        vdW + Hbond + desolv Energy     =  -12.72 kcal/mol
USER        Electrostatic Energy            =   +0.00 kcal/mol
USER    (2) Final Total Internal Energy     =   -0.96 kcal/mol
USER    (3) Torsional Free Energy           =   +1.79 kcal/mol
USER    (4) Unbound System's Energy  [=(2)] =   -0.96 kcal/mol
USER    
USER    
USER  
USER    DPF = ligand_dock.biased.dpf
USER    NEWDPF move	ligand.pdbqt
USER    NEWDPF about	-0.963000 -0.416000 0.212000
USER    NEWDPF tran0	19.319081 -10.607240 -3.460586
USER    NEWDPF axisangle0	-0.036181 0.994439 -0.098902 -105.778645
USER    NEWDPF quaternion0	-0.028853 0.793037 -0.078871 -0.603357
USER    NEWDPF dihe0	87.94 59.17 109.99 62.65 -37.03 106.16 
USER  
USER                              x       y       z    vdW   Elec        q     RMS 
ATOM      1  C   UNL     1      20.561  -9.719  -3.940 -0.41 -0.00    +0.000    20.987
ATOM      2  C   UNL     1      21.808  -8.927  -4.341 -0.28 -0.00    +0.000    20.987
ATOM      3  C   UNL     1      20.666 -10.158  -2.493 -0.54 -0.00    +0.000    20.987
ATOM      4  C   UNL     1      20.889  -9.331  -1.449 -0.58 -0.00    +0.000    20.987
ATOM      5  C   UNL     1      21.047  -7.838  -1.633 -0.43 -0.00    +0.000    20.987
ATOM      6  C   UNL     1      20.930  -9.927  -0.089 -0.68 -0.00    +0.000    20.987
ATOM      7  C   UNL     1      20.048 -10.845   0.334 -0.64 -0.00    +0.000    20.987
ATOM      8  C   UNL     1      20.082 -11.447   1.683 -0.75 -0.00    +0.000    20.987
ATOM      9  N   UNL     1      20.349 -10.677   2.861 -0.67 -0.00    +0.000    20.987
ATOM     10  O   UNL     1      20.266 -11.254   4.082 -1.15 -0.00    +0.000    20.987
ATOM     11  O   UNL     1      19.892 -12.688   1.790 -1.64 -0.00    +0.000    20.987
ATOM     12  H   UNL     1      20.593  -9.726   2.782 -0.57 -0.00    +0.000    20.987
ATOM     13  C   UNL     1      20.396 -10.917  -4.854 -0.48 -0.00    +0.000    20.987
ATOM     14  O   UNL     1      19.398 -11.675  -4.697 -0.53 -0.00    +0.000    20.987
ATOM     15  C   UNL     1      23.246 -11.877  -7.960 -0.42 -0.00    +0.000    20.987
ATOM     16  C   UNL     1      22.136 -11.049  -8.217 -0.27 -0.00    +0.000    20.987
ATOM     17  C   UNL     1      21.219 -10.745  -7.208 -0.25 -0.00    +0.000    20.987
ATOM     18  C   UNL     1      21.388 -11.250  -5.910 -0.40 -0.00    +0.000    20.987
ATOM     19  C   UNL     1      22.486 -12.088  -5.649 -0.46 -0.00    +0.000    20.987
ATOM     20  C   UNL     1      23.403 -12.394  -6.658 -0.39 -0.00    +0.000    20.987
ATOM     21  C   UNL     1      23.831 -13.098 -10.106 -0.38 -0.00    +0.000    20.987
ATOM     22  N   UNL     1      24.200 -12.194  -9.008 -0.37 -0.00    +0.000    20.987
ATOM     23  C   UNL     1      25.549 -11.617  -8.989 -0.41 -0.00    +0.000    20.987
TER
ENDMDL
MODEL        4
USER    Run = 4
USER    Cluster Rank = 2
USER    Number of conformations in this cluster = 3
USER  
USER    RMSD from reference structure       = 17.179 A
USER  
USER    Estimated Free Energy of Binding    =  -10.57 kcal/mol  [=(1)+(2)+(3)-(4)]
USER    Estimated Inhibition Constant, Ki   =   17.77 nM (nanomolar)  [Temperature = 298.15 K]
USER    
USER    (1) Final Intermolecular Energy     =  -12.36 kcal/mol
USER        vdW + Hbond + desolv Energy     =  -12.36 kcal/mol
USER        Electrostatic Energy            =   +0.00 kcal/mol
USER    (2) Final Total Internal Energy     =   -0.86 kcal/mol
USER    (3) Torsional Free Energy           =   +1.79 kcal/mol
USER    (4) Unbound System's Energy  [=(2)] =   -0.86 kcal/mol
USER    
USER    
USER  
USER    DPF = ligand_dock.biased.dpf
USER    NEWDPF move	ligand.pdbqt
USER    NEWDPF about	-0.963000 -0.416000 0.212000
USER    NEWDPF tran0	18.912012 -11.384662 2.988687
USER    NEWDPF axisangle0	0.913982 -0.387442 -0.120523 170.686603
USER    NEWDPF quaternion0	0.910965 -0.386163 -0.120125 0.081185
USER    NEWDPF dihe0	-65.20 -126.49 -33.17 -85.82 -25.33 150.70 
USER  
USER                              x       y       z    vdW   Elec        q     RMS 
ATOM      1  C   UNL     1      17.983 -11.782   1.748 -0.45 +0.00    +0.000    17.179
ATOM      2  C   UNL     1      17.090 -12.064   0.537 -0.51 +0.00    +0.000    17.179
ATOM      3  C   UNL     1      17.591 -10.465   2.388 -0.51 +0.00    +0.000    17.179
ATOM      4  C   UNL     1      16.415 -10.227   3.007 -0.47 +0.00    +0.000    17.179
ATOM      5  C   UNL     1      15.350 -11.292   3.135 -0.54 +0.00    +0.000    17.179
ATOM      6  C   UNL     1      16.209  -8.884   3.610 -0.31 +0.00    +0.000    17.179
ATOM      7  C   UNL     1      15.039  -8.491   4.135 -0.39 +0.00    +0.000    17.179
ATOM      8  C   UNL     1      14.823  -7.160   4.740 -0.44 +0.00    +0.000    17.179
ATOM      9  N   UNL     1      13.980  -6.962   5.880 -0.46 +0.00    +0.000    17.179
ATOM     10  O   UNL     1      13.897  -5.742   6.460 -1.12 +0.00    +0.000    17.179
ATOM     11  O   UNL     1      15.387  -6.164   4.212 -0.47 +0.00    +0.000    17.179
ATOM     12  H   UNL     1      13.459  -7.716   6.243 -0.04 +0.00    +0.000    17.179
ATOM     13  C   UNL     1      19.437 -11.760   1.321 -0.69 -0.00    +0.000    17.179
ATOM     14  O   UNL     1      20.288 -12.389   2.011 -1.86 -0.00    +0.000    17.179
ATOM     15  C   UNL     1      20.808  -9.496  -2.097 -0.49 -0.00    +0.000    17.179
ATOM     16  C   UNL     1      21.306  -9.241  -0.804 -0.54 -0.00    +0.000    17.179
ATOM     17  C   UNL     1      20.856  -9.977   0.295 -0.58 -0.00    +0.000    17.179
ATOM     18  C   UNL     1      19.904 -10.995   0.135 -0.55 -0.00    +0.000    17.179
ATOM     19  C   UNL     1      19.393 -11.246  -1.150 -0.36 -0.00    +0.000    17.179
ATOM     20  C   UNL     1      19.841 -10.510  -2.250 -0.42 -0.00    +0.000    17.179
ATOM     21  C   UNL     1      21.618  -9.406  -4.499 -0.37 -0.00    +0.000    17.179
ATOM     22  N   UNL     1      21.274  -8.732  -3.240 -0.41 -0.00    +0.000    17.179
ATOM     23  C   UNL     1      21.410  -7.273  -3.158 -0.40 -0.00    +0.000    17.179
TER
ENDMDL
MODEL       34
USER    Run = 34
USER    Cluster Rank = 3
USER    Number of conformations in this cluster = 34
USER  
USER    RMSD from reference structure       = 18.858 A
USER  
USER    Estimated Free Energy of Binding    =  -10.13 kcal/mol  [=(1)+(2)+(3)-(4)]
USER    Estimated Inhibition Constant, Ki   =   37.85 nM (nanomolar)  [Temperature = 298.15 K]
USER    
USER    (1) Final Intermolecular Energy     =  -11.92 kcal/mol
USER        vdW + Hbond + desolv Energy     =  -11.92 kcal/mol
USER        Electrostatic Energy            =   +0.00 kcal/mol
USER    (2) Final Total Internal Energy     =   -1.08 kcal/mol
USER    (3) Torsional Free Energy           =   +1.79 kcal/mol
USER    (4) Unbound System's Energy  [=(2)] =   -1.08 kcal/mol
USER    
USER    
USER  
USER    DPF = ligand_dock.biased.dpf
USER    NEWDPF move	ligand.pdbqt
USER    NEWDPF about	-0.963000 -0.416000 0.212000
USER    NEWDPF tran0	21.231418 -8.762721 -3.078152
USER    NEWDPF axisangle0	-0.595939 -0.590855 0.543826 166.036479
USER    NEWDPF quaternion0	-0.591520 -0.586473 0.539794 0.121553
USER    NEWDPF dihe0	168.85 57.87 96.42 -99.19 82.62 135.27 
USER  
USER                              x       y       z    vdW   Elec        q     RMS 
ATOM      1  C   UNL     1      21.455 -10.013  -4.051 -0.47 -0.00    +0.000    18.858
ATOM      2  C   UNL     1      21.610 -11.264  -4.920 -0.55 -0.00    +0.000    18.858
ATOM      3  C   UNL     1      21.392 -10.401  -2.587 -0.56 -0.00    +0.000    18.858
ATOM      4  C   UNL     1      21.367  -9.529  -1.557 -0.60 -0.00    +0.000    18.858
ATOM      5  C   UNL     1      21.388  -8.033  -1.778 -0.49 -0.00    +0.000    18.858
ATOM      6  C   UNL     1      21.272 -10.082  -0.182 -0.71 -0.00    +0.000    18.858
ATOM      7  C   UNL     1      20.275 -10.888   0.215 -0.66 -0.00    +0.000    18.858
ATOM      8  C   UNL     1      20.172 -11.447   1.578 -0.75 -0.00    +0.000    18.858
ATOM      9  N   UNL     1      20.482 -10.680   2.748 -0.65 -0.00    +0.000    18.858
ATOM     10  O   UNL     1      20.272 -11.204   3.978 -1.19 -0.00    +0.000    18.858
ATOM     11  O   UNL     1      19.820 -12.650   1.708 -1.63 -0.00    +0.000    18.858
ATOM     12  H   UNL     1      20.849  -9.770   2.656 -0.59 -0.00    +0.000    18.858
ATOM     13  C   UNL     1      20.208  -9.254  -4.460 -0.31 -0.00    +0.000    18.858
ATOM     14  O   UNL     1      20.187  -7.997  -4.334 -0.24 -0.00    +0.000    18.858
ATOM     15  C   UNL     1      16.662 -11.263  -5.903 -0.27 -0.00    +0.000    18.858
ATOM     16  C   UNL     1      16.707 -10.692  -4.616 -0.11 -0.00    +0.000    18.858
ATOM     17  C   UNL     1      17.857 -10.046  -4.157 -0.25 -0.00    +0.000    18.858
ATOM     18  C   UNL     1      18.994  -9.942  -4.973 -0.25 -0.00    +0.000    18.858
ATOM     19  C   UNL     1      18.962 -10.519  -6.254 -0.29 -0.00    +0.000    18.858
ATOM     20  C   UNL     1      17.812 -11.167  -6.713 -0.33 -0.00    +0.000    18.858
ATOM     21  C   UNL     1      14.212 -11.858  -5.620 -0.30 -0.00    +0.000    18.858
ATOM     22  N   UNL     1      15.467 -11.934  -6.381 -0.31 -0.00    +0.000    18.858
ATOM     23  C   UNL     1      15.491 -12.701  -7.632 -0.41 -0.00    +0.000    18.858
TER
ENDMDL
MODEL       79
USER    Run = 79
USER    Cluster Rank = 4
USER    Number of conformations in this cluster = 7
USER  
USER    RMSD from reference structure       = 18.511 A
USER  
USER    Estimated Free Energy of Binding    =   -9.96 kcal/mol  [=(1)+(2)+(3)-(4)]
USER    Estimated Inhibition Constant, Ki   =   50.21 nM (nanomolar)  [Temperature = 298.15 K]
USER    
USER    (1) Final Intermolecular Energy     =  -11.75 kcal/mol
USER        vdW + Hbond + desolv Energy     =  -11.75 kcal/mol
USER        Electrostatic Energy            =   +0.00 kcal/mol
USER    (2) Final Total Internal Energy     =   -1.04 kcal/mol
USER    (3) Torsional Free Energy           =   +1.79 kcal/mol
USER    (4) Unbound System's Energy  [=(2)] =   -1.04 kcal/mol
USER    
USER    
USER  
USER    DPF = ligand_dock.biased.dpf
USER    NEWDPF move	ligand.pdbqt
USER    NEWDPF about	-0.963000 -0.416000 0.212000
USER    NEWDPF tran0	22.627665 -7.055224 -2.211628
USER    NEWDPF axisangle0	0.821511 0.146969 -0.550926 119.676371
USER    NEWDPF quaternion0	0.710287 0.127071 -0.476336 0.502444
USER    NEWDPF dihe0	56.51 -7.28 -29.75 -47.61 0.96 179.60 
USER  
USER                              x       y       z    vdW   Elec        q     RMS 
ATOM      1  C   UNL     1      21.327  -6.793  -3.107 -0.39 -0.00    +0.000    18.511
ATOM      2  C   UNL     1      20.032  -6.527  -3.878 -0.21 -0.00    +0.000    18.511
ATOM      3  C   UNL     1      21.022  -7.514  -1.809 -0.41 -0.00    +0.000    18.511
ATOM      4  C   UNL     1      21.022  -8.855  -1.651 -0.55 -0.00    +0.000    18.511
ATOM      5  C   UNL     1      21.352  -9.793  -2.791 -0.53 -0.00    +0.000    18.511
ATOM      6  C   UNL     1      20.731  -9.394  -0.298 -0.57 -0.00    +0.000    18.511
ATOM      7  C   UNL     1      20.643 -10.707  -0.037 -0.67 -0.00    +0.000    18.511
ATOM      8  C   UNL     1      20.358 -11.254   1.306 -0.74 -0.00    +0.000    18.511
ATOM      9  N   UNL     1      20.654 -10.533   2.508 -0.59 -0.00    +0.000    18.511
ATOM     10  O   UNL     1      20.278 -11.032   3.708 -1.24 -0.00    +0.000    18.511
ATOM     11  O   UNL     1      19.858 -12.407   1.389 -1.64 -0.00    +0.000    18.511
ATOM     12  H   UNL     1      21.131  -9.672   2.460 -0.57 -0.00    +0.000    18.511
ATOM     13  C   UNL     1      22.045  -5.485  -2.839 -0.34 -0.00    +0.000    18.511
ATOM     14  O   UNL     1      23.070  -5.198  -3.520 -0.18 -0.00    +0.000    18.511
ATOM     15  C   UNL     1      20.812  -2.738   0.263 -0.40 +0.00    +0.000    18.511
ATOM     16  C   UNL     1      22.123  -2.718  -0.252 -0.27 +0.00    +0.000    18.511
ATOM     17  C   UNL     1      22.513  -3.610  -1.254 -0.19 +0.00    +0.000    18.511
ATOM     18  C   UNL     1      21.604  -4.543  -1.778 -0.38 +0.00    +0.000    18.511
ATOM     19  C   UNL     1      20.298  -4.576  -1.260 -0.33 -0.00    +0.000    18.511
ATOM     20  C   UNL     1      19.907  -3.685  -0.257 -0.23 +0.00    +0.000    18.511
ATOM     21  C   UNL     1      20.285  -2.257   2.698 -0.68 -0.00    +0.000    18.511
ATOM     22  N   UNL     1      20.405  -1.810   1.303 -0.39 -0.00    +0.000    18.511
ATOM     23  C   UNL     1      20.106  -0.410   0.980 -0.23 -0.00    +0.000    18.511
TER
ENDMDL
MODEL       27
USER    Run = 27
USER    Cluster Rank = 5
USER    Number of conformations in this cluster = 15
USER  
USER    RMSD from reference structure       = 19.151 A
USER  
USER    Estimated Free Energy of Binding    =   -9.89 kcal/mol  [=(1)+(2)+(3)-(4)]
USER    Estimated Inhibition Constant, Ki   =   55.91 nM (nanomolar)  [Temperature = 298.15 K]
USER    
USER    (1) Final Intermolecular Energy     =  -11.68 kcal/mol
USER        vdW + Hbond + desolv Energy     =  -11.68 kcal/mol
USER        Electrostatic Energy            =   +0.00 kcal/mol
USER    (2) Final Total Internal Energy     =   -1.14 kcal/mol
USER    (3) Torsional Free Energy           =   +1.79 kcal/mol
USER    (4) Unbound System's Energy  [=(2)] =   -1.14 kcal/mol
USER    
USER    
USER  
USER    DPF = ligand_dock.biased.dpf
USER    NEWDPF move	ligand.pdbqt
USER    NEWDPF about	-0.963000 -0.416000 0.212000
USER    NEWDPF tran0	21.831070 -9.043203 -2.858332
USER    NEWDPF axisangle0	0.761347 0.404084 -0.507018 175.465762
USER    NEWDPF quaternion0	0.760751 0.403768 -0.506621 0.039558
USER    NEWDPF dihe0	100.95 -101.09 165.49 93.58 -156.47 -70.48 
USER  
USER                              x       y       z    vdW   Elec        q     RMS 
ATOM      1  C   UNL     1      21.419 -10.158  -3.930 -0.49 -0.00    +0.000    19.151
ATOM      2  C   UNL     1      20.939 -11.239  -4.901 -0.54 -0.00    +0.000    19.151
ATOM      3  C   UNL     1      21.013 -10.514  -2.513 -0.56 -0.00    +0.000    19.151
ATOM      4  C   UNL     1      19.740 -10.598  -2.072 -0.47 -0.00    +0.000    19.151
ATOM      5  C   UNL     1      18.561 -10.348  -2.986 -0.33 -0.00    +0.000    19.151
ATOM      6  C   UNL     1      19.521 -10.992  -0.657 -0.52 -0.00    +0.000    19.151
ATOM      7  C   UNL     1      20.508 -11.038   0.251 -0.66 -0.00    +0.000    19.151
ATOM      8  C   UNL     1      20.301 -11.425   1.661 -0.76 -0.00    +0.000    19.151
ATOM      9  N   UNL     1      20.575 -10.536   2.750 -0.62 -0.00    +0.000    19.151
ATOM     10  O   UNL     1      20.270 -10.900   4.017 -1.13 -0.00    +0.000    19.151
ATOM     11  O   UNL     1      19.892 -12.591   1.908 -1.70 -0.00    +0.000    19.151
ATOM     12  H   UNL     1      20.985  -9.657   2.576 -0.57 -0.00    +0.000    19.151
ATOM     13  C   UNL     1      20.844  -8.814  -4.332 -0.34 -0.00    +0.000    19.151
ATOM     14  O   UNL     1      20.017  -8.762  -5.285 -0.19 -0.00    +0.000    19.151
ATOM     15  C   UNL     1      21.979  -5.142  -2.352 -0.35 -0.00    +0.000    19.151
ATOM     16  C   UNL     1      21.382  -6.202  -1.641 -0.31 +0.00    +0.000    19.151
ATOM     17  C   UNL     1      21.018  -7.385  -2.289 -0.39 -0.00    +0.000    19.151
ATOM     18  C   UNL     1      21.246  -7.549  -3.664 -0.32 -0.00    +0.000    19.151
ATOM     19  C   UNL     1      21.829  -6.491  -4.382 -0.21 -0.00    +0.000    19.151
ATOM     20  C   UNL     1      22.193  -5.307  -3.735 -0.21 -0.00    +0.000    19.151
ATOM     21  C   UNL     1      21.357  -3.111  -0.964 -0.37 -0.00    +0.000    19.151
ATOM     22  N   UNL     1      22.359  -3.913  -1.679 -0.32 +0.00    +0.000    19.151
ATOM     23  C   UNL     1      23.751  -3.449  -1.702 -0.33 +0.00    +0.000    19.151
TER
ENDMDL
MODEL       15
USER    Run = 15
USER    Cluster Rank = 6
USER    Number of conformations in this cluster = 3
USER  
USER    RMSD from reference structure       = 15.487 A
USER  
USER    Estimated Free Energy of Binding    =   -9.62 kcal/mol  [=(1)+(2)+(3)-(4)]
USER    Estimated Inhibition Constant, Ki   =   88.85 nM (nanomolar)  [Temperature = 298.15 K]
USER    
USER    (1) Final Intermolecular Energy     =  -11.41 kcal/mol
USER        vdW + Hbond + desolv Energy     =  -11.41 kcal/mol
USER        Electrostatic Energy            =   +0.00 kcal/mol
USER    (2) Final Total Internal Energy     =   -1.19 kcal/mol
USER    (3) Torsional Free Energy           =   +1.79 kcal/mol
USER    (4) Unbound System's Energy  [=(2)] =   -1.19 kcal/mol
USER    
USER    
USER  
USER    DPF = ligand_dock.biased.dpf
USER    NEWDPF move	ligand.pdbqt
USER    NEWDPF about	-0.963000 -0.416000 0.212000
USER    NEWDPF tran0	14.855620 -6.631346 3.790407
USER    NEWDPF axisangle0	-0.118066 0.145795 -0.982245 126.949113
USER    NEWDPF quaternion0	-0.105638 0.130448 -0.878850 0.446595
USER    NEWDPF dihe0	-158.77 -88.35 -119.13 18.07 -0.23 -85.58 
USER  
USER                              x       y       z    vdW   Elec        q     RMS 
ATOM      1  C   UNL     1      14.120  -7.610   4.821 -0.40 +0.00    +0.000    15.487
ATOM      2  C   UNL     1      13.507  -8.573   5.841 -0.51 +0.00    +0.000    15.487
ATOM      3  C   UNL     1      15.417  -8.179   4.281 -0.31 +0.00    +0.000    15.487
ATOM      4  C   UNL     1      15.523  -8.950   3.179 -0.39 +0.00    +0.000    15.487
ATOM      5  C   UNL     1      14.317  -9.320   2.344 -0.28 +0.00    +0.000    15.487
ATOM      6  C   UNL     1      16.881  -9.397   2.773 -0.40 +0.00    +0.000    15.487
ATOM      7  C   UNL     1      17.456 -10.513   3.246 -0.43 +0.00    +0.000    15.487
ATOM      8  C   UNL     1      18.803 -10.968   2.847 -0.62 -0.00    +0.000    15.487
ATOM      9  N   UNL     1      19.009 -12.078   1.965 -0.57 -0.00    +0.000    15.487
ATOM     10  O   UNL     1      20.258 -12.390   1.547 -1.71 -0.00    +0.000    15.487
ATOM     11  O   UNL     1      19.803 -10.368   3.323 -0.80 -0.00    +0.000    15.487
ATOM     12  H   UNL     1      18.241 -12.615   1.662 -0.05 +0.00    +0.000    15.487
ATOM     13  C   UNL     1      14.353  -6.258   5.465 -0.46 +0.00    +0.000    15.487
ATOM     14  O   UNL     1      13.868  -6.033   6.610 -1.11 +0.00    +0.000    15.487
ATOM     15  C   UNL     1      16.547  -3.080   3.522 -0.42 -0.00    +0.000    15.487
ATOM     16  C   UNL     1      16.767  -3.398   4.876 -0.40 -0.00    +0.000    15.487
ATOM     17  C   UNL     1      16.053  -4.426   5.497 -0.36 -0.00    +0.000    15.487
ATOM     18  C   UNL     1      15.104  -5.173   4.782 -0.40 +0.00    +0.000    15.487
ATOM     19  C   UNL     1      14.870  -4.853   3.433 -0.28 -0.00    +0.000    15.487
ATOM     20  C   UNL     1      15.583  -3.824   2.812 -0.23 -0.00    +0.000    15.487
ATOM     21  C   UNL     1      18.728  -1.847   3.123 -0.53 -0.00    +0.000    15.487
ATOM     22  N   UNL     1      17.289  -2.012   2.876 -0.43 -0.00    +0.000    15.487
ATOM     23  C   UNL     1      16.614  -1.080   1.965 -0.31 -0.00    +0.000    15.487
TER
ENDMDL
MODEL       35
USER    Run = 35
USER    Cluster Rank = 7
USER    Number of conformations in this cluster = 11
USER  
USER    RMSD from reference structure       = 17.759 A
USER  
USER    Estimated Free Energy of Binding    =   -9.62 kcal/mol  [=(1)+(2)+(3)-(4)]
USER    Estimated Inhibition Constant, Ki   =   89.44 nM (nanomolar)  [Temperature = 298.15 K]
USER    
USER    (1) Final Intermolecular Energy     =  -11.41 kcal/mol
USER        vdW + Hbond + desolv Energy     =  -11.41 kcal/mol
USER        Electrostatic Energy            =   +0.00 kcal/mol
USER    (2) Final Total Internal Energy     =   -1.21 kcal/mol
USER    (3) Torsional Free Energy           =   +1.79 kcal/mol
USER    (4) Unbound System's Energy  [=(2)] =   -1.21 kcal/mol
USER    
USER    
USER  
USER    DPF = ligand_dock.biased.dpf
USER    NEWDPF move	ligand.pdbqt
USER    NEWDPF about	-0.963000 -0.416000 0.212000
USER    NEWDPF tran0	19.696383 -9.122204 -2.910873
USER    NEWDPF axisangle0	-0.496043 -0.607100 0.620783 173.911028
USER    NEWDPF quaternion0	-0.495343 -0.606243 0.619906 0.053111
USER    NEWDPF dihe0	122.76 121.92 94.54 22.51 52.51 -177.33 
USER  
USER                              x       y       z    vdW   Elec        q     RMS 
ATOM      1  C   UNL     1      19.694 -10.383  -3.896 -0.41 -0.00    +0.000    17.759
ATOM      2  C   UNL     1      19.654 -11.645  -4.763 -0.50 -0.00    +0.000    17.759
ATOM      3  C   UNL     1      20.061 -10.742  -2.470 -0.46 -0.00    +0.000    17.759
ATOM      4  C   UNL     1      20.820  -9.982  -1.653 -0.60 -0.00    +0.000    17.759
ATOM      5  C   UNL     1      21.383  -8.650  -2.097 -0.51 -0.00    +0.000    17.759
ATOM      6  C   UNL     1      21.056 -10.472  -0.270 -0.70 -0.00    +0.000    17.759
ATOM      7  C   UNL     1      20.062 -10.719   0.597 -0.65 -0.00    +0.000    17.759
ATOM      8  C   UNL     1      20.285 -11.209   1.973 -0.76 -0.00    +0.000    17.759
ATOM      9  N   UNL     1      20.166 -10.359   3.119 -0.62 -0.00    +0.000    17.759
ATOM     10  O   UNL     1      20.277 -10.879   4.364 -0.93 -0.00    +0.000    17.759
ATOM     11  O   UNL     1      20.614 -12.415   2.133 -1.81 -0.00    +0.000    17.759
ATOM     12  H   UNL     1      20.003  -9.394   3.002 -0.57 -0.00    +0.000    17.759
ATOM     13  C   UNL     1      18.350  -9.683  -3.945 -0.27 -0.00    +0.000    17.759
ATOM     14  O   UNL     1      18.215  -8.664  -4.680 -0.20 -0.00    +0.000    17.759
ATOM     15  C   UNL     1      14.948 -10.975  -1.610 -0.29 -0.00    +0.000    17.759
ATOM     16  C   UNL     1      14.831 -10.713  -2.989 -0.26 -0.00    +0.000    17.759
ATOM     17  C   UNL     1      15.935 -10.295  -3.736 -0.21 -0.00    +0.000    17.759
ATOM     18  C   UNL     1      17.192 -10.135  -3.130 -0.23 -0.00    +0.000    17.759
ATOM     19  C   UNL     1      17.313 -10.382  -1.752 -0.12 -0.00    +0.000    17.759
ATOM     20  C   UNL     1      16.209 -10.799  -1.004 -0.28 -0.00    +0.000    17.759
ATOM     21  C   UNL     1      12.463 -10.876  -1.113 -0.26 +0.00    +0.000    17.759
ATOM     22  N   UNL     1      13.802 -11.410  -0.832 -0.34 +0.00    +0.000    17.759
ATOM     23  C   UNL     1      13.961 -12.391   0.248 -0.44 +0.00    +0.000    17.759
TER
ENDMDL
MODEL       90
USER    Run = 90
USER    Cluster Rank = 8
USER    Number of conformations in this cluster = 1
USER  
USER    RMSD from reference structure       = 19.308 A
USER  
USER    Estimated Free Energy of Binding    =   -9.37 kcal/mol  [=(1)+(2)+(3)-(4)]
USER    Estimated Inhibition Constant, Ki   =  135.76 nM (nanomolar)  [Temperature = 298.15 K]
USER    
USER    (1) Final Intermolecular Energy     =  -11.16 kcal/mol
USER        vdW + Hbond + desolv Energy     =  -11.16 kcal/mol
USER        Electrostatic Energy            =   +0.00 kcal/mol
USER    (2) Final Total Internal Energy     =   -1.09 kcal/mol
USER    (3) Torsional Free Energy           =   +1.79 kcal/mol
USER    (4) Unbound System's Energy  [=(2)] =   -1.09 kcal/mol
USER    
USER    
USER  
USER    DPF = ligand_dock.biased.dpf
USER    NEWDPF move	ligand.pdbqt
USER    NEWDPF about	-0.963000 -0.416000 0.212000
USER    NEWDPF tran0	19.754966 -9.506429 -3.018690
USER    NEWDPF axisangle0	0.395996 0.780875 -0.483136 -142.012352
USER    NEWDPF quaternion0	0.374436 0.738360 -0.456831 -0.325466
USER    NEWDPF dihe0	-168.83 73.68 94.15 125.03 35.71 50.64 
USER  
USER                              x       y       z    vdW   Elec        q     RMS 
ATOM      1  C   UNL     1      20.791 -10.338  -3.911 -0.49 -0.00    +0.000    19.308
ATOM      2  C   UNL     1      21.766 -11.213  -4.703 -0.52 -0.00    +0.000    19.308
ATOM      3  C   UNL     1      20.881 -10.665  -2.434 -0.49 -0.00    +0.000    19.308
ATOM      4  C   UNL     1      21.082  -9.759  -1.453 -0.63 -0.00    +0.000    19.308
ATOM      5  C   UNL     1      21.228  -8.283  -1.747 -0.50 -0.00    +0.000    19.308
ATOM      6  C   UNL     1      21.111 -10.251  -0.051 -0.70 -0.00    +0.000    19.308
ATOM      7  C   UNL     1      20.080 -10.890   0.521 -0.66 -0.00    +0.000    19.308
ATOM      8  C   UNL     1      20.099 -11.386   1.913 -0.76 -0.00    +0.000    19.308
ATOM      9  N   UNL     1      20.369 -10.530   3.029 -0.67 -0.00    +0.000    19.308
ATOM     10  O   UNL     1      20.272 -11.009   4.291 -1.00 -0.00    +0.000    19.308
ATOM     11  O   UNL     1      19.894 -12.612   2.115 -1.68 -0.00    +0.000    19.308
ATOM     12  H   UNL     1      20.624  -9.590   2.878 -0.58 -0.00    +0.000    19.308
ATOM     13  C   UNL     1      19.379 -10.548  -4.423 -0.39 -0.00    +0.000    19.308
ATOM     14  O   UNL     1      18.471 -10.865  -3.604 -0.33 -0.00    +0.000    19.308
ATOM     15  C   UNL     1      18.393 -10.150  -8.614 -0.18 -0.00    +0.000    19.308
ATOM     16  C   UNL     1      19.458  -9.428  -8.042 -0.14 -0.00    +0.000    19.308
ATOM     17  C   UNL     1      19.770  -9.561  -6.686 -0.18 -0.00    +0.000    19.308
ATOM     18  C   UNL     1      19.033 -10.427  -5.863 -0.28 -0.00    +0.000    19.308
ATOM     19  C   UNL     1      17.960 -11.142  -6.424 -0.34 -0.00    +0.000    19.308
ATOM     20  C   UNL     1      17.648 -11.008  -7.780 -0.28 -0.00    +0.000    19.308
ATOM     21  C   UNL     1      19.123  -9.736 -11.008 -0.11 -0.00    +0.000    19.308
ATOM     22  N   UNL     1      18.069 -10.013 -10.023 -0.13 -0.00    +0.000    19.308
ATOM     23  C   UNL     1      16.683 -10.148 -10.486 -0.12 -0.00    +0.000    19.308
TER
ENDMDL
MODEL       93
USER    Run = 93
USER    Cluster Rank = 9
USER    Number of conformations in this cluster = 1
USER  
USER    RMSD from reference structure       = 18.165 A
USER  
USER    Estimated Free Energy of Binding    =   -9.24 kcal/mol  [=(1)+(2)+(3)-(4)]
USER    Estimated Inhibition Constant, Ki   =  168.21 nM (nanomolar)  [Temperature = 298.15 K]
USER    
USER    (1) Final Intermolecular Energy     =  -11.03 kcal/mol
USER        vdW + Hbond + desolv Energy     =  -11.03 kcal/mol
USER        Electrostatic Energy            =   +0.00 kcal/mol
USER    (2) Final Total Internal Energy     =   -1.07 kcal/mol
USER    (3) Torsional Free Energy           =   +1.79 kcal/mol
USER    (4) Unbound System's Energy  [=(2)] =   -1.07 kcal/mol
USER    
USER    
USER  
USER    DPF = ligand_dock.biased.dpf
USER    NEWDPF move	ligand.pdbqt
USER    NEWDPF about	-0.963000 -0.416000 0.212000
USER    NEWDPF tran0	20.183309 -12.362373 -0.402598
USER    NEWDPF axisangle0	-0.522609 -0.591252 -0.614249 -84.545055
USER    NEWDPF quaternion0	-0.351537 -0.397710 -0.413179 -0.739954
USER    NEWDPF dihe0	-30.47 179.47 22.18 63.45 -29.43 179.83 
USER  
USER                              x       y       z    vdW   Elec        q     RMS 
ATOM      1  C   UNL     1      20.716 -10.893  -0.060 -0.66 -0.00    +0.000    18.165
ATOM      2  C   UNL     1      21.134  -9.452   0.245 -0.49 -0.00    +0.000    18.165
ATOM      3  C   UNL     1      19.739 -10.917  -1.219 -0.48 -0.00    +0.000    18.165
ATOM      4  C   UNL     1      20.016 -10.500  -2.472 -0.49 -0.00    +0.000    18.165
ATOM      5  C   UNL     1      21.378  -9.963  -2.852 -0.53 -0.00    +0.000    18.165
ATOM      6  C   UNL     1      18.948 -10.625  -3.497 -0.37 -0.00    +0.000    18.165
ATOM      7  C   UNL     1      19.154 -11.168  -4.706 -0.43 -0.00    +0.000    18.165
ATOM      8  C   UNL     1      18.099 -11.300  -5.731 -0.36 -0.00    +0.000    18.165
ATOM      9  N   UNL     1      18.396 -11.519  -7.115 -0.35 -0.00    +0.000    18.165
ATOM     10  O   UNL     1      17.393 -11.738  -7.998 -0.38 -0.00    +0.000    18.165
ATOM     11  O   UNL     1      16.897 -11.191  -5.370 -0.32 -0.00    +0.000    18.165
ATOM     12  H   UNL     1      19.331 -11.512  -7.425 -0.06 -0.00    +0.000    18.165
ATOM     13  C   UNL     1      20.102 -11.523   1.174 -0.73 -0.00    +0.000    18.165
ATOM     14  O   UNL     1      20.779 -12.359   1.837 -1.62 -0.00    +0.000    18.165
ATOM     15  C   UNL     1      16.089 -10.608   2.496 -0.40 +0.00    +0.000    18.165
ATOM     16  C   UNL     1      17.195  -9.861   2.945 -0.38 +0.00    +0.000    18.165
ATOM     17  C   UNL     1      18.488 -10.164   2.514 -0.50 -0.00    +0.000    18.165
ATOM     18  C   UNL     1      18.716 -11.216   1.614 -0.51 -0.00    +0.000    18.165
ATOM     19  C   UNL     1      17.619 -11.975   1.171 -0.44 +0.00    +0.000    18.165
ATOM     20  C   UNL     1      16.325 -11.673   1.603 -0.39 +0.00    +0.000    18.165
ATOM     21  C   UNL     1      13.579 -10.929   2.312 -0.38 +0.00    +0.000    18.165
ATOM     22  N   UNL     1      14.744 -10.294   2.943 -0.35 +0.00    +0.000    18.165
ATOM     23  C   UNL     1      14.525  -9.336   4.034 -0.41 +0.00    +0.000    18.165
TER
ENDMDL
MODEL       56
USER    Run = 56
USER    Cluster Rank = 10
USER    Number of conformations in this cluster = 1
USER  
USER    RMSD from reference structure       = 17.986 A
USER  
USER    Estimated Free Energy of Binding    =   -9.16 kcal/mol  [=(1)+(2)+(3)-(4)]
USER    Estimated Inhibition Constant, Ki   =  194.56 nM (nanomolar)  [Temperature = 298.15 K]
USER    
USER    (1) Final Intermolecular Energy     =  -10.95 kcal/mol
USER        vdW + Hbond + desolv Energy     =  -10.95 kcal/mol
USER        Electrostatic Energy            =   +0.00 kcal/mol
USER    (2) Final Total Internal Energy     =   -1.32 kcal/mol
USER    (3) Torsional Free Energy           =   +1.79 kcal/mol
USER    (4) Unbound System's Energy  [=(2)] =   -1.32 kcal/mol
USER    
USER    
USER  
USER    DPF = ligand_dock.biased.dpf
USER    NEWDPF move	ligand.pdbqt
USER    NEWDPF about	-0.963000 -0.416000 0.212000
USER    NEWDPF tran0	19.533784 -9.411381 -3.444308
USER    NEWDPF axisangle0	0.435461 0.747700 -0.501317 -132.895044
USER    NEWDPF quaternion0	0.399185 0.685412 -0.459555 -0.399589
USER    NEWDPF dihe0	-179.97 -7.60 -179.92 70.17 21.88 -76.02 
USER  
USER                              x       y       z    vdW   Elec        q     RMS 
ATOM      1  C   UNL     1      20.686 -10.324  -4.076 -0.47 -0.00    +0.000    17.986
ATOM      2  C   UNL     1      21.762 -11.271  -4.614 -0.51 -0.00    +0.000    17.986
ATOM      3  C   UNL     1      20.528 -10.514  -2.580 -0.52 -0.00    +0.000    17.986
ATOM      4  C   UNL     1      20.840  -9.590  -1.647 -0.59 -0.00    +0.000    17.986
ATOM      5  C   UNL     1      21.382  -8.228  -2.022 -0.50 -0.00    +0.000    17.986
ATOM      6  C   UNL     1      20.590  -9.931  -0.223 -0.64 -0.00    +0.000    17.986
ATOM      7  C   UNL     1      20.581 -11.191   0.237 -0.63 -0.00    +0.000    17.986
ATOM      8  C   UNL     1      20.337 -11.542   1.651 -0.77 -0.00    +0.000    17.986
ATOM      9  N   UNL     1      20.605 -10.632   2.725 -0.63 -0.00    +0.000    17.986
ATOM     10  O   UNL     1      20.267 -10.961   3.993 -1.15 -0.00    +0.000    17.986
ATOM     11  O   UNL     1      19.900 -12.693   1.916 -1.64 -0.00    +0.000    17.986
ATOM     12  H   UNL     1      21.036  -9.766   2.539 -0.60 -0.00    +0.000    17.986
ATOM     13  C   UNL     1      19.374 -10.577  -4.791 -0.39 -0.00    +0.000    17.986
ATOM     14  O   UNL     1      19.326 -11.465  -5.688 -0.47 -0.00    +0.000    17.986
ATOM     15  C   UNL     1      15.786  -8.331  -3.912 -0.14 -0.00    +0.000    17.986
ATOM     16  C   UNL     1      16.164  -9.440  -3.131 -0.19 -0.00    +0.000    17.986
ATOM     17  C   UNL     1      17.325 -10.161  -3.422 -0.23 -0.00    +0.000    17.986
ATOM     18  C   UNL     1      18.148  -9.791  -4.497 -0.23 -0.00    +0.000    17.986
ATOM     19  C   UNL     1      17.770  -8.693  -5.290 -0.14 -0.00    +0.000    17.986
ATOM     20  C   UNL     1      16.609  -7.972  -4.999 -0.12 -0.00    +0.000    17.986
ATOM     21  C   UNL     1      13.975  -7.646  -2.273 -0.18 -0.00    +0.000    17.986
ATOM     22  N   UNL     1      14.580  -7.580  -3.610 -0.14 -0.00    +0.000    17.986
ATOM     23  C   UNL     1      13.946  -6.743  -4.634 -0.08 -0.00    +0.000    17.986
TER
ENDMDL
MODEL       97
USER    Run = 97
USER    Cluster Rank = 11
USER    Number of conformations in this cluster = 2
USER  
USER    RMSD from reference structure       = 18.642 A
USER  
USER    Estimated Free Energy of Binding    =   -8.96 kcal/mol  [=(1)+(2)+(3)-(4)]
USER    Estimated Inhibition Constant, Ki   =  270.02 nM (nanomolar)  [Temperature = 298.15 K]
USER    
USER    (1) Final Intermolecular Energy     =  -10.75 kcal/mol
USER        vdW + Hbond + desolv Energy     =  -10.75 kcal/mol
USER        Electrostatic Energy            =   +0.00 kcal/mol
USER    (2) Final Total Internal Energy     =   -1.26 kcal/mol
USER    (3) Torsional Free Energy           =   +1.79 kcal/mol
USER    (4) Unbound System's Energy  [=(2)] =   -1.26 kcal/mol
USER    
USER    
USER  
USER    DPF = ligand_dock.biased.dpf
USER    NEWDPF move	ligand.pdbqt
USER    NEWDPF about	-0.963000 -0.416000 0.212000
USER    NEWDPF tran0	19.797040 -9.127466 -3.005331
USER    NEWDPF axisangle0	0.580509 -0.680751 0.446751 135.695884
USER    NEWDPF quaternion0	0.537660 -0.630502 0.413775 0.377066
USER    NEWDPF dihe0	-81.82 110.37 145.42 49.12 -22.15 -86.48 
USER  
USER                              x       y       z    vdW   Elec        q     RMS 
ATOM      1  C   UNL     1      20.566  -9.187  -4.407 -0.34 -0.00    +0.000    18.642
ATOM      2  C   UNL     1      21.378  -9.192  -5.705 -0.28 -0.00    +0.000    18.642
ATOM      3  C   UNL     1      20.776  -7.880  -3.668 -0.35 -0.00    +0.000    18.642
ATOM      4  C   UNL     1      20.315  -6.679  -4.076 -0.24 -0.00    +0.000    18.642
ATOM      5  C   UNL     1      19.509  -6.523  -5.346 -0.13 -0.00    +0.000    18.642
ATOM      6  C   UNL     1      20.585  -5.502  -3.210 -0.29 -0.00    +0.000    18.642
ATOM      7  C   UNL     1      21.120  -5.604  -1.984 -0.46 -0.00    +0.000    18.642
ATOM      8  C   UNL     1      21.395  -4.441  -1.115 -0.35 +0.00    +0.000    18.642
ATOM      9  N   UNL     1      20.452  -3.964  -0.148 -0.38 +0.00    +0.000    18.642
ATOM     10  O   UNL     1      20.792  -2.961   0.694 -1.06 +0.00    +0.000    18.642
ATOM     11  O   UNL     1      22.492  -3.837  -1.254 -0.84 +0.00    +0.000    18.642
ATOM     12  H   UNL     1      19.555  -4.367  -0.096 -0.07 +0.00    +0.000    18.642
ATOM     13  C   UNL     1      20.971 -10.365  -3.543 -0.52 -0.00    +0.000    18.642
ATOM     14  O   UNL     1      21.703 -11.266  -4.040 -0.57 -0.00    +0.000    18.642
ATOM     15  C   UNL     1      19.671 -10.804   0.557 -0.54 -0.00    +0.000    18.642
ATOM     16  C   UNL     1      20.983 -10.397   0.245 -0.62 -0.00    +0.000    18.642
ATOM     17  C   UNL     1      21.396 -10.259  -1.082 -0.59 -0.00    +0.000    18.642
ATOM     18  C   UNL     1      20.507 -10.513  -2.139 -0.47 -0.00    +0.000    18.642
ATOM     19  C   UNL     1      19.200 -10.931  -1.836 -0.38 -0.00    +0.000    18.642
ATOM     20  C   UNL     1      18.787 -11.071  -0.508 -0.42 -0.00    +0.000    18.642
ATOM     21  C   UNL     1      18.142 -10.129   2.466 -0.54 -0.00    +0.000    18.642
ATOM     22  N   UNL     1      19.242 -10.947   1.936 -0.55 -0.00    +0.000    18.642
ATOM     23  C   UNL     1      19.899 -11.912   2.826 -0.75 -0.00    +0.000    18.642
TER
ENDMDL
MODEL        2
USER    Run = 2
USER    Cluster Rank = 12
USER    Number of conformations in this cluster = 2
USER  
USER    RMSD from reference structure       = 16.009 A
USER  
USER    Estimated Free Energy of Binding    =   -8.87 kcal/mol  [=(1)+(2)+(3)-(4)]
USER    Estimated Inhibition Constant, Ki   =  315.46 nM (nanomolar)  [Temperature = 298.15 K]
USER    
USER    (1) Final Intermolecular Energy     =  -10.66 kcal/mol
USER        vdW + Hbond + desolv Energy     =  -10.66 kcal/mol
USER        Electrostatic Energy            =   +0.00 kcal/mol
USER    (2) Final Total Internal Energy     =   -1.50 kcal/mol
USER    (3) Torsional Free Energy           =   +1.79 kcal/mol
USER    (4) Unbound System's Energy  [=(2)] =   -1.50 kcal/mol
USER    
USER    
USER  
USER    DPF = ligand_dock.biased.dpf
USER    NEWDPF move	ligand.pdbqt
USER    NEWDPF about	-0.963000 -0.416000 0.212000
USER    NEWDPF tran0	15.295198 -9.406040 -0.845948
USER    NEWDPF axisangle0	0.197444 0.637448 -0.744766 165.430864
USER    NEWDPF quaternion0	0.195850 0.632303 -0.738754 0.126797
USER    NEWDPF dihe0	154.73 -171.49 -130.80 35.44 -150.28 -117.40 
USER  
USER                              x       y       z    vdW   Elec        q     RMS 
ATOM      1  C   UNL     1      14.803 -10.673  -1.690 -0.31 -0.00    +0.000    16.009
ATOM      2  C   UNL     1      14.363 -11.945  -2.420 -0.27 -0.00    +0.000    16.009
ATOM      3  C   UNL     1      16.068 -10.940  -0.897 -0.33 -0.00    +0.000    16.009
ATOM      4  C   UNL     1      16.190 -11.872   0.071 -0.46 +0.00    +0.000    16.009
ATOM      5  C   UNL     1      15.041 -12.776   0.459 -0.48 +0.00    +0.000    16.009
ATOM      6  C   UNL     1      17.515 -12.021   0.726 -0.53 +0.00    +0.000    16.009
ATOM      7  C   UNL     1      17.983 -11.154   1.637 -0.51 -0.00    +0.000    16.009
ATOM      8  C   UNL     1      19.298 -11.295   2.296 -0.68 -0.00    +0.000    16.009
ATOM      9  N   UNL     1      19.858 -10.264   3.118 -0.62 -0.00    +0.000    16.009
ATOM     10  O   UNL     1      21.016 -10.482   3.784 -0.90 -0.00    +0.000    16.009
ATOM     11  O   UNL     1      19.954 -12.353   2.104 -1.82 -0.00    +0.000    16.009
ATOM     12  H   UNL     1      19.400  -9.396   3.199 -0.51 -0.00    +0.000    16.009
ATOM     13  C   UNL     1      13.690 -10.192  -0.781 -0.26 +0.00    +0.000    16.009
ATOM     14  O   UNL     1      12.500 -10.219  -1.201 -0.27 -0.00    +0.000    16.009
ATOM     15  C   UNL     1      14.418  -8.653   3.194 -0.27 +0.00    +0.000    16.009
ATOM     16  C   UNL     1      13.639  -9.809   2.988 -0.26 +0.00    +0.000    16.009
ATOM     17  C   UNL     1      13.408 -10.299   1.701 -0.25 +0.00    +0.000    16.009
ATOM     18  C   UNL     1      13.955  -9.655   0.580 -0.19 +0.00    +0.000    16.009
ATOM     19  C   UNL     1      14.723  -8.494   0.776 -0.23 +0.00    +0.000    16.009
ATOM     20  C   UNL     1      14.954  -8.003   2.064 -0.24 +0.00    +0.000    16.009
ATOM     21  C   UNL     1      14.011  -8.763   5.696 -0.50 +0.00    +0.000    16.009
ATOM     22  N   UNL     1      14.659  -8.144   4.532 -0.36 +0.00    +0.000    16.009
ATOM     23  C   UNL     1      15.556  -7.001   4.745 -0.40 +0.00    +0.000    16.009
TER
ENDMDL
MODEL       43
USER    Run = 43
USER    Cluster Rank = 13
USER    Number of conformations in this cluster = 1
USER  
USER    RMSD from reference structure       = 16.393 A
USER  
USER    Estimated Free Energy of Binding    =   -8.58 kcal/mol  [=(1)+(2)+(3)-(4)]
USER    Estimated Inhibition Constant, Ki   =  517.45 nM (nanomolar)  [Temperature = 298.15 K]
USER    
USER    (1) Final Intermolecular Energy     =  -10.37 kcal/mol
USER        vdW + Hbond + desolv Energy     =  -10.37 kcal/mol
USER        Electrostatic Energy            =   +0.00 kcal/mol
USER    (2) Final Total Internal Energy     =   -1.32 kcal/mol
USER    (3) Torsional Free Energy           =   +1.79 kcal/mol
USER    (4) Unbound System's Energy  [=(2)] =   -1.32 kcal/mol
USER    
USER    
USER  
USER    DPF = ligand_dock.biased.dpf
USER    NEWDPF move	ligand.pdbqt
USER    NEWDPF about	-0.963000 -0.416000 0.212000
USER    NEWDPF tran0	14.439981 -12.290251 2.286264
USER    NEWDPF axisangle0	0.231312 -0.816621 -0.528796 -172.856608
USER    NEWDPF quaternion0	0.230863 -0.815034 -0.527769 -0.062297
USER    NEWDPF dihe0	-92.74 -64.08 84.51 50.08 2.33 -164.04 
USER  
USER                              x       y       z    vdW   Elec        q     RMS 
ATOM      1  C   UNL     1      13.701 -10.918   2.650 -0.37 +0.00    +0.000    16.393
ATOM      2  C   UNL     1      13.054  -9.559   2.929 -0.25 +0.00    +0.000    16.393
ATOM      3  C   UNL     1      15.178 -10.740   2.357 -0.43 +0.00    +0.000    16.393
ATOM      4  C   UNL     1      16.164 -10.840   3.274 -0.52 +0.00    +0.000    16.393
ATOM      5  C   UNL     1      15.878 -11.161   4.723 -0.32 +0.00    +0.000    16.393
ATOM      6  C   UNL     1      17.564 -10.668   2.807 -0.52 +0.00    +0.000    16.393
ATOM      7  C   UNL     1      18.186 -11.557   2.017 -0.49 +0.00    +0.000    16.393
ATOM      8  C   UNL     1      19.576 -11.395   1.544 -0.69 -0.00    +0.000    16.393
ATOM      9  N   UNL     1      19.914 -10.577   0.418 -0.55 -0.00    +0.000    16.393
ATOM     10  O   UNL     1      21.211 -10.378   0.089 -0.74 -0.00    +0.000    16.393
ATOM     11  O   UNL     1      20.490 -12.021   2.145 -1.92 -0.00    +0.000    16.393
ATOM     12  H   UNL     1      19.201 -10.159  -0.118 -0.01 -0.00    +0.000    16.393
ATOM     13  C   UNL     1      13.001 -11.593   1.487 -0.44 +0.00    +0.000    16.393
ATOM     14  O   UNL     1      11.996 -12.322   1.717 -0.54 +0.00    +0.000    16.393
ATOM     15  C   UNL     1      14.338 -11.170  -2.603 -0.30 -0.00    +0.000    16.393
ATOM     16  C   UNL     1      13.214 -10.468  -2.125 -0.25 -0.00    +0.000    16.393
ATOM     17  C   UNL     1      12.788 -10.611  -0.802 -0.26 +0.00    +0.000    16.393
ATOM     18  C   UNL     1      13.476 -11.452   0.086 -0.35 +0.00    +0.000    16.393
ATOM     19  C   UNL     1      14.591 -12.166  -0.387 -0.42 +0.00    +0.000    16.393
ATOM     20  C   UNL     1      15.017 -12.024  -1.711 -0.22 +0.00    +0.000    16.393
ATOM     21  C   UNL     1      16.010 -10.279  -4.290 -0.24 -0.00    +0.000    16.393
ATOM     22  N   UNL     1      14.782 -11.021  -3.977 -0.28 -0.00    +0.000    16.393
ATOM     23  C   UNL     1      14.011 -11.611  -5.078 -0.27 -0.00    +0.000    16.393
TER
ENDMDL
MODEL        5
USER    Run = 5
USER    Cluster Rank = 14
USER    Number of conformations in this cluster = 2
USER  
USER    RMSD from reference structure       = 17.387 A
USER  
USER    Estimated Free Energy of Binding    =   -8.54 kcal/mol  [=(1)+(2)+(3)-(4)]
USER    Estimated Inhibition Constant, Ki   =  552.95 nM (nanomolar)  [Temperature = 298.15 K]
USER    
USER    (1) Final Intermolecular Energy     =  -10.33 kcal/mol
USER        vdW + Hbond + desolv Energy     =  -10.33 kcal/mol
USER        Electrostatic Energy            =   +0.00 kcal/mol
USER    (2) Final Total Internal Energy     =   -1.26 kcal/mol
USER    (3) Torsional Free Energy           =   +1.79 kcal/mol
USER    (4) Unbound System's Energy  [=(2)] =   -1.26 kcal/mol
USER    
USER    
USER  
USER    DPF = ligand_dock.biased.dpf
USER    NEWDPF move	ligand.pdbqt
USER    NEWDPF about	-0.963000 -0.416000 0.212000
USER    NEWDPF tran0	14.955992 -11.131208 -0.349543
USER    NEWDPF axisangle0	0.322127 -0.894981 -0.308615 139.715888
USER    NEWDPF quaternion0	0.302426 -0.840246 -0.289740 0.344349
USER    NEWDPF dihe0	154.63 -22.04 76.84 19.85 58.58 171.85 
USER  
USER                              x       y       z    vdW   Elec        q     RMS 
ATOM      1  C   UNL     1      14.740  -9.611  -0.801 -0.26 -0.00    +0.000    17.387
ATOM      2  C   UNL     1      14.635  -8.146  -1.231 -0.21 -0.00    +0.000    17.387
ATOM      3  C   UNL     1      15.892  -9.787   0.170 -0.24 +0.00    +0.000    17.387
ATOM      4  C   UNL     1      15.943 -10.717   1.147 -0.37 +0.00    +0.000    17.387
ATOM      5  C   UNL     1      14.824 -11.711   1.363 -0.46 +0.00    +0.000    17.387
ATOM      6  C   UNL     1      17.166 -10.770   1.989 -0.46 +0.00    +0.000    17.387
ATOM      7  C   UNL     1      18.321 -11.309   1.569 -0.55 -0.00    +0.000    17.387
ATOM      8  C   UNL     1      19.543 -11.364   2.397 -0.72 -0.00    +0.000    17.387
ATOM      9  N   UNL     1      19.946 -10.282   3.245 -0.63 -0.00    +0.000    17.387
ATOM     10  O   UNL     1      21.015 -10.422   4.062 -0.80 -0.00    +0.000    17.387
ATOM     11  O   UNL     1      20.265 -12.395   2.331 -1.93 -0.00    +0.000    17.387
ATOM     12  H   UNL     1      19.443  -9.435   3.234 -0.51 -0.00    +0.000    17.387
ATOM     13  C   UNL     1      14.925 -10.493  -2.020 -0.30 -0.00    +0.000    17.387
ATOM     14  O   UNL     1      14.001 -11.290  -2.346 -0.38 -0.00    +0.000    17.387
ATOM     15  C   UNL     1      18.529 -10.466  -4.408 -0.29 -0.00    +0.000    17.387
ATOM     16  C   UNL     1      17.255 -10.427  -5.007 -0.23 -0.00    +0.000    17.387
ATOM     17  C   UNL     1      16.095 -10.437  -4.228 -0.20 -0.00    +0.000    17.387
ATOM     18  C   UNL     1      16.173 -10.477  -2.827 -0.19 -0.00    +0.000    17.387
ATOM     19  C   UNL     1      17.441 -10.529  -2.222 -0.20 -0.00    +0.000    17.387
ATOM     20  C   UNL     1      18.601 -10.520  -3.001 -0.31 -0.00    +0.000    17.387
ATOM     21  C   UNL     1      19.652 -10.509  -6.682 -0.32 -0.00    +0.000    17.387
ATOM     22  N   UNL     1      19.735 -10.455  -5.217 -0.31 -0.00    +0.000    17.387
ATOM     23  C   UNL     1      21.057 -10.389  -4.584 -0.47 -0.00    +0.000    17.387
TER
ENDMDL
MODEL       92
USER    Run = 92
USER    Cluster Rank = 15
USER    Number of conformations in this cluster = 1
USER  
USER    RMSD from reference structure       = 16.614 A
USER  
USER    Estimated Free Energy of Binding    =   -8.35 kcal/mol  [=(1)+(2)+(3)-(4)]
USER    Estimated Inhibition Constant, Ki   =  758.49 nM (nanomolar)  [Temperature = 298.15 K]
USER    
USER    (1) Final Intermolecular Energy     =  -10.14 kcal/mol
USER        vdW + Hbond + desolv Energy     =  -10.14 kcal/mol
USER        Electrostatic Energy            =   +0.00 kcal/mol
USER    (2) Final Total Internal Energy     =   -1.51 kcal/mol
USER    (3) Torsional Free Energy           =   +1.79 kcal/mol
USER    (4) Unbound System's Energy  [=(2)] =   -1.51 kcal/mol
USER    
USER    
USER  
USER    DPF = ligand_dock.biased.dpf
USER    NEWDPF move	ligand.pdbqt
USER    NEWDPF about	-0.963000 -0.416000 0.212000
USER    NEWDPF tran0	14.014178 -11.998222 -0.886743
USER    NEWDPF axisangle0	-0.412682 0.384368 0.825806 -153.221757
USER    NEWDPF quaternion0	-0.401465 0.373921 0.803360 -0.231563
USER    NEWDPF dihe0	169.58 125.80 30.04 -97.37 57.27 -94.69 
USER  
USER                              x       y       z    vdW   Elec        q     RMS 
ATOM      1  C   UNL     1      12.751 -11.646   0.030 -0.38 +0.00    +0.000    16.614
ATOM      2  C   UNL     1      11.598 -11.237   0.951 -0.40 +0.00    +0.000    16.614
ATOM      3  C   UNL     1      14.072 -11.524   0.764 -0.42 +0.00    +0.000    16.614
ATOM      4  C   UNL     1      15.154 -12.299   0.540 -0.51 +0.00    +0.000    16.614
ATOM      5  C   UNL     1      15.152 -13.390  -0.507 -0.55 +0.00    +0.000    16.614
ATOM      6  C   UNL     1      16.381 -12.020   1.329 -0.48 +0.00    +0.000    16.614
ATOM      7  C   UNL     1      17.568 -11.748   0.765 -0.51 +0.00    +0.000    16.614
ATOM      8  C   UNL     1      18.794 -11.466   1.540 -0.60 -0.00    +0.000    16.614
ATOM      9  N   UNL     1      19.881 -12.395   1.622 -0.70 -0.00    +0.000    16.614
ATOM     10  O   UNL     1      21.024 -12.048   2.258 -1.66 -0.00    +0.000    16.614
ATOM     11  O   UNL     1      18.868 -10.376   2.168 -0.64 -0.00    +0.000    16.614
ATOM     12  H   UNL     1      19.796 -13.289   1.215 -0.56 -0.00    +0.000    16.614
ATOM     13  C   UNL     1      12.745 -10.782  -1.215 -0.28 +0.00    +0.000    16.614
ATOM     14  O   UNL     1      11.690 -10.161  -1.526 -0.26 -0.00    +0.000    16.614
ATOM     15  C   UNL     1      16.178 -10.489  -3.828 -0.17 -0.00    +0.000    16.614
ATOM     16  C   UNL     1      15.016 -11.182  -4.221 -0.22 -0.00    +0.000    16.614
ATOM     17  C   UNL     1      13.912 -11.273  -3.371 -0.21 -0.00    +0.000    16.614
ATOM     18  C   UNL     1      13.930 -10.666  -2.105 -0.28 -0.00    +0.000    16.614
ATOM     19  C   UNL     1      15.090  -9.984  -1.700 -0.24 -0.00    +0.000    16.614
ATOM     20  C   UNL     1      16.196  -9.894  -2.550 -0.21 -0.00    +0.000    16.614
ATOM     21  C   UNL     1      17.228 -10.822  -6.113 -0.31 -0.00    +0.000    16.614
ATOM     22  N   UNL     1      17.326 -10.393  -4.711 -0.24 -0.00    +0.000    16.614
ATOM     23  C   UNL     1      18.604  -9.867  -4.219 -0.29 -0.00    +0.000    16.614
TER
ENDMDL


AVSFLD: # AVS field file
AVSFLD: #
AVSFLD: # Created by AutoDock
AVSFLD: #
AVSFLD: ndim=2           # number of dimensions in the field
AVSFLD: nspace=1         # number of physical coordinates
AVSFLD: veclen=7         # vector size
AVSFLD: dim1=23          # atoms
AVSFLD: dim2=15          # conformations
AVSFLD: data=Real       # data type (byte,integer,Real,double)
AVSFLD: field=uniform    # field coordinate layout
AVSFLD: label= x y z vdW Elec q RMS
AVSFLD: variable 1 file = ligand_dock.biased.dlg.pdb filetype = ascii offset = 5 stride = 12
AVSFLD: variable 2 file = ligand_dock.biased.dlg.pdb filetype = ascii offset = 6 stride = 12
AVSFLD: variable 3 file = ligand_dock.biased.dlg.pdb filetype = ascii offset = 7 stride = 12
AVSFLD: variable 4 file = ligand_dock.biased.dlg.pdb filetype = ascii offset = 8 stride = 12
AVSFLD: variable 5 file = ligand_dock.biased.dlg.pdb filetype = ascii offset = 9 stride = 12
AVSFLD: variable 6 file = ligand_dock.biased.dlg.pdb filetype = ascii offset = 10 stride = 12
AVSFLD: variable 7 file = ligand_dock.biased.dlg.pdb filetype = ascii offset = 11 stride = 12
AVSFLD: # end of file

>>> Closing the docking parameter file (DPF)...
This docking finished at:			5:17 18" p.m., 11/03/2024


________________________________________________________________________________

autodock4: Successful Completion on "ThinkStation-P620"

Real= 10m 56.38s,  CPU= 10m 53.47s,  System= 0.21s
________________________________________________________________________________

