REMARK  Name = 
REMARK  4 active torsions:
REMARK  status: ('A' for Active; 'I' for Inactive)
REMARK    1  A    between atoms: C_3  and  C_4
REMARK    2  A    between atoms: C_4  and  C_5
REMARK    3  A    between atoms: C_5  and  C_6
REMARK    4  A    between atoms: C_6  and  C_7
REMARK                            x       y       z     vdW  Elec       q    Type
REMARK                         _______ _______ _______ _____ _____    ______ ____
ROOT
ATOM      1  C   UNL     1       0.732   1.221   0.005  0.00  0.00    +0.000 C 
ENDROOT
BRANCH   1   2
ATOM      2  C   UNL     1       2.192   1.624  -0.244  0.00  0.00    +0.000 C 
BRANCH   2   5
ATOM      3  O   UNL     1       4.658  -1.074   0.738  0.00  0.00    +0.000 OA
ATOM      4  N   UNL     1       3.813  -0.322  -0.004  0.00  0.00    +0.000 N 
ATOM      5  C   UNL     1       3.143   0.801   0.575  0.00  0.00    +0.000 C 
ATOM      6  O   UNL     1       3.329   1.086   1.788  0.00  0.00    +0.000 OA
ATOM      7  H   UNL     1       3.658  -0.549  -0.950  0.00  0.00    +0.000 HD
ENDBRANCH   2   5
ENDBRANCH   1   2
BRANCH   1   8
ATOM      8  C   UNL     1       0.411  -0.175  -0.545  0.00  0.00    +0.000 C 
BRANCH   8   9
ATOM      9  C   UNL     1      -1.045  -0.500  -0.343  0.00  0.00    +0.000 A 
ATOM     10  C   UNL     1      -1.991  -0.158  -1.324  0.00  0.00    +0.000 A 
ATOM     11  C   UNL     1      -3.347  -0.432  -1.120  0.00  0.00    +0.000 A 
ATOM     12  C   UNL     1      -3.769  -1.038   0.066  0.00  0.00    +0.000 A 
ATOM     13  C   UNL     1      -2.835  -1.369   1.053  0.00  0.00    +0.000 A 
ATOM     14  C   UNL     1      -1.478  -1.097   0.853  0.00  0.00    +0.000 A 
ENDBRANCH   8   9
ENDBRANCH   1   8
TORSDOF 4
