          AutoDock 4.2 Release 4.2.6   
         (C) 1989-2012 The Scripps Research Institute
        AutoDock comes with ABSOLUTELY NO WARRANTY.
        AutoDock is free software, and you are welcome
        to redistribute it under certain conditions;
        for details type 'autodock4 -C'

                     main.cc  $Revision: 1.213 $

                   Compiled on Feb 20 2022 at 09:48:33


This file was created at:			11:05 18" a.m., 11/08/2024
                   on host:		"ThinkStation-P620"
Current Working Directory = "/home/antonio/Documenti/buccheri/IDROSSAMICO HDAC/HDAC 2/DP/Ligand_10"

      ________________________________________________________________

                   SETTING UP DEFAULT PARAMETER LIBRARY
      ________________________________________________________________


Random number generator was seeded with values 333833, 1731060318.
Docking parameter file (DPF) used for this docking:		ligand_dock.biased.dpf
DPF> autodock_parameter_version 4.2       # used by autodock to validate parameter set

	Autodock parameter version 4.2.
DPF> outlev 1                             # diagnostic output level

Output Level = 1  ADT-COMPATIBLE OUTPUT DURING DOCKING.
DPF> intelec                              # calculate internal electrostatics

Electrostatic energies will be calculated for all non-bonds between moving atoms.
DPF> seed pid time                        # seeds for random generator

Random number generator was seeded with values 333833, 1731060318.
DPF> ligand_types A C HD OA N             # atoms types in ligand

DPF> fld receptor.maps.fld                # grid_data_file

Opening Grid Map Dimensions file:		receptor.maps.fld
Grid Point Spacing =				0.375 Angstroms

Even Number of User-specified Grid Points =	70 x-points
						70 y-points
						70 z-points

Coordinates of Central Grid Point of Maps =	(24.757, -16.735, 0.794)
Macromolecule file used to create Grid Maps =	receptor.pdbqt
Grid Parameter file used to create Grid Maps =	receptor.gpf
Minimum coordinates in grid = (11.632, -29.860, -12.331)
Maximum coordinates in grid = (37.882, -3.610, 13.919)

DPF> map receptor.A.map                   # atom-specific affinity map

DPF> map receptor.C.map                   # atom-specific affinity map

DPF> map receptor.HD.biased.map

DPF> map receptor.OA.biased.map

DPF> map receptor.N.map                   # atom-specific affinity map

DPF> elecmap receptor.e.map               # electrostatics map

DPF> desolvmap receptor.d.map             # desolvation map

DPF> move ligand.pdbqt                    # small molecule

1,4-interactions will be _ignored_ in the non-bonded internal energy calculation.

Ligand PDBQT file = "ligand.pdbqt"

INPUT LIGAND PDBQT FILE:
________________________

INPUT-LIGAND-PDBQT: REMARK  Name = 
INPUT-LIGAND-PDBQT: REMARK  4 active torsions:
INPUT-LIGAND-PDBQT: REMARK  status: ('A' for Active; 'I' for Inactive)
INPUT-LIGAND-PDBQT: REMARK    1  A    between atoms: C_3  and  C_4
INPUT-LIGAND-PDBQT: REMARK    2  A    between atoms: C_4  and  C_5
INPUT-LIGAND-PDBQT: REMARK    3  A    between atoms: C_5  and  C_6
INPUT-LIGAND-PDBQT: REMARK    4  A    between atoms: C_6  and  C_7
INPUT-LIGAND-PDBQT: REMARK                            x       y       z     vdW  Elec       q    Type
INPUT-LIGAND-PDBQT: REMARK                         _______ _______ _______ _____ _____    ______ ____
INPUT-LIGAND-PDBQT: ROOT
INPUT-LIGAND-PDBQT: ATOM      1  C   UNL     1       0.732   1.221   0.005  0.00  0.00    +0.000 C 
INPUT-LIGAND-PDBQT: ENDROOT
INPUT-LIGAND-PDBQT: BRANCH   1   2
INPUT-LIGAND-PDBQT: ATOM      2  C   UNL     1       2.192   1.624  -0.244  0.00  0.00    +0.000 C 
INPUT-LIGAND-PDBQT: BRANCH   2   5
INPUT-LIGAND-PDBQT: ATOM      3  O   UNL     1       4.658  -1.074   0.738  0.00  0.00    +0.000 OA
INPUT-LIGAND-PDBQT: ATOM      4  N   UNL     1       3.813  -0.322  -0.004  0.00  0.00    +0.000 N 
INPUT-LIGAND-PDBQT: ATOM      5  C   UNL     1       3.143   0.801   0.575  0.00  0.00    +0.000 C 
INPUT-LIGAND-PDBQT: ATOM      6  O   UNL     1       3.329   1.086   1.788  0.00  0.00    +0.000 OA
INPUT-LIGAND-PDBQT: ATOM      7  H   UNL     1       3.658  -0.549  -0.950  0.00  0.00    +0.000 HD
INPUT-LIGAND-PDBQT: ENDBRANCH   2   5
INPUT-LIGAND-PDBQT: ENDBRANCH   1   2
INPUT-LIGAND-PDBQT: BRANCH   1   8
INPUT-LIGAND-PDBQT: ATOM      8  C   UNL     1       0.411  -0.175  -0.545  0.00  0.00    +0.000 C 
INPUT-LIGAND-PDBQT: BRANCH   8   9
INPUT-LIGAND-PDBQT: ATOM      9  C   UNL     1      -1.045  -0.500  -0.343  0.00  0.00    +0.000 A 
INPUT-LIGAND-PDBQT: ATOM     10  C   UNL     1      -1.991  -0.158  -1.324  0.00  0.00    +0.000 A 
INPUT-LIGAND-PDBQT: ATOM     11  C   UNL     1      -3.347  -0.432  -1.120  0.00  0.00    +0.000 A 
INPUT-LIGAND-PDBQT: ATOM     12  C   UNL     1      -3.769  -1.038   0.066  0.00  0.00    +0.000 A 
INPUT-LIGAND-PDBQT: ATOM     13  C   UNL     1      -2.835  -1.369   1.053  0.00  0.00    +0.000 A 
INPUT-LIGAND-PDBQT: ATOM     14  C   UNL     1      -1.478  -1.097   0.853  0.00  0.00    +0.000 A 
INPUT-LIGAND-PDBQT: ENDBRANCH   8   9
INPUT-LIGAND-PDBQT: ENDBRANCH   1   8
INPUT-LIGAND-PDBQT: TORSDOF 4
________________________________________________________________________________

Total charge on ligand                               =	+0.000 e
REMARK  Name = 
REMARK  4 active torsions:
REMARK  status: ('A' for Active; 'I' for Inactive)
REMARK    1  A    between atoms: C_3  and  C_4
REMARK    2  A    between atoms: C_4  and  C_5
REMARK    3  A    between atoms: C_5  and  C_6
REMARK    4  A    between atoms: C_6  and  C_7
REMARK                            x       y       z     vdW  Elec       q    Type
REMARK                         _______ _______ _______ _____ _____    ______ ____


Number of Rotatable Bonds in Small Molecule =	4 torsions
Number of atoms in ligand:  14

Number of non-hydrogen atoms in ligand:  13

Number of vibrational degrees of freedom of ligand:  36


Number of torsional degrees of freedom = 4
Estimated loss of torsional free energy upon binding = +1.1932 kcal/mol


DPF> about 0.534 -0.142 0.039            # small molecule center

Small molecule center of rotation =	(+0.534, -0.142, +0.039)

DPF> tran0 random                         # initial coordinates/A or random

Initial translation =			(35.066, -5.960, -0.020) Angstroms
DPF> quaternion0 random                   # initial orientation

Each run will begin with a new, random initial orientation.
Initial quaternion,  (x,y,z,w) =	( -0.419, 0.582, -0.409, 0.564 ),
DPF> dihe0 random                         # initial dihedrals (relative) or random

DPF> torsdof 4                            # torsional degrees of freedom

Number of torsional degrees of freedom = 4
Free energy coefficient for torsional degrees of freedom = 0.2983, the factory default value.

Estimated loss of torsional free energy upon binding = +1.1932 kcal/mol

DPF> rmstol 2.0                           # cluster_tolerance/A

Maximum RMS tolerance for conformational cluster analysis = 2.00 Angstroms
DPF> extnrg 1000.0                        # external grid energy

External grid energy (beyond grid map walls) = 1000.00

DPF> e0max 0.0 10000                      # max initial energy; max number of retries

Using user-specified maximum number of retries for simanneal initialization, 10000 retries.
If the simanneal initial energy is greater than e0max, 0.000,
then a new, random initial state will be created.

DPF> ga_pop_size 150                      # number of individuals in population

A population of 150 individuals will be used
DPF> ga_num_evals 2500000                 # maximum number of energy evaluations

There will be at most 2500000 function evaluations used.
DPF> ga_num_generations 27000             # maximum number of generations

The GA will run for at most 27000 generations.
DPF> ga_elitism 1                         # number of top individuals to survive to next generation

The 1 best will be preserved each GA generation.
DPF> ga_mutation_rate 0.02                # rate of gene mutation

The mutation rate is 0.020000.
DPF> ga_crossover_rate 0.8                # rate of crossover

The crossover rate is 0.800000.
DPF> ga_window_size 10                    # 

The GA's selection window is 10 generations.
DPF> ga_cauchy_alpha 0.0                  # Alpha parameter of Cauchy distribution

The alpha parameter (for the Cauchy distribution) is being set to 0.000000.
DPF> ga_cauchy_beta 1.0                   # Beta parameter Cauchy distribution

The beta parameter (for the Cauchy distribution) is being set to 1.000000.
DPF> set_ga                               # set the above parameters for GA or LGA

DPF> sw_max_its 300                       # iterations of Solis & Wets local search

Solis & Wets algorithms will perform at most 300 iterations.
DPF> sw_max_succ 4                        # consecutive successes before changing rho

Solis & Wets algorithms expand rho every 4 in a row successes.
DPF> sw_max_fail 4                        # consecutive failures before changing rho

Solis & Wets algorithms contract rho every 4 in a row failures.
DPF> sw_rho 1.0                           # size of local search space to sample

rho is set to 1.000000.
DPF> sw_lb_rho 0.01                       # lower bound on rho

rho will never get smaller than 0.010000.
DPF> ls_search_freq 0.06                  # probability of performing local search on individual

Local search will be performed with frequency 0.060000.
DPF> set_psw1                             # set the above pseudo-Solis & Wets parameters

Creating a new Local Search object using the pseudo-Solis-Wets algorithm (pSW1) with the current settings.

DPF> unbound_model bound                  # state of unbound ligand

DPF> ga_run 100

centering ligand on specified point: 0.534 -0.142 0.039
Furthest true ligand atom from "about" center is 4.395 Angstroms (maxrad).
Number of requested GA dockings = 100 runs
Unbound model to be used is 'same as bound' [AutoDock 4.2 default].

	BEGINNING GENETIC ALGORITHM DOCKING 1 of 100
Run: 1 Seed: 363008885 1745883068 [ Run 1 of 100 GA/GALS ]
Beginning LAMARCKIAN GENETIC ALGORITHM (LGA), with a maximum of 2500000 energy evaluations.

Final-Value: -11.167


	FINAL GENETIC ALGORITHM DOCKED STATE
	_______________________________________________


Detailed state:  trans 24.997 -17.085 -0.927 quatxyzw 0.555045 -0.455648 0.686086 -0.116602 center 0.534 -0.142 0.039 ntor 4 -9.5882 -172.4866 174.3584 -4.0595
State:	 24.997 -17.085  -0.927   0.559 -0.459  0.691 -166.608     -9.59 -172.49  174.36   -4.06

DOCKED: MODEL        1
DOCKED: USER    Run = 1
DOCKED: USER    DPF = ligand_dock.biased.dpf
DOCKED: USER  
DOCKED: USER    Estimated Free Energy of Binding    =   -9.63 kcal/mol  [=(1)+(2)+(3)-(4)]
DOCKED: USER    Estimated Inhibition Constant, Ki   =   87.91 nM (nanomolar)  [Temperature = 298.15 K]
DOCKED: USER    
DOCKED: USER    (1) Final Intermolecular Energy     =  -10.82 kcal/mol
DOCKED: USER        vdW + Hbond + desolv Energy     =  -10.82 kcal/mol
DOCKED: USER        Electrostatic Energy            =   +0.00 kcal/mol
DOCKED: USER    (2) Final Total Internal Energy     =   -0.35 kcal/mol
DOCKED: USER    (3) Torsional Free Energy           =   +1.19 kcal/mol
DOCKED: USER    (4) Unbound System's Energy  [=(2)] =   -0.35 kcal/mol
DOCKED: USER    
DOCKED: USER    
DOCKED: USER    NEWDPF move ligand.pdbqt
DOCKED: USER    NEWDPF about 0.534000 -0.142000 0.039000
DOCKED: USER    NEWDPF tran0 24.996655 -17.085162 -0.927365
DOCKED: USER    NEWDPF quaternion0 0.555045 -0.455648 0.686086 -0.116602
DOCKED: USER    NEWDPF axisangle0 0.558857 -0.458778 0.690798 -166.607964
DOCKED: USER    NEWDPF quat0 0.558857 -0.458778 0.690798 -166.607964
DOCKED: USER    NEWDPF dihe0 -9.59 -172.49 174.36 -4.06 
DOCKED: USER  keepresnum = 1 
DOCKED: USER  
DOCKED: REMARK  Name = 
DOCKED: REMARK  4 active torsions:
DOCKED: REMARK  status: ('A' for Active; 'I' for Inactive)
DOCKED: REMARK    1  A    between atoms: C_3  and  C_4
DOCKED: REMARK    2  A    between atoms: C_4  and  C_5
DOCKED: REMARK    3  A    between atoms: C_5  and  C_6
DOCKED: REMARK    4  A    between atoms: C_6  and  C_7
DOCKED: REMARK                            x       y       z     vdW  Elec       q    Type
DOCKED: REMARK                         _______ _______ _______ _____ _____    ______ ____
DOCKED: USER                              x       y       z     vdW  Elec       q    Type
DOCKED: USER                           _______ _______ _______ _____ _____    ______ ____
DOCKED: ROOT
DOCKED: ATOM      1  C   UNL     1      23.996 -17.888  -1.430 -0.75 -0.00    +0.000 C 
DOCKED: ENDROOT
DOCKED: BRANCH   1   2
DOCKED: ATOM      2  C   UNL     1      23.044 -18.430  -0.355 -0.82 -0.00    +0.000 C 
DOCKED: BRANCH   2   5
DOCKED: ATOM      3  O   UNL     1      19.884 -19.737  -1.976 -2.37 -0.00    +0.000 OA
DOCKED: ATOM      4  N   UNL     1      21.154 -19.677  -1.514 -0.69 -0.00    +0.000 N 
DOCKED: ATOM      5  C   UNL     1      21.630 -18.502  -0.851 -0.83 -0.00    +0.000 C 
DOCKED: ATOM      6  O   UNL     1      20.866 -17.511  -0.707 -2.09 +0.00    +0.000 OA
DOCKED: ATOM      7  H   UNL     1      21.756 -20.448  -1.635 -0.36 -0.00    +0.000 HD
DOCKED: ENDBRANCH   2   5
DOCKED: ENDBRANCH   1   2
DOCKED: BRANCH   1   8
DOCKED: ATOM      8  C   UNL     1      24.680 -16.584  -0.999 -0.58 -0.00    +0.000 C 
DOCKED: BRANCH   8   9
DOCKED: ATOM      9  C   UNL     1      25.624 -16.104  -2.070 -0.49 -0.00    +0.000 A 
DOCKED: ATOM     10  C   UNL     1      26.993 -16.409  -1.997 -0.35 -0.00    +0.000 A 
DOCKED: ATOM     11  C   UNL     1      27.873 -15.935  -2.975 -0.26 -0.00    +0.000 A 
DOCKED: ATOM     12  C   UNL     1      27.395 -15.146  -4.024 -0.35 -0.00    +0.000 A 
DOCKED: ATOM     13  C   UNL     1      26.036 -14.826  -4.096 -0.51 -0.00    +0.000 A 
DOCKED: ATOM     14  C   UNL     1      25.152 -15.298  -3.120 -0.38 -0.00    +0.000 A 
DOCKED: ENDBRANCH   8   9
DOCKED: ENDBRANCH   1   8
DOCKED: TORSDOF 4
DOCKED: TER
DOCKED: ENDMDL
________________________________________________________________________________


	BEGINNING GENETIC ALGORITHM DOCKING 2 of 100
Run: 2 Seed: 1917086389 1955252119 [ Run 2 of 100 GA/GALS ]
Beginning LAMARCKIAN GENETIC ALGORITHM (LGA), with a maximum of 2500000 energy evaluations.

Final-Value: -10.723


	FINAL GENETIC ALGORITHM DOCKED STATE
	_______________________________________________


Detailed state:  trans 24.884 -17.360 -0.965 quatxyzw 0.548605 -0.586212 -0.579193 0.141151 center 0.534 -0.142 0.039 ntor 4 100.7006 -100.6239 180.0000 -77.6087
State:	 24.884 -17.360  -0.965   0.554 -0.592 -0.585 163.771    100.70 -100.62  180.00  -77.61

DOCKED: MODEL        2
DOCKED: USER    Run = 2
DOCKED: USER    DPF = ligand_dock.biased.dpf
DOCKED: USER  
DOCKED: USER    Estimated Free Energy of Binding    =   -9.15 kcal/mol  [=(1)+(2)+(3)-(4)]
DOCKED: USER    Estimated Inhibition Constant, Ki   =  196.87 nM (nanomolar)  [Temperature = 298.15 K]
DOCKED: USER    
DOCKED: USER    (1) Final Intermolecular Energy     =  -10.34 kcal/mol
DOCKED: USER        vdW + Hbond + desolv Energy     =  -10.34 kcal/mol
DOCKED: USER        Electrostatic Energy            =   +0.00 kcal/mol
DOCKED: USER    (2) Final Total Internal Energy     =   -0.38 kcal/mol
DOCKED: USER    (3) Torsional Free Energy           =   +1.19 kcal/mol
DOCKED: USER    (4) Unbound System's Energy  [=(2)] =   -0.38 kcal/mol
DOCKED: USER    
DOCKED: USER    
DOCKED: USER    NEWDPF move ligand.pdbqt
DOCKED: USER    NEWDPF about 0.534000 -0.142000 0.039000
DOCKED: USER    NEWDPF tran0 24.883574 -17.360142 -0.964905
DOCKED: USER    NEWDPF quaternion0 0.548605 -0.586212 -0.579193 0.141151
DOCKED: USER    NEWDPF axisangle0 0.554153 -0.592141 -0.585050 163.771047
DOCKED: USER    NEWDPF quat0 0.554153 -0.592141 -0.585050 163.771047
DOCKED: USER    NEWDPF dihe0 100.70 -100.62 180.00 -77.61 
DOCKED: USER  keepresnum = 1 
DOCKED: USER  
DOCKED: REMARK  Name = 
DOCKED: REMARK  4 active torsions:
DOCKED: REMARK  status: ('A' for Active; 'I' for Inactive)
DOCKED: REMARK    1  A    between atoms: C_3  and  C_4
DOCKED: REMARK    2  A    between atoms: C_4  and  C_5
DOCKED: REMARK    3  A    between atoms: C_5  and  C_6
DOCKED: REMARK    4  A    between atoms: C_6  and  C_7
DOCKED: REMARK                            x       y       z     vdW  Elec       q    Type
DOCKED: REMARK                         _______ _______ _______ _____ _____    ______ ____
DOCKED: USER                              x       y       z     vdW  Elec       q    Type
DOCKED: USER                           _______ _______ _______ _____ _____    ______ ____
DOCKED: ROOT
DOCKED: ATOM      1  C   UNL     1      23.729 -17.855  -0.399 -0.76 -0.00    +0.000 C 
DOCKED: ENDROOT
DOCKED: BRANCH   1   2
DOCKED: ATOM      2  C   UNL     1      22.998 -18.873  -1.285 -0.79 -0.00    +0.000 C 
DOCKED: BRANCH   2   5
DOCKED: ATOM      3  O   UNL     1      19.315 -19.730  -1.442 -1.82 -0.00    +0.000 OA
DOCKED: ATOM      4  N   UNL     1      20.659 -19.839  -1.548 -0.74 -0.00    +0.000 N 
DOCKED: ATOM      5  C   UNL     1      21.508 -18.759  -1.150 -0.75 -0.00    +0.000 C 
DOCKED: ATOM      6  O   UNL     1      21.002 -17.692  -0.710 -2.13 -0.00    +0.000 OA
DOCKED: ATOM      7  H   UNL     1      21.056 -20.668  -1.902 -0.33 -0.00    +0.000 HD
DOCKED: ENDBRANCH   2   5
DOCKED: ENDBRANCH   1   2
DOCKED: BRANCH   1   8
DOCKED: ATOM      8  C   UNL     1      25.229 -17.779  -0.715 -0.69 -0.00    +0.000 C 
DOCKED: BRANCH   8   9
DOCKED: ATOM      9  C   UNL     1      25.544 -16.520  -1.478 -0.51 -0.00    +0.000 A 
DOCKED: ATOM     10  C   UNL     1      25.514 -16.515  -2.882 -0.38 -0.00    +0.000 A 
DOCKED: ATOM     11  C   UNL     1      25.838 -15.353  -3.589 -0.51 -0.00    +0.000 A 
DOCKED: ATOM     12  C   UNL     1      26.206 -14.194  -2.902 -0.33 -0.00    +0.000 A 
DOCKED: ATOM     13  C   UNL     1      26.252 -14.195  -1.504 -0.24 -0.00    +0.000 A 
DOCKED: ATOM     14  C   UNL     1      25.927 -15.355  -0.793 -0.35 -0.00    +0.000 A 
DOCKED: ENDBRANCH   8   9
DOCKED: ENDBRANCH   1   8
DOCKED: TORSDOF 4
DOCKED: TER
DOCKED: ENDMDL
________________________________________________________________________________


	BEGINNING GENETIC ALGORITHM DOCKING 3 of 100
Run: 3 Seed: 1007173576 1934108692 [ Run 3 of 100 GA/GALS ]
Beginning LAMARCKIAN GENETIC ALGORITHM (LGA), with a maximum of 2500000 energy evaluations.

Final-Value: -10.812


	FINAL GENETIC ALGORITHM DOCKED STATE
	_______________________________________________


Detailed state:  trans 24.890 -17.095 -1.260 quatxyzw -0.650358 0.508682 -0.561966 0.049705 center 0.534 -0.142 0.039 ntor 4 -5.1826 -178.0484 -9.5109 -47.8770
State:	 24.890 -17.095  -1.260  -0.651  0.509 -0.563 174.302     -5.18 -178.05   -9.51  -47.88

DOCKED: MODEL        3
DOCKED: USER    Run = 3
DOCKED: USER    DPF = ligand_dock.biased.dpf
DOCKED: USER  
DOCKED: USER    Estimated Free Energy of Binding    =   -9.27 kcal/mol  [=(1)+(2)+(3)-(4)]
DOCKED: USER    Estimated Inhibition Constant, Ki   =  159.09 nM (nanomolar)  [Temperature = 298.15 K]
DOCKED: USER    
DOCKED: USER    (1) Final Intermolecular Energy     =  -10.47 kcal/mol
DOCKED: USER        vdW + Hbond + desolv Energy     =  -10.47 kcal/mol
DOCKED: USER        Electrostatic Energy            =   +0.00 kcal/mol
DOCKED: USER    (2) Final Total Internal Energy     =   -0.34 kcal/mol
DOCKED: USER    (3) Torsional Free Energy           =   +1.19 kcal/mol
DOCKED: USER    (4) Unbound System's Energy  [=(2)] =   -0.34 kcal/mol
DOCKED: USER    
DOCKED: USER    
DOCKED: USER    NEWDPF move ligand.pdbqt
DOCKED: USER    NEWDPF about 0.534000 -0.142000 0.039000
DOCKED: USER    NEWDPF tran0 24.889882 -17.094658 -1.259758
DOCKED: USER    NEWDPF quaternion0 -0.650358 0.508682 -0.561966 0.049705
DOCKED: USER    NEWDPF axisangle0 -0.651163 0.509312 -0.562662 174.301875
DOCKED: USER    NEWDPF quat0 -0.651163 0.509312 -0.562662 174.301875
DOCKED: USER    NEWDPF dihe0 -5.18 -178.05 -9.51 -47.88 
DOCKED: USER  keepresnum = 1 
DOCKED: USER  
DOCKED: REMARK  Name = 
DOCKED: REMARK  4 active torsions:
DOCKED: REMARK  status: ('A' for Active; 'I' for Inactive)
DOCKED: REMARK    1  A    between atoms: C_3  and  C_4
DOCKED: REMARK    2  A    between atoms: C_4  and  C_5
DOCKED: REMARK    3  A    between atoms: C_5  and  C_6
DOCKED: REMARK    4  A    between atoms: C_6  and  C_7
DOCKED: REMARK                            x       y       z     vdW  Elec       q    Type
DOCKED: REMARK                         _______ _______ _______ _____ _____    ______ ____
DOCKED: USER                              x       y       z     vdW  Elec       q    Type
DOCKED: USER                           _______ _______ _______ _____ _____    ______ ____
DOCKED: ROOT
DOCKED: ATOM      1  C   UNL     1      23.859 -17.844  -1.784 -0.61 -0.00    +0.000 C 
DOCKED: ENDROOT
DOCKED: BRANCH   1   2
DOCKED: ATOM      2  C   UNL     1      23.183 -18.762  -0.757 -0.82 -0.00    +0.000 C 
DOCKED: BRANCH   2   5
DOCKED: ATOM      3  O   UNL     1      19.696 -19.732  -1.865 -2.26 -0.00    +0.000 OA
DOCKED: ATOM      4  N   UNL     1      21.041 -19.744  -1.716 -0.67 -0.00    +0.000 N 
DOCKED: ATOM      5  C   UNL     1      21.690 -18.759  -0.907 -0.84 -0.00    +0.000 C 
DOCKED: ATOM      6  O   UNL     1      21.008 -17.865  -0.338 -1.94 +0.00    +0.000 OA
DOCKED: ATOM      7  H   UNL     1      21.577 -20.435  -2.168 -0.52 -0.00    +0.000 HD
DOCKED: ENDBRANCH   2   5
DOCKED: ENDBRANCH   1   2
DOCKED: BRANCH   1   8
DOCKED: ATOM      8  C   UNL     1      24.535 -16.633  -1.127 -0.60 -0.00    +0.000 C 
DOCKED: BRANCH   8   9
DOCKED: ATOM      9  C   UNL     1      25.906 -16.414  -1.707 -0.48 -0.00    +0.000 A 
DOCKED: ATOM     10  C   UNL     1      26.059 -15.764  -2.943 -0.45 -0.00    +0.000 A 
DOCKED: ATOM     11  C   UNL     1      27.332 -15.591  -3.495 -0.32 -0.00    +0.000 A 
DOCKED: ATOM     12  C   UNL     1      28.458 -16.074  -2.824 -0.23 -0.00    +0.000 A 
DOCKED: ATOM     13  C   UNL     1      28.314 -16.734  -1.600 -0.30 -0.00    +0.000 A 
DOCKED: ATOM     14  C   UNL     1      27.042 -16.909  -1.044 -0.43 -0.00    +0.000 A 
DOCKED: ENDBRANCH   8   9
DOCKED: ENDBRANCH   1   8
DOCKED: TORSDOF 4
DOCKED: TER
DOCKED: ENDMDL
________________________________________________________________________________


	BEGINNING GENETIC ALGORITHM DOCKING 4 of 100
Run: 4 Seed: 1043093409 1932904228 [ Run 4 of 100 GA/GALS ]
Beginning LAMARCKIAN GENETIC ALGORITHM (LGA), with a maximum of 2500000 energy evaluations.

Final-Value: -10.680


	FINAL GENETIC ALGORITHM DOCKED STATE
	_______________________________________________


Detailed state:  trans 23.748 -18.156 -1.293 quatxyzw 0.168900 0.203802 0.898677 -0.349738 center 0.534 -0.142 0.039 ntor 4 24.0033 -179.7622 -44.8561 -69.9374
State:	 23.748 -18.156  -1.293   0.180  0.218  0.959 -139.057     24.00 -179.76  -44.86  -69.94

DOCKED: MODEL        4
DOCKED: USER    Run = 4
DOCKED: USER    DPF = ligand_dock.biased.dpf
DOCKED: USER  
DOCKED: USER    Estimated Free Energy of Binding    =   -9.13 kcal/mol  [=(1)+(2)+(3)-(4)]
DOCKED: USER    Estimated Inhibition Constant, Ki   =  201.91 nM (nanomolar)  [Temperature = 298.15 K]
DOCKED: USER    
DOCKED: USER    (1) Final Intermolecular Energy     =  -10.33 kcal/mol
DOCKED: USER        vdW + Hbond + desolv Energy     =  -10.33 kcal/mol
DOCKED: USER        Electrostatic Energy            =   +0.00 kcal/mol
DOCKED: USER    (2) Final Total Internal Energy     =   -0.35 kcal/mol
DOCKED: USER    (3) Torsional Free Energy           =   +1.19 kcal/mol
DOCKED: USER    (4) Unbound System's Energy  [=(2)] =   -0.35 kcal/mol
DOCKED: USER    
DOCKED: USER    
DOCKED: USER    NEWDPF move ligand.pdbqt
DOCKED: USER    NEWDPF about 0.534000 -0.142000 0.039000
DOCKED: USER    NEWDPF tran0 23.747507 -18.156221 -1.292818
DOCKED: USER    NEWDPF quaternion0 0.168900 0.203802 0.898677 -0.349738
DOCKED: USER    NEWDPF axisangle0 0.180285 0.217541 0.959257 -139.057407
DOCKED: USER    NEWDPF quat0 0.180285 0.217541 0.959257 -139.057407
DOCKED: USER    NEWDPF dihe0 24.00 -179.76 -44.86 -69.94 
DOCKED: USER  keepresnum = 1 
DOCKED: USER  
DOCKED: REMARK  Name = 
DOCKED: REMARK  4 active torsions:
DOCKED: REMARK  status: ('A' for Active; 'I' for Inactive)
DOCKED: REMARK    1  A    between atoms: C_3  and  C_4
DOCKED: REMARK    2  A    between atoms: C_4  and  C_5
DOCKED: REMARK    3  A    between atoms: C_5  and  C_6
DOCKED: REMARK    4  A    between atoms: C_6  and  C_7
DOCKED: REMARK                            x       y       z     vdW  Elec       q    Type
DOCKED: REMARK                         _______ _______ _______ _____ _____    ______ ____
DOCKED: USER                              x       y       z     vdW  Elec       q    Type
DOCKED: USER                           _______ _______ _______ _____ _____    ______ ____
DOCKED: ROOT
DOCKED: ATOM      1  C   UNL     1      22.831 -18.943  -0.630 -0.82 -0.00    +0.000 C 
DOCKED: ENDROOT
DOCKED: BRANCH   1   2
DOCKED: ATOM      2  C   UNL     1      21.475 -18.257  -0.414 -0.74 -0.00    +0.000 C 
DOCKED: BRANCH   2   5
DOCKED: ATOM      3  O   UNL     1      18.327 -20.311   0.029 -0.92 -0.00    +0.000 OA
DOCKED: ATOM      4  N   UNL     1      19.349 -19.464   0.290 -0.73 -0.00    +0.000 N 
DOCKED: ATOM      5  C   UNL     1      20.331 -19.183  -0.710 -0.89 -0.00    +0.000 C 
DOCKED: ATOM      6  O   UNL     1      20.253 -19.736  -1.840 -2.37 -0.00    +0.000 OA
DOCKED: ATOM      7  H   UNL     1      19.418 -19.039   1.176 -0.29 -0.00    +0.000 HD
DOCKED: ENDBRANCH   2   5
DOCKED: ENDBRANCH   1   2
DOCKED: BRANCH   1   8
DOCKED: ATOM      8  C   UNL     1      23.591 -18.365  -1.831 -0.61 -0.00    +0.000 C 
DOCKED: BRANCH   8   9
DOCKED: ATOM      9  C   UNL     1      24.832 -17.644  -1.373 -0.61 -0.00    +0.000 A 
DOCKED: ATOM     10  C   UNL     1      25.670 -18.221  -0.405 -0.61 -0.00    +0.000 A 
DOCKED: ATOM     11  C   UNL     1      26.805 -17.536   0.042 -0.45 -0.00    +0.000 A 
DOCKED: ATOM     12  C   UNL     1      27.103 -16.269  -0.465 -0.37 -0.00    +0.000 A 
DOCKED: ATOM     13  C   UNL     1      26.265 -15.682  -1.420 -0.39 -0.00    +0.000 A 
DOCKED: ATOM     14  C   UNL     1      25.130 -16.364  -1.869 -0.53 -0.00    +0.000 A 
DOCKED: ENDBRANCH   8   9
DOCKED: ENDBRANCH   1   8
DOCKED: TORSDOF 4
DOCKED: TER
DOCKED: ENDMDL
________________________________________________________________________________


	BEGINNING GENETIC ALGORITHM DOCKING 5 of 100
Run: 5 Seed: 950722178 99866299 [ Run 5 of 100 GA/GALS ]
Beginning LAMARCKIAN GENETIC ALGORITHM (LGA), with a maximum of 2500000 energy evaluations.

Final-Value: -11.251


	FINAL GENETIC ALGORITHM DOCKED STATE
	_______________________________________________


Detailed state:  trans 24.585 -17.129 -1.041 quatxyzw 0.460029 -0.180917 0.859952 -0.126984 center 0.534 -0.142 0.039 ntor 4 -27.7034 158.4530 -133.2306 -34.6983
State:	 24.585 -17.129  -1.041   0.464 -0.182  0.867 -165.409    -27.70  158.45 -133.23  -34.70

DOCKED: MODEL        5
DOCKED: USER    Run = 5
DOCKED: USER    DPF = ligand_dock.biased.dpf
DOCKED: USER  
DOCKED: USER    Estimated Free Energy of Binding    =   -9.69 kcal/mol  [=(1)+(2)+(3)-(4)]
DOCKED: USER    Estimated Inhibition Constant, Ki   =   78.65 nM (nanomolar)  [Temperature = 298.15 K]
DOCKED: USER    
DOCKED: USER    (1) Final Intermolecular Energy     =  -10.89 kcal/mol
DOCKED: USER        vdW + Hbond + desolv Energy     =  -10.89 kcal/mol
DOCKED: USER        Electrostatic Energy            =   +0.00 kcal/mol
DOCKED: USER    (2) Final Total Internal Energy     =   -0.37 kcal/mol
DOCKED: USER    (3) Torsional Free Energy           =   +1.19 kcal/mol
DOCKED: USER    (4) Unbound System's Energy  [=(2)] =   -0.37 kcal/mol
DOCKED: USER    
DOCKED: USER    
DOCKED: USER    NEWDPF move ligand.pdbqt
DOCKED: USER    NEWDPF about 0.534000 -0.142000 0.039000
DOCKED: USER    NEWDPF tran0 24.585316 -17.129431 -1.041269
DOCKED: USER    NEWDPF quaternion0 0.460029 -0.180917 0.859952 -0.126984
DOCKED: USER    NEWDPF axisangle0 0.463783 -0.182394 0.866970 -165.409328
DOCKED: USER    NEWDPF quat0 0.463783 -0.182394 0.866970 -165.409328
DOCKED: USER    NEWDPF dihe0 -27.70 158.45 -133.23 -34.70 
DOCKED: USER  keepresnum = 1 
DOCKED: USER  
DOCKED: REMARK  Name = 
DOCKED: REMARK  4 active torsions:
DOCKED: REMARK  status: ('A' for Active; 'I' for Inactive)
DOCKED: REMARK    1  A    between atoms: C_3  and  C_4
DOCKED: REMARK    2  A    between atoms: C_4  and  C_5
DOCKED: REMARK    3  A    between atoms: C_5  and  C_6
DOCKED: REMARK    4  A    between atoms: C_6  and  C_7
DOCKED: REMARK                            x       y       z     vdW  Elec       q    Type
DOCKED: REMARK                         _______ _______ _______ _____ _____    ______ ____
DOCKED: USER                              x       y       z     vdW  Elec       q    Type
DOCKED: USER                           _______ _______ _______ _____ _____    ______ ____
DOCKED: ROOT
DOCKED: ATOM      1  C   UNL     1      23.928 -18.334  -1.158 -0.78 -0.00    +0.000 C 
DOCKED: ENDROOT
DOCKED: BRANCH   1   2
DOCKED: ATOM      2  C   UNL     1      22.792 -18.516  -0.141 -0.79 -0.00    +0.000 C 
DOCKED: BRANCH   2   5
DOCKED: ATOM      3  O   UNL     1      19.882 -19.773  -2.209 -2.30 -0.00    +0.000 OA
DOCKED: ATOM      4  N   UNL     1      21.084 -19.722  -1.591 -0.69 -0.00    +0.000 N 
DOCKED: ATOM      5  C   UNL     1      21.451 -18.580  -0.812 -0.84 -0.00    +0.000 C 
DOCKED: ATOM      6  O   UNL     1      20.656 -17.608  -0.710 -2.17 +0.00    +0.000 OA
DOCKED: ATOM      7  H   UNL     1      21.712 -20.476  -1.677 -0.37 -0.00    +0.000 HD
DOCKED: ENDBRANCH   2   5
DOCKED: ENDBRANCH   1   2
DOCKED: BRANCH   1   8
DOCKED: ATOM      8  C   UNL     1      24.230 -16.856  -1.436 -0.64 -0.00    +0.000 C 
DOCKED: BRANCH   8   9
DOCKED: ATOM      9  C   UNL     1      25.690 -16.665  -1.747 -0.51 -0.00    +0.000 A 
DOCKED: ATOM     10  C   UNL     1      26.670 -17.314  -0.977 -0.47 -0.00    +0.000 A 
DOCKED: ATOM     11  C   UNL     1      28.027 -17.110  -1.248 -0.34 -0.00    +0.000 A 
DOCKED: ATOM     12  C   UNL     1      28.415 -16.251  -2.279 -0.25 -0.00    +0.000 A 
DOCKED: ATOM     13  C   UNL     1      27.445 -15.591  -3.042 -0.30 -0.00    +0.000 A 
DOCKED: ATOM     14  C   UNL     1      26.087 -15.793  -2.775 -0.45 -0.00    +0.000 A 
DOCKED: ENDBRANCH   8   9
DOCKED: ENDBRANCH   1   8
DOCKED: TORSDOF 4
DOCKED: TER
DOCKED: ENDMDL
________________________________________________________________________________


	BEGINNING GENETIC ALGORITHM DOCKING 6 of 100
Run: 6 Seed: 1717230086 764609379 [ Run 6 of 100 GA/GALS ]
Beginning LAMARCKIAN GENETIC ALGORITHM (LGA), with a maximum of 2500000 energy evaluations.

Final-Value: -11.190


	FINAL GENETIC ALGORITHM DOCKED STATE
	_______________________________________________


Detailed state:  trans 25.120 -19.014 -0.382 quatxyzw -0.160967 0.503393 -0.713294 0.460322 center 0.534 -0.142 0.039 ntor 4 -68.1952 -124.1777 43.6340 116.8167
State:	 25.120 -19.014  -0.382  -0.181  0.567 -0.803 125.184    -68.20 -124.18   43.63  116.82

DOCKED: MODEL        6
DOCKED: USER    Run = 6
DOCKED: USER    DPF = ligand_dock.biased.dpf
DOCKED: USER  
DOCKED: USER    Estimated Free Energy of Binding    =   -9.50 kcal/mol  [=(1)+(2)+(3)-(4)]
DOCKED: USER    Estimated Inhibition Constant, Ki   =  108.60 nM (nanomolar)  [Temperature = 298.15 K]
DOCKED: USER    
DOCKED: USER    (1) Final Intermolecular Energy     =  -10.69 kcal/mol
DOCKED: USER        vdW + Hbond + desolv Energy     =  -10.69 kcal/mol
DOCKED: USER        Electrostatic Energy            =   +0.00 kcal/mol
DOCKED: USER    (2) Final Total Internal Energy     =   -0.50 kcal/mol
DOCKED: USER    (3) Torsional Free Energy           =   +1.19 kcal/mol
DOCKED: USER    (4) Unbound System's Energy  [=(2)] =   -0.50 kcal/mol
DOCKED: USER    
DOCKED: USER    
DOCKED: USER    NEWDPF move ligand.pdbqt
DOCKED: USER    NEWDPF about 0.534000 -0.142000 0.039000
DOCKED: USER    NEWDPF tran0 25.119560 -19.014169 -0.381996
DOCKED: USER    NEWDPF quaternion0 -0.160967 0.503393 -0.713294 0.460322
DOCKED: USER    NEWDPF axisangle0 -0.181320 0.567042 -0.803484 125.184194
DOCKED: USER    NEWDPF quat0 -0.181320 0.567042 -0.803484 125.184194
DOCKED: USER    NEWDPF dihe0 -68.20 -124.18 43.63 116.82 
DOCKED: USER  keepresnum = 1 
DOCKED: USER  
DOCKED: REMARK  Name = 
DOCKED: REMARK  4 active torsions:
DOCKED: REMARK  status: ('A' for Active; 'I' for Inactive)
DOCKED: REMARK    1  A    between atoms: C_3  and  C_4
DOCKED: REMARK    2  A    between atoms: C_4  and  C_5
DOCKED: REMARK    3  A    between atoms: C_5  and  C_6
DOCKED: REMARK    4  A    between atoms: C_6  and  C_7
DOCKED: REMARK                            x       y       z     vdW  Elec       q    Type
DOCKED: REMARK                         _______ _______ _______ _____ _____    ______ ____
DOCKED: USER                              x       y       z     vdW  Elec       q    Type
DOCKED: USER                           _______ _______ _______ _____ _____    ______ ____
DOCKED: ROOT
DOCKED: ATOM      1  C   UNL     1      23.908 -18.981  -1.037 -0.72 -0.00    +0.000 C 
DOCKED: ENDROOT
DOCKED: BRANCH   1   2
DOCKED: ATOM      2  C   UNL     1      22.870 -18.071  -0.364 -0.81 -0.00    +0.000 C 
DOCKED: BRANCH   2   5
DOCKED: ATOM      3  O   UNL     1      19.879 -19.747  -1.966 -2.36 -0.00    +0.000 OA
DOCKED: ATOM      4  N   UNL     1      21.111 -19.561  -1.441 -0.75 -0.00    +0.000 N 
DOCKED: ATOM      5  C   UNL     1      21.497 -18.282  -0.931 -0.76 -0.00    +0.000 C 
DOCKED: ATOM      6  O   UNL     1      20.689 -17.316  -0.983 -1.91 -0.00    +0.000 OA
DOCKED: ATOM      7  H   UNL     1      21.748 -20.312  -1.408 -0.31 -0.00    +0.000 HD
DOCKED: ENDBRANCH   2   5
DOCKED: ENDBRANCH   1   2
DOCKED: BRANCH   1   8
DOCKED: ATOM      8  C   UNL     1      25.348 -18.567  -0.706 -0.61 -0.00    +0.000 C 
DOCKED: BRANCH   8   9
DOCKED: ATOM      9  C   UNL     1      25.614 -17.162  -1.177 -0.55 -0.00    +0.000 A 
DOCKED: ATOM     10  C   UNL     1      26.245 -16.237  -0.329 -0.35 -0.00    +0.000 A 
DOCKED: ATOM     11  C   UNL     1      26.462 -14.923  -0.758 -0.31 -0.00    +0.000 A 
DOCKED: ATOM     12  C   UNL     1      26.043 -14.522  -2.028 -0.30 -0.00    +0.000 A 
DOCKED: ATOM     13  C   UNL     1      25.402 -15.434  -2.873 -0.46 -0.00    +0.000 A 
DOCKED: ATOM     14  C   UNL     1      25.182 -16.748  -2.449 -0.48 -0.00    +0.000 A 
DOCKED: ENDBRANCH   8   9
DOCKED: ENDBRANCH   1   8
DOCKED: TORSDOF 4
DOCKED: TER
DOCKED: ENDMDL
________________________________________________________________________________


	BEGINNING GENETIC ALGORITHM DOCKING 7 of 100
Run: 7 Seed: 1578190483 539089148 [ Run 7 of 100 GA/GALS ]
Beginning LAMARCKIAN GENETIC ALGORITHM (LGA), with a maximum of 2500000 energy evaluations.

Final-Value: -11.056


	FINAL GENETIC ALGORITHM DOCKED STATE
	_______________________________________________


Detailed state:  trans 25.248 -18.105 0.023 quatxyzw -0.129657 -0.003100 0.854665 -0.502719 center 0.534 -0.142 0.039 ntor 4 -145.1430 -132.8401 -171.9916 -177.4027
State:	 25.248 -18.105   0.023  -0.150 -0.004  0.989 -119.640   -145.14 -132.84 -171.99 -177.40

DOCKED: MODEL        7
DOCKED: USER    Run = 7
DOCKED: USER    DPF = ligand_dock.biased.dpf
DOCKED: USER  
DOCKED: USER    Estimated Free Energy of Binding    =   -9.45 kcal/mol  [=(1)+(2)+(3)-(4)]
DOCKED: USER    Estimated Inhibition Constant, Ki   =  117.87 nM (nanomolar)  [Temperature = 298.15 K]
DOCKED: USER    
DOCKED: USER    (1) Final Intermolecular Energy     =  -10.65 kcal/mol
DOCKED: USER        vdW + Hbond + desolv Energy     =  -10.65 kcal/mol
DOCKED: USER        Electrostatic Energy            =   +0.00 kcal/mol
DOCKED: USER    (2) Final Total Internal Energy     =   -0.41 kcal/mol
DOCKED: USER    (3) Torsional Free Energy           =   +1.19 kcal/mol
DOCKED: USER    (4) Unbound System's Energy  [=(2)] =   -0.41 kcal/mol
DOCKED: USER    
DOCKED: USER    
DOCKED: USER    NEWDPF move ligand.pdbqt
DOCKED: USER    NEWDPF about 0.534000 -0.142000 0.039000
DOCKED: USER    NEWDPF tran0 25.248310 -18.104551 0.023449
DOCKED: USER    NEWDPF quaternion0 -0.129657 -0.003100 0.854665 -0.502719
DOCKED: USER    NEWDPF axisangle0 -0.149988 -0.003586 0.988681 -119.639908
DOCKED: USER    NEWDPF quat0 -0.149988 -0.003586 0.988681 -119.639908
DOCKED: USER    NEWDPF dihe0 -145.14 -132.84 -171.99 -177.40 
DOCKED: USER  keepresnum = 1 
DOCKED: USER  
DOCKED: REMARK  Name = 
DOCKED: REMARK  4 active torsions:
DOCKED: REMARK  status: ('A' for Active; 'I' for Inactive)
DOCKED: REMARK    1  A    between atoms: C_3  and  C_4
DOCKED: REMARK    2  A    between atoms: C_4  and  C_5
DOCKED: REMARK    3  A    between atoms: C_5  and  C_6
DOCKED: REMARK    4  A    between atoms: C_6  and  C_7
DOCKED: REMARK                            x       y       z     vdW  Elec       q    Type
DOCKED: REMARK                         _______ _______ _______ _____ _____    ______ ____
DOCKED: USER                              x       y       z     vdW  Elec       q    Type
DOCKED: USER                           _______ _______ _______ _____ _____    ______ ____
DOCKED: ROOT
DOCKED: ATOM      1  C   UNL     1      23.995 -18.613  -0.238 -0.68 -0.00    +0.000 C 
DOCKED: ENDROOT
DOCKED: BRANCH   1   2
DOCKED: ATOM      2  C   UNL     1      23.032 -17.587  -0.852 -0.76 -0.00    +0.000 C 
DOCKED: BRANCH   2   5
DOCKED: ATOM      3  O   UNL     1      20.252 -19.962  -1.832 -2.33 -0.00    +0.000 OA
DOCKED: ATOM      4  N   UNL     1      21.490 -19.451  -1.642 -0.63 -0.00    +0.000 N 
DOCKED: ATOM      5  C   UNL     1      21.659 -18.161  -1.046 -0.69 -0.00    +0.000 C 
DOCKED: ATOM      6  O   UNL     1      20.648 -17.489  -0.708 -2.09 +0.00    +0.000 OA
DOCKED: ATOM      7  H   UNL     1      22.282 -19.970  -1.915 -0.46 -0.00    +0.000 HD
DOCKED: ENDBRANCH   2   5
DOCKED: ENDBRANCH   1   2
DOCKED: BRANCH   1   8
DOCKED: ATOM      8  C   UNL     1      25.465 -18.267  -0.510 -0.68 -0.00    +0.000 C 
DOCKED: BRANCH   8   9
DOCKED: ATOM      9  C   UNL     1      25.575 -16.933  -1.198 -0.54 -0.00    +0.000 A 
DOCKED: ATOM     10  C   UNL     1      25.400 -16.835  -2.589 -0.40 -0.00    +0.000 A 
DOCKED: ATOM     11  C   UNL     1      25.534 -15.600  -3.230 -0.50 -0.00    +0.000 A 
DOCKED: ATOM     12  C   UNL     1      25.854 -14.458  -2.492 -0.33 -0.00    +0.000 A 
DOCKED: ATOM     13  C   UNL     1      26.043 -14.549  -1.109 -0.28 -0.00    +0.000 A 
DOCKED: ATOM     14  C   UNL     1      25.909 -15.783  -0.464 -0.27 -0.00    +0.000 A 
DOCKED: ENDBRANCH   8   9
DOCKED: ENDBRANCH   1   8
DOCKED: TORSDOF 4
DOCKED: TER
DOCKED: ENDMDL
________________________________________________________________________________


	BEGINNING GENETIC ALGORITHM DOCKING 8 of 100
Run: 8 Seed: 2131884528 1778227982 [ Run 8 of 100 GA/GALS ]
Beginning LAMARCKIAN GENETIC ALGORITHM (LGA), with a maximum of 2500000 energy evaluations.

Final-Value: -10.985


	FINAL GENETIC ALGORITHM DOCKED STATE
	_______________________________________________


Detailed state:  trans 24.974 -17.207 -0.844 quatxyzw 0.576257 -0.540584 0.607989 -0.077757 center 0.534 -0.142 0.039 ntor 4 -5.7471 -165.9575 -6.9737 -36.3976
State:	 24.974 -17.207  -0.844   0.578 -0.542  0.610 -171.081     -5.75 -165.96   -6.97  -36.40

DOCKED: MODEL        8
DOCKED: USER    Run = 8
DOCKED: USER    DPF = ligand_dock.biased.dpf
DOCKED: USER  
DOCKED: USER    Estimated Free Energy of Binding    =   -9.46 kcal/mol  [=(1)+(2)+(3)-(4)]
DOCKED: USER    Estimated Inhibition Constant, Ki   =  116.60 nM (nanomolar)  [Temperature = 298.15 K]
DOCKED: USER    
DOCKED: USER    (1) Final Intermolecular Energy     =  -10.65 kcal/mol
DOCKED: USER        vdW + Hbond + desolv Energy     =  -10.65 kcal/mol
DOCKED: USER        Electrostatic Energy            =   +0.00 kcal/mol
DOCKED: USER    (2) Final Total Internal Energy     =   -0.33 kcal/mol
DOCKED: USER    (3) Torsional Free Energy           =   +1.19 kcal/mol
DOCKED: USER    (4) Unbound System's Energy  [=(2)] =   -0.33 kcal/mol
DOCKED: USER    
DOCKED: USER    
DOCKED: USER    NEWDPF move ligand.pdbqt
DOCKED: USER    NEWDPF about 0.534000 -0.142000 0.039000
DOCKED: USER    NEWDPF tran0 24.974087 -17.206862 -0.843705
DOCKED: USER    NEWDPF quaternion0 0.576257 -0.540584 0.607989 -0.077757
DOCKED: USER    NEWDPF axisangle0 0.578007 -0.542226 0.609835 -171.080705
DOCKED: USER    NEWDPF quat0 0.578007 -0.542226 0.609835 -171.080705
DOCKED: USER    NEWDPF dihe0 -5.75 -165.96 -6.97 -36.40 
DOCKED: USER  keepresnum = 1 
DOCKED: USER  
DOCKED: REMARK  Name = 
DOCKED: REMARK  4 active torsions:
DOCKED: REMARK  status: ('A' for Active; 'I' for Inactive)
DOCKED: REMARK    1  A    between atoms: C_3  and  C_4
DOCKED: REMARK    2  A    between atoms: C_4  and  C_5
DOCKED: REMARK    3  A    between atoms: C_5  and  C_6
DOCKED: REMARK    4  A    between atoms: C_6  and  C_7
DOCKED: REMARK                            x       y       z     vdW  Elec       q    Type
DOCKED: REMARK                         _______ _______ _______ _____ _____    ______ ____
DOCKED: USER                              x       y       z     vdW  Elec       q    Type
DOCKED: USER                           _______ _______ _______ _____ _____    ______ ____
DOCKED: ROOT
DOCKED: ATOM      1  C   UNL     1      23.911 -17.836  -1.454 -0.74 -0.00    +0.000 C 
DOCKED: ENDROOT
DOCKED: BRANCH   1   2
DOCKED: ATOM      2  C   UNL     1      22.996 -18.584  -0.475 -0.83 -0.00    +0.000 C 
DOCKED: BRANCH   2   5
DOCKED: ATOM      3  O   UNL     1      19.837 -19.765  -2.193 -2.26 -0.00    +0.000 OA
DOCKED: ATOM      4  N   UNL     1      21.111 -19.734  -1.739 -0.64 -0.00    +0.000 N 
DOCKED: ATOM      5  C   UNL     1      21.577 -18.627  -0.963 -0.82 -0.00    +0.000 C 
DOCKED: ATOM      6  O   UNL     1      20.801 -17.667  -0.710 -2.17 +0.00    +0.000 OA
DOCKED: ATOM      7  H   UNL     1      21.722 -20.478  -1.945 -0.46 -0.00    +0.000 HD
DOCKED: ENDBRANCH   2   5
DOCKED: ENDBRANCH   1   2
DOCKED: BRANCH   1   8
DOCKED: ATOM      8  C   UNL     1      24.677 -16.692  -0.776 -0.57 -0.00    +0.000 C 
DOCKED: BRANCH   8   9
DOCKED: ATOM      9  C   UNL     1      26.039 -16.528  -1.398 -0.47 -0.00    +0.000 A 
DOCKED: ATOM     10  C   UNL     1      26.192 -15.793  -2.585 -0.43 -0.00    +0.000 A 
DOCKED: ATOM     11  C   UNL     1      27.453 -15.669  -3.178 -0.29 -0.00    +0.000 A 
DOCKED: ATOM     12  C   UNL     1      28.564 -16.285  -2.598 -0.24 -0.00    +0.000 A 
DOCKED: ATOM     13  C   UNL     1      28.417 -17.030  -1.423 -0.30 -0.00    +0.000 A 
DOCKED: ATOM     14  C   UNL     1      27.158 -17.156  -0.827 -0.43 -0.00    +0.000 A 
DOCKED: ENDBRANCH   8   9
DOCKED: ENDBRANCH   1   8
DOCKED: TORSDOF 4
DOCKED: TER
DOCKED: ENDMDL
________________________________________________________________________________


	BEGINNING GENETIC ALGORITHM DOCKING 9 of 100
Run: 9 Seed: 1408109468 389831070 [ Run 9 of 100 GA/GALS ]
Beginning LAMARCKIAN GENETIC ALGORITHM (LGA), with a maximum of 2500000 energy evaluations.

Final-Value: -11.062


	FINAL GENETIC ALGORITHM DOCKED STATE
	_______________________________________________


Detailed state:  trans 24.914 -17.184 -1.072 quatxyzw -0.602405 0.643766 0.466778 -0.069223 center 0.534 -0.142 0.039 ntor 4 70.4784 -101.4914 -171.3312 -65.7431
State:	 24.914 -17.184  -1.072  -0.604  0.645  0.468 -172.061     70.48 -101.49 -171.33  -65.74

DOCKED: MODEL        9
DOCKED: USER    Run = 9
DOCKED: USER    DPF = ligand_dock.biased.dpf
DOCKED: USER  
DOCKED: USER    Estimated Free Energy of Binding    =   -9.51 kcal/mol  [=(1)+(2)+(3)-(4)]
DOCKED: USER    Estimated Inhibition Constant, Ki   =  106.90 nM (nanomolar)  [Temperature = 298.15 K]
DOCKED: USER    
DOCKED: USER    (1) Final Intermolecular Energy     =  -10.70 kcal/mol
DOCKED: USER        vdW + Hbond + desolv Energy     =  -10.70 kcal/mol
DOCKED: USER        Electrostatic Energy            =   +0.00 kcal/mol
DOCKED: USER    (2) Final Total Internal Energy     =   -0.36 kcal/mol
DOCKED: USER    (3) Torsional Free Energy           =   +1.19 kcal/mol
DOCKED: USER    (4) Unbound System's Energy  [=(2)] =   -0.36 kcal/mol
DOCKED: USER    
DOCKED: USER    
DOCKED: USER    NEWDPF move ligand.pdbqt
DOCKED: USER    NEWDPF about 0.534000 -0.142000 0.039000
DOCKED: USER    NEWDPF tran0 24.913556 -17.183923 -1.071720
DOCKED: USER    NEWDPF quaternion0 -0.602405 0.643766 0.466778 -0.069223
DOCKED: USER    NEWDPF axisangle0 -0.603854 0.645314 0.467901 -172.061302
DOCKED: USER    NEWDPF quat0 -0.603854 0.645314 0.467901 -172.061302
DOCKED: USER    NEWDPF dihe0 70.48 -101.49 -171.33 -65.74 
DOCKED: USER  keepresnum = 1 
DOCKED: USER  
DOCKED: REMARK  Name = 
DOCKED: REMARK  4 active torsions:
DOCKED: REMARK  status: ('A' for Active; 'I' for Inactive)
DOCKED: REMARK    1  A    between atoms: C_3  and  C_4
DOCKED: REMARK    2  A    between atoms: C_4  and  C_5
DOCKED: REMARK    3  A    between atoms: C_5  and  C_6
DOCKED: REMARK    4  A    between atoms: C_6  and  C_7
DOCKED: REMARK                            x       y       z     vdW  Elec       q    Type
DOCKED: REMARK                         _______ _______ _______ _____ _____    ______ ____
DOCKED: USER                              x       y       z     vdW  Elec       q    Type
DOCKED: USER                           _______ _______ _______ _____ _____    ______ ____
DOCKED: ROOT
DOCKED: ATOM      1  C   UNL     1      23.732 -17.568  -0.476 -0.72 -0.00    +0.000 C 
DOCKED: ENDROOT
DOCKED: BRANCH   1   2
DOCKED: ATOM      2  C   UNL     1      23.125 -18.842  -1.081 -0.81 -0.00    +0.000 C 
DOCKED: BRANCH   2   5
DOCKED: ATOM      3  O   UNL     1      19.519 -19.720  -1.821 -2.13 -0.00    +0.000 OA
DOCKED: ATOM      4  N   UNL     1      20.870 -19.770  -1.808 -0.68 -0.00    +0.000 N 
DOCKED: ATOM      5  C   UNL     1      21.625 -18.797  -1.080 -0.82 -0.00    +0.000 C 
DOCKED: ATOM      6  O   UNL     1      21.029 -17.878  -0.457 -2.00 -0.00    +0.000 OA
DOCKED: ATOM      7  H   UNL     1      21.339 -20.481  -2.302 -0.52 -0.00    +0.000 HD
DOCKED: ENDBRANCH   2   5
DOCKED: ENDBRANCH   1   2
DOCKED: BRANCH   1   8
DOCKED: ATOM      8  C   UNL     1      25.250 -17.491  -0.685 -0.67 -0.00    +0.000 C 
DOCKED: BRANCH   8   9
DOCKED: ATOM      9  C   UNL     1      25.607 -16.299  -1.532 -0.49 -0.00    +0.000 A 
DOCKED: ATOM     10  C   UNL     1      25.507 -16.369  -2.932 -0.44 -0.00    +0.000 A 
DOCKED: ATOM     11  C   UNL     1      25.869 -15.271  -3.719 -0.52 -0.00    +0.000 A 
DOCKED: ATOM     12  C   UNL     1      26.342 -14.102  -3.117 -0.33 -0.00    +0.000 A 
DOCKED: ATOM     13  C   UNL     1      26.458 -14.030  -1.725 -0.22 -0.00    +0.000 A 
DOCKED: ATOM     14  C   UNL     1      26.096 -15.125  -0.934 -0.34 -0.00    +0.000 A 
DOCKED: ENDBRANCH   8   9
DOCKED: ENDBRANCH   1   8
DOCKED: TORSDOF 4
DOCKED: TER
DOCKED: ENDMDL
________________________________________________________________________________


	BEGINNING GENETIC ALGORITHM DOCKING 10 of 100
Run: 10 Seed: 330842774 103000387 [ Run 10 of 100 GA/GALS ]
Beginning LAMARCKIAN GENETIC ALGORITHM (LGA), with a maximum of 2500000 energy evaluations.

Final-Value: -11.072


	FINAL GENETIC ALGORITHM DOCKED STATE
	_______________________________________________


Detailed state:  trans 24.892 -17.143 -1.162 quatxyzw 0.608552 -0.655512 -0.444342 0.050291 center 0.534 -0.142 0.039 ntor 4 67.1790 -101.7056 -172.2972 -63.5317
State:	 24.892 -17.143  -1.162   0.609 -0.656 -0.445 174.235     67.18 -101.71 -172.30  -63.53

DOCKED: MODEL       10
DOCKED: USER    Run = 10
DOCKED: USER    DPF = ligand_dock.biased.dpf
DOCKED: USER  
DOCKED: USER    Estimated Free Energy of Binding    =   -9.53 kcal/mol  [=(1)+(2)+(3)-(4)]
DOCKED: USER    Estimated Inhibition Constant, Ki   =  104.16 nM (nanomolar)  [Temperature = 298.15 K]
DOCKED: USER    
DOCKED: USER    (1) Final Intermolecular Energy     =  -10.72 kcal/mol
DOCKED: USER        vdW + Hbond + desolv Energy     =  -10.72 kcal/mol
DOCKED: USER        Electrostatic Energy            =   +0.00 kcal/mol
DOCKED: USER    (2) Final Total Internal Energy     =   -0.35 kcal/mol
DOCKED: USER    (3) Torsional Free Energy           =   +1.19 kcal/mol
DOCKED: USER    (4) Unbound System's Energy  [=(2)] =   -0.35 kcal/mol
DOCKED: USER    
DOCKED: USER    
DOCKED: USER    NEWDPF move ligand.pdbqt
DOCKED: USER    NEWDPF about 0.534000 -0.142000 0.039000
DOCKED: USER    NEWDPF tran0 24.892400 -17.142850 -1.162033
DOCKED: USER    NEWDPF quaternion0 0.608552 -0.655512 -0.444342 0.050291
DOCKED: USER    NEWDPF axisangle0 0.609323 -0.656342 -0.444905 174.234677
DOCKED: USER    NEWDPF quat0 0.609323 -0.656342 -0.444905 174.234677
DOCKED: USER    NEWDPF dihe0 67.18 -101.71 -172.30 -63.53 
DOCKED: USER  keepresnum = 1 
DOCKED: USER  
DOCKED: REMARK  Name = 
DOCKED: REMARK  4 active torsions:
DOCKED: REMARK  status: ('A' for Active; 'I' for Inactive)
DOCKED: REMARK    1  A    between atoms: C_3  and  C_4
DOCKED: REMARK    2  A    between atoms: C_4  and  C_5
DOCKED: REMARK    3  A    between atoms: C_5  and  C_6
DOCKED: REMARK    4  A    between atoms: C_6  and  C_7
DOCKED: REMARK                            x       y       z     vdW  Elec       q    Type
DOCKED: REMARK                         _______ _______ _______ _____ _____    ______ ____
DOCKED: USER                              x       y       z     vdW  Elec       q    Type
DOCKED: USER                           _______ _______ _______ _____ _____    ______ ____
DOCKED: ROOT
DOCKED: ATOM      1  C   UNL     1      23.710 -17.499  -0.551 -0.72 -0.00    +0.000 C 
DOCKED: ENDROOT
DOCKED: BRANCH   1   2
DOCKED: ATOM      2  C   UNL     1      23.117 -18.813  -1.078 -0.81 -0.00    +0.000 C 
DOCKED: BRANCH   2   5
DOCKED: ATOM      3  O   UNL     1      19.524 -19.730  -1.832 -2.15 -0.00    +0.000 OA
DOCKED: ATOM      4  N   UNL     1      20.876 -19.766  -1.812 -0.68 -0.00    +0.000 N 
DOCKED: ATOM      5  C   UNL     1      21.617 -18.783  -1.085 -0.82 -0.00    +0.000 C 
DOCKED: ATOM      6  O   UNL     1      21.009 -17.867  -0.469 -2.02 -0.00    +0.000 OA
DOCKED: ATOM      7  H   UNL     1      21.354 -20.475  -2.301 -0.53 -0.00    +0.000 HD
DOCKED: ENDBRANCH   2   5
DOCKED: ENDBRANCH   1   2
DOCKED: BRANCH   1   8
DOCKED: ATOM      8  C   UNL     1      25.229 -17.422  -0.754 -0.67 -0.00    +0.000 C 
DOCKED: BRANCH   8   9
DOCKED: ATOM      9  C   UNL     1      25.586 -16.250  -1.630 -0.49 -0.00    +0.000 A 
DOCKED: ATOM     10  C   UNL     1      25.512 -16.362  -3.029 -0.41 -0.00    +0.000 A 
DOCKED: ATOM     11  C   UNL     1      25.875 -15.283  -3.841 -0.53 -0.00    +0.000 A 
DOCKED: ATOM     12  C   UNL     1      26.323 -14.092  -3.265 -0.35 -0.00    +0.000 A 
DOCKED: ATOM     13  C   UNL     1      26.411 -13.977  -1.874 -0.20 -0.00    +0.000 A 
DOCKED: ATOM     14  C   UNL     1      26.049 -15.054  -1.058 -0.34 -0.00    +0.000 A 
DOCKED: ENDBRANCH   8   9
DOCKED: ENDBRANCH   1   8
DOCKED: TORSDOF 4
DOCKED: TER
DOCKED: ENDMDL
________________________________________________________________________________


	BEGINNING GENETIC ALGORITHM DOCKING 11 of 100
Run: 11 Seed: 728282982 1749967585 [ Run 11 of 100 GA/GALS ]
Beginning LAMARCKIAN GENETIC ALGORITHM (LGA), with a maximum of 2500000 energy evaluations.

Final-Value: -11.194


	FINAL GENETIC ALGORITHM DOCKED STATE
	_______________________________________________


Detailed state:  trans 24.639 -16.958 -0.761 quatxyzw -0.482546 0.268330 -0.829661 0.082526 center 0.534 -0.142 0.039 ntor 4 -15.2643 163.4705 -158.2038 -12.7635
State:	 24.639 -16.958  -0.761  -0.484  0.269 -0.833 170.532    -15.26  163.47 -158.20  -12.76

DOCKED: MODEL       11
DOCKED: USER    Run = 11
DOCKED: USER    DPF = ligand_dock.biased.dpf
DOCKED: USER  
DOCKED: USER    Estimated Free Energy of Binding    =   -9.64 kcal/mol  [=(1)+(2)+(3)-(4)]
DOCKED: USER    Estimated Inhibition Constant, Ki   =   86.32 nM (nanomolar)  [Temperature = 298.15 K]
DOCKED: USER    
DOCKED: USER    (1) Final Intermolecular Energy     =  -10.83 kcal/mol
DOCKED: USER        vdW + Hbond + desolv Energy     =  -10.83 kcal/mol
DOCKED: USER        Electrostatic Energy            =   +0.00 kcal/mol
DOCKED: USER    (2) Final Total Internal Energy     =   -0.36 kcal/mol
DOCKED: USER    (3) Torsional Free Energy           =   +1.19 kcal/mol
DOCKED: USER    (4) Unbound System's Energy  [=(2)] =   -0.36 kcal/mol
DOCKED: USER    
DOCKED: USER    
DOCKED: USER    NEWDPF move ligand.pdbqt
DOCKED: USER    NEWDPF about 0.534000 -0.142000 0.039000
DOCKED: USER    NEWDPF tran0 24.638899 -16.958182 -0.760982
DOCKED: USER    NEWDPF quaternion0 -0.482546 0.268330 -0.829661 0.082526
DOCKED: USER    NEWDPF axisangle0 -0.484198 0.269248 -0.832501 170.532445
DOCKED: USER    NEWDPF quat0 -0.484198 0.269248 -0.832501 170.532445
DOCKED: USER    NEWDPF dihe0 -15.26 163.47 -158.20 -12.76 
DOCKED: USER  keepresnum = 1 
DOCKED: USER  
DOCKED: REMARK  Name = 
DOCKED: REMARK  4 active torsions:
DOCKED: REMARK  status: ('A' for Active; 'I' for Inactive)
DOCKED: REMARK    1  A    between atoms: C_3  and  C_4
DOCKED: REMARK    2  A    between atoms: C_4  and  C_5
DOCKED: REMARK    3  A    between atoms: C_5  and  C_6
DOCKED: REMARK    4  A    between atoms: C_6  and  C_7
DOCKED: REMARK                            x       y       z     vdW  Elec       q    Type
DOCKED: REMARK                         _______ _______ _______ _____ _____    ______ ____
DOCKED: USER                              x       y       z     vdW  Elec       q    Type
DOCKED: USER                           _______ _______ _______ _____ _____    ______ ____
DOCKED: ROOT
DOCKED: ATOM      1  C   UNL     1      23.970 -18.113  -1.105 -0.79 -0.00    +0.000 C 
DOCKED: ENDROOT
DOCKED: BRANCH   1   2
DOCKED: ATOM      2  C   UNL     1      22.862 -18.500  -0.116 -0.78 -0.00    +0.000 C 
DOCKED: BRANCH   2   5
DOCKED: ATOM      3  O   UNL     1      19.890 -19.734  -2.108 -2.34 -0.00    +0.000 OA
DOCKED: ATOM      4  N   UNL     1      21.097 -19.703  -1.497 -0.71 -0.00    +0.000 N 
DOCKED: ATOM      5  C   UNL     1      21.516 -18.540  -0.778 -0.84 -0.00    +0.000 C 
DOCKED: ATOM      6  O   UNL     1      20.763 -17.531  -0.722 -2.10 +0.00    +0.000 OA
DOCKED: ATOM      7  H   UNL     1      21.692 -20.487  -1.548 -0.31 -0.00    +0.000 HD
DOCKED: ENDBRANCH   2   5
DOCKED: ENDBRANCH   1   2
DOCKED: BRANCH   1   8
DOCKED: ATOM      8  C   UNL     1      24.274 -16.609  -1.081 -0.55 -0.00    +0.000 C 
DOCKED: BRANCH   8   9
DOCKED: ATOM      9  C   UNL     1      25.516 -16.308  -1.878 -0.50 -0.00    +0.000 A 
DOCKED: ATOM     10  C   UNL     1      26.773 -16.736  -1.421 -0.42 -0.00    +0.000 A 
DOCKED: ATOM     11  C   UNL     1      27.928 -16.428  -2.146 -0.28 -0.00    +0.000 A 
DOCKED: ATOM     12  C   UNL     1      27.838 -15.683  -3.324 -0.27 -0.00    +0.000 A 
DOCKED: ATOM     13  C   UNL     1      26.591 -15.241  -3.779 -0.45 -0.00    +0.000 A 
DOCKED: ATOM     14  C   UNL     1      25.433 -15.548  -3.056 -0.47 -0.00    +0.000 A 
DOCKED: ENDBRANCH   8   9
DOCKED: ENDBRANCH   1   8
DOCKED: TORSDOF 4
DOCKED: TER
DOCKED: ENDMDL
________________________________________________________________________________


	BEGINNING GENETIC ALGORITHM DOCKING 12 of 100
Run: 12 Seed: 1556895557 844256252 [ Run 12 of 100 GA/GALS ]
Beginning LAMARCKIAN GENETIC ALGORITHM (LGA), with a maximum of 2500000 energy evaluations.

Final-Value: -11.160


	FINAL GENETIC ALGORITHM DOCKED STATE
	_______________________________________________


Detailed state:  trans 24.911 -16.982 -1.057 quatxyzw 0.555649 -0.377115 0.733305 -0.106313 center 0.534 -0.142 0.039 ntor 4 -9.0917 176.7524 -175.3673 -18.6080
State:	 24.911 -16.982  -1.057   0.559 -0.379  0.737 -167.794     -9.09  176.75 -175.37  -18.61

DOCKED: MODEL       12
DOCKED: USER    Run = 12
DOCKED: USER    DPF = ligand_dock.biased.dpf
DOCKED: USER  
DOCKED: USER    Estimated Free Energy of Binding    =   -9.62 kcal/mol  [=(1)+(2)+(3)-(4)]
DOCKED: USER    Estimated Inhibition Constant, Ki   =   88.62 nM (nanomolar)  [Temperature = 298.15 K]
DOCKED: USER    
DOCKED: USER    (1) Final Intermolecular Energy     =  -10.81 kcal/mol
DOCKED: USER        vdW + Hbond + desolv Energy     =  -10.81 kcal/mol
DOCKED: USER        Electrostatic Energy            =   +0.00 kcal/mol
DOCKED: USER    (2) Final Total Internal Energy     =   -0.35 kcal/mol
DOCKED: USER    (3) Torsional Free Energy           =   +1.19 kcal/mol
DOCKED: USER    (4) Unbound System's Energy  [=(2)] =   -0.35 kcal/mol
DOCKED: USER    
DOCKED: USER    
DOCKED: USER    NEWDPF move ligand.pdbqt
DOCKED: USER    NEWDPF about 0.534000 -0.142000 0.039000
DOCKED: USER    NEWDPF tran0 24.910529 -16.981787 -1.056835
DOCKED: USER    NEWDPF quaternion0 0.555649 -0.377115 0.733305 -0.106313
DOCKED: USER    NEWDPF axisangle0 0.558816 -0.379265 0.737484 -167.794307
DOCKED: USER    NEWDPF quat0 0.558816 -0.379265 0.737484 -167.794307
DOCKED: USER    NEWDPF dihe0 -9.09 176.75 -175.37 -18.61 
DOCKED: USER  keepresnum = 1 
DOCKED: USER  
DOCKED: REMARK  Name = 
DOCKED: REMARK  4 active torsions:
DOCKED: REMARK  status: ('A' for Active; 'I' for Inactive)
DOCKED: REMARK    1  A    between atoms: C_3  and  C_4
DOCKED: REMARK    2  A    between atoms: C_4  and  C_5
DOCKED: REMARK    3  A    between atoms: C_5  and  C_6
DOCKED: REMARK    4  A    between atoms: C_6  and  C_7
DOCKED: REMARK                            x       y       z     vdW  Elec       q    Type
DOCKED: REMARK                         _______ _______ _______ _____ _____    ______ ____
DOCKED: USER                              x       y       z     vdW  Elec       q    Type
DOCKED: USER                           _______ _______ _______ _____ _____    ______ ____
DOCKED: ROOT
DOCKED: ATOM      1  C   UNL     1      24.031 -17.956  -1.476 -0.74 -0.00    +0.000 C 
DOCKED: ENDROOT
DOCKED: BRANCH   1   2
DOCKED: ATOM      2  C   UNL     1      23.090 -18.452  -0.369 -0.82 -0.00    +0.000 C 
DOCKED: BRANCH   2   5
DOCKED: ATOM      3  O   UNL     1      19.868 -19.735  -1.883 -2.38 -0.00    +0.000 OA
DOCKED: ATOM      4  N   UNL     1      21.148 -19.690  -1.449 -0.71 -0.00    +0.000 N 
DOCKED: ATOM      5  C   UNL     1      21.665 -18.507  -0.834 -0.83 -0.00    +0.000 C 
DOCKED: ATOM      6  O   UNL     1      20.928 -17.493  -0.706 -2.08 +0.00    +0.000 OA
DOCKED: ATOM      7  H   UNL     1      21.730 -20.478  -1.557 -0.32 -0.00    +0.000 HD
DOCKED: ENDBRANCH   2   5
DOCKED: ENDBRANCH   1   2
DOCKED: BRANCH   1   8
DOCKED: ATOM      8  C   UNL     1      24.545 -16.535  -1.210 -0.57 -0.00    +0.000 C 
DOCKED: BRANCH   8   9
DOCKED: ATOM      9  C   UNL     1      25.732 -16.231  -2.084 -0.48 -0.00    +0.000 A 
DOCKED: ATOM     10  C   UNL     1      27.026 -16.595  -1.675 -0.37 -0.00    +0.000 A 
DOCKED: ATOM     11  C   UNL     1      28.131 -16.282  -2.474 -0.26 -0.00    +0.000 A 
DOCKED: ATOM     12  C   UNL     1      27.953 -15.597  -3.678 -0.28 -0.00    +0.000 A 
DOCKED: ATOM     13  C   UNL     1      26.670 -15.220  -4.086 -0.46 -0.00    +0.000 A 
DOCKED: ATOM     14  C   UNL     1      25.562 -15.530  -3.290 -0.50 -0.00    +0.000 A 
DOCKED: ENDBRANCH   8   9
DOCKED: ENDBRANCH   1   8
DOCKED: TORSDOF 4
DOCKED: TER
DOCKED: ENDMDL
________________________________________________________________________________


	BEGINNING GENETIC ALGORITHM DOCKING 13 of 100
Run: 13 Seed: 477741915 68098216 [ Run 13 of 100 GA/GALS ]
Beginning LAMARCKIAN GENETIC ALGORITHM (LGA), with a maximum of 2500000 energy evaluations.

Final-Value: -11.063


	FINAL GENETIC ALGORITHM DOCKED STATE
	_______________________________________________


Detailed state:  trans 25.034 -17.097 -1.273 quatxyzw -0.639937 0.745013 0.184043 0.039546 center 0.534 -0.142 0.039 ntor 4 43.0128 -102.0521 34.7481 -38.3687
State:	 25.034 -17.097  -1.273  -0.640  0.746  0.184 175.467     43.01 -102.05   34.75  -38.37

DOCKED: MODEL       13
DOCKED: USER    Run = 13
DOCKED: USER    DPF = ligand_dock.biased.dpf
DOCKED: USER  
DOCKED: USER    Estimated Free Energy of Binding    =   -9.54 kcal/mol  [=(1)+(2)+(3)-(4)]
DOCKED: USER    Estimated Inhibition Constant, Ki   =  102.18 nM (nanomolar)  [Temperature = 298.15 K]
DOCKED: USER    
DOCKED: USER    (1) Final Intermolecular Energy     =  -10.73 kcal/mol
DOCKED: USER        vdW + Hbond + desolv Energy     =  -10.73 kcal/mol
DOCKED: USER        Electrostatic Energy            =   +0.00 kcal/mol
DOCKED: USER    (2) Final Total Internal Energy     =   -0.33 kcal/mol
DOCKED: USER    (3) Torsional Free Energy           =   +1.19 kcal/mol
DOCKED: USER    (4) Unbound System's Energy  [=(2)] =   -0.33 kcal/mol
DOCKED: USER    
DOCKED: USER    
DOCKED: USER    NEWDPF move ligand.pdbqt
DOCKED: USER    NEWDPF about 0.534000 -0.142000 0.039000
DOCKED: USER    NEWDPF tran0 25.033511 -17.097036 -1.273214
DOCKED: USER    NEWDPF quaternion0 -0.639937 0.745013 0.184043 0.039546
DOCKED: USER    NEWDPF axisangle0 -0.640438 0.745596 0.184187 175.467132
DOCKED: USER    NEWDPF quat0 -0.640438 0.745596 0.184187 175.467132
DOCKED: USER    NEWDPF dihe0 43.01 -102.05 34.75 -38.37 
DOCKED: USER  keepresnum = 1 
DOCKED: USER  
DOCKED: REMARK  Name = 
DOCKED: REMARK  4 active torsions:
DOCKED: REMARK  status: ('A' for Active; 'I' for Inactive)
DOCKED: REMARK    1  A    between atoms: C_3  and  C_4
DOCKED: REMARK    2  A    between atoms: C_4  and  C_5
DOCKED: REMARK    3  A    between atoms: C_5  and  C_6
DOCKED: REMARK    4  A    between atoms: C_6  and  C_7
DOCKED: REMARK                            x       y       z     vdW  Elec       q    Type
DOCKED: REMARK                         _______ _______ _______ _____ _____    ______ ____
DOCKED: USER                              x       y       z     vdW  Elec       q    Type
DOCKED: USER                           _______ _______ _______ _____ _____    ______ ____
DOCKED: ROOT
DOCKED: ATOM      1  C   UNL     1      23.729 -17.142  -0.834 -0.70 -0.00    +0.000 C 
DOCKED: ENDROOT
DOCKED: BRANCH   1   2
DOCKED: ATOM      2  C   UNL     1      23.164 -18.565  -0.729 -0.83 -0.00    +0.000 C 
DOCKED: BRANCH   2   5
DOCKED: ATOM      3  O   UNL     1      19.843 -19.735  -2.119 -2.30 -0.00    +0.000 OA
DOCKED: ATOM      4  N   UNL     1      21.159 -19.703  -1.805 -0.60 -0.00    +0.000 N 
DOCKED: ATOM      5  C   UNL     1      21.701 -18.609  -1.062 -0.81 -0.00    +0.000 C 
DOCKED: ATOM      6  O   UNL     1      20.953 -17.659  -0.707 -2.13 -0.00    +0.000 OA
DOCKED: ATOM      7  H   UNL     1      21.748 -20.440  -2.091 -0.51 -0.00    +0.000 HD
DOCKED: ENDBRANCH   2   5
DOCKED: ENDBRANCH   1   2
DOCKED: BRANCH   1   8
DOCKED: ATOM      8  C   UNL     1      25.258 -17.112  -0.720 -0.63 -0.00    +0.000 C 
DOCKED: BRANCH   8   9
DOCKED: ATOM      9  C   UNL     1      25.834 -16.044  -1.611 -0.46 -0.00    +0.000 A 
DOCKED: ATOM     10  C   UNL     1      26.664 -15.045  -1.076 -0.30 -0.00    +0.000 A 
DOCKED: ATOM     11  C   UNL     1      27.172 -14.036  -1.900 -0.20 -0.00    +0.000 A 
DOCKED: ATOM     12  C   UNL     1      26.845 -14.009  -3.258 -0.28 -0.00    +0.000 A 
DOCKED: ATOM     13  C   UNL     1      26.008 -14.992  -3.795 -0.50 -0.00    +0.000 A 
DOCKED: ATOM     14  C   UNL     1      25.499 -16.004  -2.975 -0.49 -0.00    +0.000 A 
DOCKED: ENDBRANCH   8   9
DOCKED: ENDBRANCH   1   8
DOCKED: TORSDOF 4
DOCKED: TER
DOCKED: ENDMDL
________________________________________________________________________________


	BEGINNING GENETIC ALGORITHM DOCKING 14 of 100
Run: 14 Seed: 1475918484 1782154750 [ Run 14 of 100 GA/GALS ]
Beginning LAMARCKIAN GENETIC ALGORITHM (LGA), with a maximum of 2500000 energy evaluations.

Final-Value: -10.933


	FINAL GENETIC ALGORITHM DOCKED STATE
	_______________________________________________


Detailed state:  trans 24.856 -17.079 -1.147 quatxyzw 0.556947 -0.400129 0.716898 -0.125554 center 0.534 -0.142 0.039 ntor 4 -13.6147 -178.8700 -164.6677 -52.0460
State:	 24.856 -17.079  -1.147   0.561 -0.403  0.723 -165.574    -13.61 -178.87 -164.67  -52.05

DOCKED: MODEL       14
DOCKED: USER    Run = 14
DOCKED: USER    DPF = ligand_dock.biased.dpf
DOCKED: USER  
DOCKED: USER    Estimated Free Energy of Binding    =   -9.40 kcal/mol  [=(1)+(2)+(3)-(4)]
DOCKED: USER    Estimated Inhibition Constant, Ki   =  129.71 nM (nanomolar)  [Temperature = 298.15 K]
DOCKED: USER    
DOCKED: USER    (1) Final Intermolecular Energy     =  -10.59 kcal/mol
DOCKED: USER        vdW + Hbond + desolv Energy     =  -10.59 kcal/mol
DOCKED: USER        Electrostatic Energy            =   +0.00 kcal/mol
DOCKED: USER    (2) Final Total Internal Energy     =   -0.34 kcal/mol
DOCKED: USER    (3) Torsional Free Energy           =   +1.19 kcal/mol
DOCKED: USER    (4) Unbound System's Energy  [=(2)] =   -0.34 kcal/mol
DOCKED: USER    
DOCKED: USER    
DOCKED: USER    NEWDPF move ligand.pdbqt
DOCKED: USER    NEWDPF about 0.534000 -0.142000 0.039000
DOCKED: USER    NEWDPF tran0 24.855585 -17.079107 -1.146996
DOCKED: USER    NEWDPF quaternion0 0.556947 -0.400129 0.716898 -0.125554
DOCKED: USER    NEWDPF axisangle0 0.561389 -0.403320 0.722617 -165.574464
DOCKED: USER    NEWDPF quat0 0.561389 -0.403320 0.722617 -165.574464
DOCKED: USER    NEWDPF dihe0 -13.61 -178.87 -164.67 -52.05 
DOCKED: USER  keepresnum = 1 
DOCKED: USER  
DOCKED: REMARK  Name = 
DOCKED: REMARK  4 active torsions:
DOCKED: REMARK  status: ('A' for Active; 'I' for Inactive)
DOCKED: REMARK    1  A    between atoms: C_3  and  C_4
DOCKED: REMARK    2  A    between atoms: C_4  and  C_5
DOCKED: REMARK    3  A    between atoms: C_5  and  C_6
DOCKED: REMARK    4  A    between atoms: C_6  and  C_7
DOCKED: REMARK                            x       y       z     vdW  Elec       q    Type
DOCKED: REMARK                         _______ _______ _______ _____ _____    ______ ____
DOCKED: USER                              x       y       z     vdW  Elec       q    Type
DOCKED: USER                           _______ _______ _______ _____ _____    ______ ____
DOCKED: ROOT
DOCKED: ATOM      1  C   UNL     1      23.910 -17.991  -1.562 -0.71 -0.00    +0.000 C 
DOCKED: ENDROOT
DOCKED: BRANCH   1   2
DOCKED: ATOM      2  C   UNL     1      22.976 -18.463  -0.439 -0.83 -0.00    +0.000 C 
DOCKED: BRANCH   2   5
DOCKED: ATOM      3  O   UNL     1      19.770 -19.739  -1.994 -2.26 -0.00    +0.000 OA
DOCKED: ATOM      4  N   UNL     1      21.053 -19.687  -1.568 -0.71 -0.00    +0.000 N 
DOCKED: ATOM      5  C   UNL     1      21.547 -18.526  -0.895 -0.82 -0.00    +0.000 C 
DOCKED: ATOM      6  O   UNL     1      20.788 -17.538  -0.708 -2.11 +0.00    +0.000 OA
DOCKED: ATOM      7  H   UNL     1      21.651 -20.454  -1.723 -0.39 -0.00    +0.000 HD
DOCKED: ENDBRANCH   2   5
DOCKED: ENDBRANCH   1   2
DOCKED: BRANCH   1   8
DOCKED: ATOM      8  C   UNL     1      24.511 -16.608  -1.278 -0.59 -0.00    +0.000 C 
DOCKED: BRANCH   8   9
DOCKED: ATOM      9  C   UNL     1      26.002 -16.628  -1.487 -0.48 -0.00    +0.000 A 
DOCKED: ATOM     10  C   UNL     1      26.843 -17.235  -0.539 -0.47 -0.00    +0.000 A 
DOCKED: ATOM     11  C   UNL     1      28.230 -17.224  -0.719 -0.32 -0.00    +0.000 A 
DOCKED: ATOM     12  C   UNL     1      28.787 -16.599  -1.837 -0.25 -0.00    +0.000 A 
DOCKED: ATOM     13  C   UNL     1      27.957 -15.981  -2.778 -0.26 -0.00    +0.000 A 
DOCKED: ATOM     14  C   UNL     1      26.570 -15.990  -2.603 -0.39 -0.00    +0.000 A 
DOCKED: ENDBRANCH   8   9
DOCKED: ENDBRANCH   1   8
DOCKED: TORSDOF 4
DOCKED: TER
DOCKED: ENDMDL
________________________________________________________________________________


	BEGINNING GENETIC ALGORITHM DOCKING 15 of 100
Run: 15 Seed: 795448714 1453313073 [ Run 15 of 100 GA/GALS ]
Beginning LAMARCKIAN GENETIC ALGORITHM (LGA), with a maximum of 2500000 energy evaluations.

Final-Value: -11.299


	FINAL GENETIC ALGORITHM DOCKED STATE
	_______________________________________________


Detailed state:  trans 24.550 -18.138 -1.461 quatxyzw -0.351871 -0.161683 -0.869891 0.305507 center 0.534 -0.142 0.039 ntor 4 -56.2481 136.2097 -57.0382 -94.2071
State:	 24.550 -18.138  -1.461  -0.370 -0.170 -0.914 144.423    -56.25  136.21  -57.04  -94.21

DOCKED: MODEL       15
DOCKED: USER    Run = 15
DOCKED: USER    DPF = ligand_dock.biased.dpf
DOCKED: USER  
DOCKED: USER    Estimated Free Energy of Binding    =   -9.60 kcal/mol  [=(1)+(2)+(3)-(4)]
DOCKED: USER    Estimated Inhibition Constant, Ki   =   92.15 nM (nanomolar)  [Temperature = 298.15 K]
DOCKED: USER    
DOCKED: USER    (1) Final Intermolecular Energy     =  -10.79 kcal/mol
DOCKED: USER        vdW + Hbond + desolv Energy     =  -10.79 kcal/mol
DOCKED: USER        Electrostatic Energy            =   +0.00 kcal/mol
DOCKED: USER    (2) Final Total Internal Energy     =   -0.51 kcal/mol
DOCKED: USER    (3) Torsional Free Energy           =   +1.19 kcal/mol
DOCKED: USER    (4) Unbound System's Energy  [=(2)] =   -0.51 kcal/mol
DOCKED: USER    
DOCKED: USER    
DOCKED: USER    NEWDPF move ligand.pdbqt
DOCKED: USER    NEWDPF about 0.534000 -0.142000 0.039000
DOCKED: USER    NEWDPF tran0 24.550408 -18.138149 -1.460847
DOCKED: USER    NEWDPF quaternion0 -0.351871 -0.161683 -0.869891 0.305507
DOCKED: USER    NEWDPF axisangle0 -0.369539 -0.169801 -0.913569 144.422714
DOCKED: USER    NEWDPF quat0 -0.369539 -0.169801 -0.913569 144.422714
DOCKED: USER    NEWDPF dihe0 -56.25 136.21 -57.04 -94.21 
DOCKED: USER  keepresnum = 1 
DOCKED: USER  
DOCKED: REMARK  Name = 
DOCKED: REMARK  4 active torsions:
DOCKED: REMARK  status: ('A' for Active; 'I' for Inactive)
DOCKED: REMARK    1  A    between atoms: C_3  and  C_4
DOCKED: REMARK    2  A    between atoms: C_4  and  C_5
DOCKED: REMARK    3  A    between atoms: C_5  and  C_6
DOCKED: REMARK    4  A    between atoms: C_6  and  C_7
DOCKED: REMARK                            x       y       z     vdW  Elec       q    Type
DOCKED: REMARK                         _______ _______ _______ _____ _____    ______ ____
DOCKED: USER                              x       y       z     vdW  Elec       q    Type
DOCKED: USER                           _______ _______ _______ _____ _____    ______ ____
DOCKED: ROOT
DOCKED: ATOM      1  C   UNL     1      23.845 -19.050  -0.707 -0.68 -0.00    +0.000 C 
DOCKED: ENDROOT
DOCKED: BRANCH   1   2
DOCKED: ATOM      2  C   UNL     1      22.674 -18.431   0.069 -0.75 -0.00    +0.000 C 
DOCKED: BRANCH   2   5
DOCKED: ATOM      3  O   UNL     1      19.903 -19.739  -2.153 -2.33 -0.00    +0.000 OA
DOCKED: ATOM      4  N   UNL     1      21.049 -19.683  -1.436 -0.74 -0.00    +0.000 N 
DOCKED: ATOM      5  C   UNL     1      21.393 -18.499  -0.711 -0.85 -0.00    +0.000 C 
DOCKED: ATOM      6  O   UNL     1      20.632 -17.496  -0.750 -2.09 +0.00    +0.000 OA
DOCKED: ATOM      7  H   UNL     1      21.650 -20.462  -1.413 -0.28 -0.00    +0.000 HD
DOCKED: ENDBRANCH   2   5
DOCKED: ENDBRANCH   1   2
DOCKED: BRANCH   1   8
DOCKED: ATOM      8  C   UNL     1      24.219 -18.231  -1.949 -0.47 -0.00    +0.000 C 
DOCKED: BRANCH   8   9
DOCKED: ATOM      9  C   UNL     1      25.232 -17.174  -1.600 -0.56 -0.00    +0.000 A 
DOCKED: ATOM     10  C   UNL     1      26.183 -17.409  -0.592 -0.54 -0.00    +0.000 A 
DOCKED: ATOM     11  C   UNL     1      27.103 -16.414  -0.247 -0.37 -0.00    +0.000 A 
DOCKED: ATOM     12  C   UNL     1      27.074 -15.177  -0.897 -0.28 -0.00    +0.000 A 
DOCKED: ATOM     13  C   UNL     1      26.122 -14.931  -1.891 -0.35 -0.00    +0.000 A 
DOCKED: ATOM     14  C   UNL     1      25.201 -15.924  -2.239 -0.48 -0.00    +0.000 A 
DOCKED: ENDBRANCH   8   9
DOCKED: ENDBRANCH   1   8
DOCKED: TORSDOF 4
DOCKED: TER
DOCKED: ENDMDL
________________________________________________________________________________


	BEGINNING GENETIC ALGORITHM DOCKING 16 of 100
Run: 16 Seed: 1531401053 1794769119 [ Run 16 of 100 GA/GALS ]
Beginning LAMARCKIAN GENETIC ALGORITHM (LGA), with a maximum of 2500000 energy evaluations.

Final-Value: -10.861


	FINAL GENETIC ALGORITHM DOCKED STATE
	_______________________________________________


Detailed state:  trans 25.056 -17.367 -0.794 quatxyzw -0.612691 0.676139 0.374707 -0.164441 center 0.534 -0.142 0.039 ntor 4 76.2969 -120.6722 43.9164 -64.1526
State:	 25.056 -17.367  -0.794  -0.621  0.685  0.380 -161.071     76.30 -120.67   43.92  -64.15

DOCKED: MODEL       16
DOCKED: USER    Run = 16
DOCKED: USER    DPF = ligand_dock.biased.dpf
DOCKED: USER  
DOCKED: USER    Estimated Free Energy of Binding    =   -9.32 kcal/mol  [=(1)+(2)+(3)-(4)]
DOCKED: USER    Estimated Inhibition Constant, Ki   =  146.75 nM (nanomolar)  [Temperature = 298.15 K]
DOCKED: USER    
DOCKED: USER    (1) Final Intermolecular Energy     =  -10.52 kcal/mol
DOCKED: USER        vdW + Hbond + desolv Energy     =  -10.52 kcal/mol
DOCKED: USER        Electrostatic Energy            =   +0.00 kcal/mol
DOCKED: USER    (2) Final Total Internal Energy     =   -0.34 kcal/mol
DOCKED: USER    (3) Torsional Free Energy           =   +1.19 kcal/mol
DOCKED: USER    (4) Unbound System's Energy  [=(2)] =   -0.34 kcal/mol
DOCKED: USER    
DOCKED: USER    
DOCKED: USER    NEWDPF move ligand.pdbqt
DOCKED: USER    NEWDPF about 0.534000 -0.142000 0.039000
DOCKED: USER    NEWDPF tran0 25.056029 -17.366681 -0.794178
DOCKED: USER    NEWDPF quaternion0 -0.612691 0.676139 0.374707 -0.164441
DOCKED: USER    NEWDPF axisangle0 -0.621146 0.685471 0.379878 -161.070506
DOCKED: USER    NEWDPF quat0 -0.621146 0.685471 0.379878 -161.070506
DOCKED: USER    NEWDPF dihe0 76.30 -120.67 43.92 -64.15 
DOCKED: USER  keepresnum = 1 
DOCKED: USER  
DOCKED: REMARK  Name = 
DOCKED: REMARK  4 active torsions:
DOCKED: REMARK  status: ('A' for Active; 'I' for Inactive)
DOCKED: REMARK    1  A    between atoms: C_3  and  C_4
DOCKED: REMARK    2  A    between atoms: C_4  and  C_5
DOCKED: REMARK    3  A    between atoms: C_5  and  C_6
DOCKED: REMARK    4  A    between atoms: C_6  and  C_7
DOCKED: REMARK                            x       y       z     vdW  Elec       q    Type
DOCKED: REMARK                         _______ _______ _______ _____ _____    ______ ____
DOCKED: USER                              x       y       z     vdW  Elec       q    Type
DOCKED: USER                           _______ _______ _______ _____ _____    ______ ____
DOCKED: ROOT
DOCKED: ATOM      1  C   UNL     1      23.728 -17.573  -0.491 -0.72 -0.00    +0.000 C 
DOCKED: ENDROOT
DOCKED: BRANCH   1   2
DOCKED: ATOM      2  C   UNL     1      23.119 -18.792  -1.197 -0.80 -0.00    +0.000 C 
DOCKED: BRANCH   2   5
DOCKED: ATOM      3  O   UNL     1      19.504 -19.735  -1.808 -2.13 -0.00    +0.000 OA
DOCKED: ATOM      4  N   UNL     1      20.857 -19.761  -1.842 -0.68 -0.00    +0.000 N 
DOCKED: ATOM      5  C   UNL     1      21.619 -18.772  -1.144 -0.76 -0.00    +0.000 C 
DOCKED: ATOM      6  O   UNL     1      21.029 -17.861  -0.505 -2.03 -0.00    +0.000 OA
DOCKED: ATOM      7  H   UNL     1      21.320 -20.467  -2.350 -0.53 -0.00    +0.000 HD
DOCKED: ENDBRANCH   2   5
DOCKED: ENDBRANCH   1   2
DOCKED: BRANCH   1   8
DOCKED: ATOM      8  C   UNL     1      25.250 -17.692  -0.332 -0.67 -0.00    +0.000 C 
DOCKED: BRANCH   8   9
DOCKED: ATOM      9  C   UNL     1      25.946 -16.575  -1.062 -0.48 -0.00    +0.000 A 
DOCKED: ATOM     10  C   UNL     1      26.975 -15.851  -0.436 -0.34 -0.00    +0.000 A 
DOCKED: ATOM     11  C   UNL     1      27.598 -14.792  -1.104 -0.21 -0.00    +0.000 A 
DOCKED: ATOM     12  C   UNL     1      27.192 -14.442  -2.394 -0.23 -0.00    +0.000 A 
DOCKED: ATOM     13  C   UNL     1      26.159 -15.149  -3.019 -0.43 -0.00    +0.000 A 
DOCKED: ATOM     14  C   UNL     1      25.533 -16.208  -2.354 -0.50 -0.00    +0.000 A 
DOCKED: ENDBRANCH   8   9
DOCKED: ENDBRANCH   1   8
DOCKED: TORSDOF 4
DOCKED: TER
DOCKED: ENDMDL
________________________________________________________________________________


	BEGINNING GENETIC ALGORITHM DOCKING 17 of 100
Run: 17 Seed: 1733840169 138332877 [ Run 17 of 100 GA/GALS ]
Beginning LAMARCKIAN GENETIC ALGORITHM (LGA), with a maximum of 2500000 energy evaluations.

Final-Value: -10.992


	FINAL GENETIC ALGORITHM DOCKED STATE
	_______________________________________________


Detailed state:  trans 25.051 -17.502 -0.504 quatxyzw -0.546879 0.533425 0.599685 -0.238243 center 0.534 -0.142 0.039 ntor 4 101.8474 -108.1054 -150.0013 -88.2286
State:	 25.051 -17.502  -0.504  -0.563  0.549  0.617 -152.434    101.85 -108.11 -150.00  -88.23

DOCKED: MODEL       17
DOCKED: USER    Run = 17
DOCKED: USER    DPF = ligand_dock.biased.dpf
DOCKED: USER  
DOCKED: USER    Estimated Free Energy of Binding    =   -9.42 kcal/mol  [=(1)+(2)+(3)-(4)]
DOCKED: USER    Estimated Inhibition Constant, Ki   =  124.89 nM (nanomolar)  [Temperature = 298.15 K]
DOCKED: USER    
DOCKED: USER    (1) Final Intermolecular Energy     =  -10.61 kcal/mol
DOCKED: USER        vdW + Hbond + desolv Energy     =  -10.61 kcal/mol
DOCKED: USER        Electrostatic Energy            =   +0.00 kcal/mol
DOCKED: USER    (2) Final Total Internal Energy     =   -0.38 kcal/mol
DOCKED: USER    (3) Torsional Free Energy           =   +1.19 kcal/mol
DOCKED: USER    (4) Unbound System's Energy  [=(2)] =   -0.38 kcal/mol
DOCKED: USER    
DOCKED: USER    
DOCKED: USER    NEWDPF move ligand.pdbqt
DOCKED: USER    NEWDPF about 0.534000 -0.142000 0.039000
DOCKED: USER    NEWDPF tran0 25.051055 -17.502186 -0.503725
DOCKED: USER    NEWDPF quaternion0 -0.546879 0.533425 0.599685 -0.238243
DOCKED: USER    NEWDPF axisangle0 -0.563092 0.549240 0.617464 -152.434239
DOCKED: USER    NEWDPF quat0 -0.563092 0.549240 0.617464 -152.434239
DOCKED: USER    NEWDPF dihe0 101.85 -108.11 -150.00 -88.23 
DOCKED: USER  keepresnum = 1 
DOCKED: USER  
DOCKED: REMARK  Name = 
DOCKED: REMARK  4 active torsions:
DOCKED: REMARK  status: ('A' for Active; 'I' for Inactive)
DOCKED: REMARK    1  A    between atoms: C_3  and  C_4
DOCKED: REMARK    2  A    between atoms: C_4  and  C_5
DOCKED: REMARK    3  A    between atoms: C_5  and  C_6
DOCKED: REMARK    4  A    between atoms: C_6  and  C_7
DOCKED: REMARK                            x       y       z     vdW  Elec       q    Type
DOCKED: REMARK                         _______ _______ _______ _____ _____    ______ ____
DOCKED: USER                              x       y       z     vdW  Elec       q    Type
DOCKED: USER                           _______ _______ _______ _____ _____    ______ ____
DOCKED: ROOT
DOCKED: ATOM      1  C   UNL     1      23.823 -18.024  -0.161 -0.72 -0.00    +0.000 C 
DOCKED: ENDROOT
DOCKED: BRANCH   1   2
DOCKED: ATOM      2  C   UNL     1      23.152 -18.811  -1.296 -0.79 -0.00    +0.000 C 
DOCKED: BRANCH   2   5
DOCKED: ATOM      3  O   UNL     1      19.510 -19.734  -1.755 -2.13 -0.00    +0.000 OA
DOCKED: ATOM      4  N   UNL     1      20.859 -19.769  -1.844 -0.67 -0.00    +0.000 N 
DOCKED: ATOM      5  C   UNL     1      21.655 -18.782  -1.183 -0.74 -0.00    +0.000 C 
DOCKED: ATOM      6  O   UNL     1      21.098 -17.864  -0.524 -1.98 -0.00    +0.000 OA
DOCKED: ATOM      7  H   UNL     1      21.297 -20.480  -2.366 -0.53 -0.00    +0.000 HD
DOCKED: ENDBRANCH   2   5
DOCKED: ENDBRANCH   1   2
DOCKED: BRANCH   1   8
DOCKED: ATOM      8  C   UNL     1      25.350 -17.981  -0.307 -0.69 -0.00    +0.000 C 
DOCKED: BRANCH   8   9
DOCKED: ATOM      9  C   UNL     1      25.777 -16.724  -1.016 -0.50 -0.00    +0.000 A 
DOCKED: ATOM     10  C   UNL     1      25.334 -16.461  -2.323 -0.50 -0.00    +0.000 A 
DOCKED: ATOM     11  C   UNL     1      25.757 -15.308  -2.992 -0.47 -0.00    +0.000 A 
DOCKED: ATOM     12  C   UNL     1      26.633 -14.417  -2.367 -0.28 -0.00    +0.000 A 
DOCKED: ATOM     13  C   UNL     1      27.090 -14.679  -1.071 -0.25 -0.00    +0.000 A 
DOCKED: ATOM     14  C   UNL     1      26.668 -15.830  -0.398 -0.35 -0.00    +0.000 A 
DOCKED: ENDBRANCH   8   9
DOCKED: ENDBRANCH   1   8
DOCKED: TORSDOF 4
DOCKED: TER
DOCKED: ENDMDL
________________________________________________________________________________


	BEGINNING GENETIC ALGORITHM DOCKING 18 of 100
Run: 18 Seed: 465729400 1312224395 [ Run 18 of 100 GA/GALS ]
Beginning LAMARCKIAN GENETIC ALGORITHM (LGA), with a maximum of 2500000 energy evaluations.

Final-Value: -10.723


	FINAL GENETIC ALGORITHM DOCKED STATE
	_______________________________________________


Detailed state:  trans 24.755 -17.807 -1.462 quatxyzw 0.346943 0.110373 0.859342 -0.359137 center 0.534 -0.142 0.039 ntor 4 -39.0432 165.3305 -52.5989 -98.6314
State:	 24.755 -17.807  -1.462   0.372  0.118  0.921 -137.906    -39.04  165.33  -52.60  -98.63

DOCKED: MODEL       18
DOCKED: USER    Run = 18
DOCKED: USER    DPF = ligand_dock.biased.dpf
DOCKED: USER  
DOCKED: USER    Estimated Free Energy of Binding    =   -9.09 kcal/mol  [=(1)+(2)+(3)-(4)]
DOCKED: USER    Estimated Inhibition Constant, Ki   =  218.85 nM (nanomolar)  [Temperature = 298.15 K]
DOCKED: USER    
DOCKED: USER    (1) Final Intermolecular Energy     =  -10.28 kcal/mol
DOCKED: USER        vdW + Hbond + desolv Energy     =  -10.28 kcal/mol
DOCKED: USER        Electrostatic Energy            =   +0.00 kcal/mol
DOCKED: USER    (2) Final Total Internal Energy     =   -0.44 kcal/mol
DOCKED: USER    (3) Torsional Free Energy           =   +1.19 kcal/mol
DOCKED: USER    (4) Unbound System's Energy  [=(2)] =   -0.44 kcal/mol
DOCKED: USER    
DOCKED: USER    
DOCKED: USER    NEWDPF move ligand.pdbqt
DOCKED: USER    NEWDPF about 0.534000 -0.142000 0.039000
DOCKED: USER    NEWDPF tran0 24.755054 -17.806566 -1.462395
DOCKED: USER    NEWDPF quaternion0 0.346943 0.110373 0.859342 -0.359137
DOCKED: USER    NEWDPF axisangle0 0.371744 0.118263 0.920772 -137.905543
DOCKED: USER    NEWDPF quat0 0.371744 0.118263 0.920772 -137.905543
DOCKED: USER    NEWDPF dihe0 -39.04 165.33 -52.60 -98.63 
DOCKED: USER  keepresnum = 1 
DOCKED: USER  
DOCKED: REMARK  Name = 
DOCKED: REMARK  4 active torsions:
DOCKED: REMARK  status: ('A' for Active; 'I' for Inactive)
DOCKED: REMARK    1  A    between atoms: C_3  and  C_4
DOCKED: REMARK    2  A    between atoms: C_4  and  C_5
DOCKED: REMARK    3  A    between atoms: C_5  and  C_6
DOCKED: REMARK    4  A    between atoms: C_6  and  C_7
DOCKED: REMARK                            x       y       z     vdW  Elec       q    Type
DOCKED: REMARK                         _______ _______ _______ _____ _____    ______ ____
DOCKED: USER                              x       y       z     vdW  Elec       q    Type
DOCKED: USER                           _______ _______ _______ _____ _____    ______ ____
DOCKED: ROOT
DOCKED: ATOM      1  C   UNL     1      23.896 -18.645  -0.787 -0.80 -0.00    +0.000 C 
DOCKED: ENDROOT
DOCKED: BRANCH   1   2
DOCKED: ATOM      2  C   UNL     1      22.778 -17.907  -0.038 -0.72 -0.00    +0.000 C 
DOCKED: BRANCH   2   5
DOCKED: ATOM      3  O   UNL     1      19.801 -20.111  -0.816 -1.71 -0.00    +0.000 OA
DOCKED: ATOM      4  N   UNL     1      21.021 -19.713  -0.387 -0.74 -0.00    +0.000 N 
DOCKED: ATOM      5  C   UNL     1      21.418 -18.344  -0.499 -0.77 -0.00    +0.000 C 
DOCKED: ATOM      6  O   UNL     1      20.634 -17.503  -1.013 -2.11 -0.00    +0.000 OA
DOCKED: ATOM      7  H   UNL     1      21.640 -20.371   0.006 -0.47 -0.00    +0.000 HD
DOCKED: ENDBRANCH   2   5
DOCKED: ENDBRANCH   1   2
DOCKED: BRANCH   1   8
DOCKED: ATOM      8  C   UNL     1      24.440 -17.833  -1.970 -0.57 -0.00    +0.000 C 
DOCKED: BRANCH   8   9
DOCKED: ATOM      9  C   UNL     1      25.491 -16.861  -1.504 -0.54 -0.00    +0.000 A 
DOCKED: ATOM     10  C   UNL     1      26.387 -17.221  -0.482 -0.51 -0.00    +0.000 A 
DOCKED: ATOM     11  C   UNL     1      27.341 -16.305  -0.029 -0.34 -0.00    +0.000 A 
DOCKED: ATOM     12  C   UNL     1      27.402 -15.023  -0.583 -0.25 -0.00    +0.000 A 
DOCKED: ATOM     13  C   UNL     1      26.505 -14.654  -1.591 -0.29 -0.00    +0.000 A 
DOCKED: ATOM     14  C   UNL     1      25.549 -15.567  -2.047 -0.44 -0.00    +0.000 A 
DOCKED: ENDBRANCH   8   9
DOCKED: ENDBRANCH   1   8
DOCKED: TORSDOF 4
DOCKED: TER
DOCKED: ENDMDL
________________________________________________________________________________


	BEGINNING GENETIC ALGORITHM DOCKING 19 of 100
Run: 19 Seed: 956349426 1670949186 [ Run 19 of 100 GA/GALS ]
Beginning LAMARCKIAN GENETIC ALGORITHM (LGA), with a maximum of 2500000 energy evaluations.

Final-Value: -10.623


	FINAL GENETIC ALGORITHM DOCKED STATE
	_______________________________________________


Detailed state:  trans 23.652 -18.379 0.141 quatxyzw -0.128249 0.614724 -0.754726 0.189884 center 0.534 -0.142 0.039 ntor 4 -18.3106 -65.4266 149.0797 33.7811
State:	 23.652 -18.379   0.141  -0.131  0.626 -0.769 158.108    -18.31  -65.43  149.08   33.78

DOCKED: MODEL       19
DOCKED: USER    Run = 19
DOCKED: USER    DPF = ligand_dock.biased.dpf
DOCKED: USER  
DOCKED: USER    Estimated Free Energy of Binding    =   -9.10 kcal/mol  [=(1)+(2)+(3)-(4)]
DOCKED: USER    Estimated Inhibition Constant, Ki   =  215.27 nM (nanomolar)  [Temperature = 298.15 K]
DOCKED: USER    
DOCKED: USER    (1) Final Intermolecular Energy     =  -10.29 kcal/mol
DOCKED: USER        vdW + Hbond + desolv Energy     =  -10.29 kcal/mol
DOCKED: USER        Electrostatic Energy            =   +0.00 kcal/mol
DOCKED: USER    (2) Final Total Internal Energy     =   -0.33 kcal/mol
DOCKED: USER    (3) Torsional Free Energy           =   +1.19 kcal/mol
DOCKED: USER    (4) Unbound System's Energy  [=(2)] =   -0.33 kcal/mol
DOCKED: USER    
DOCKED: USER    
DOCKED: USER    NEWDPF move ligand.pdbqt
DOCKED: USER    NEWDPF about 0.534000 -0.142000 0.039000
DOCKED: USER    NEWDPF tran0 23.652239 -18.379241 0.140787
DOCKED: USER    NEWDPF quaternion0 -0.128249 0.614724 -0.754726 0.189884
DOCKED: USER    NEWDPF axisangle0 -0.130626 0.626115 -0.768711 158.107985
DOCKED: USER    NEWDPF quat0 -0.130626 0.626115 -0.768711 158.107985
DOCKED: USER    NEWDPF dihe0 -18.31 -65.43 149.08 33.78 
DOCKED: USER  keepresnum = 1 
DOCKED: USER  
DOCKED: REMARK  Name = 
DOCKED: REMARK  4 active torsions:
DOCKED: REMARK  status: ('A' for Active; 'I' for Inactive)
DOCKED: REMARK    1  A    between atoms: C_3  and  C_4
DOCKED: REMARK    2  A    between atoms: C_4  and  C_5
DOCKED: REMARK    3  A    between atoms: C_5  and  C_6
DOCKED: REMARK    4  A    between atoms: C_6  and  C_7
DOCKED: REMARK                            x       y       z     vdW  Elec       q    Type
DOCKED: REMARK                         _______ _______ _______ _____ _____    ______ ____
DOCKED: USER                              x       y       z     vdW  Elec       q    Type
DOCKED: USER                           _______ _______ _______ _____ _____    ______ ____
DOCKED: ROOT
DOCKED: ATOM      1  C   UNL     1      22.871 -18.555  -0.980 -0.82 -0.00    +0.000 C 
DOCKED: ENDROOT
DOCKED: BRANCH   1   2
DOCKED: ATOM      2  C   UNL     1      21.395 -18.193  -0.764 -0.78 -0.00    +0.000 C 
DOCKED: BRANCH   2   5
DOCKED: ATOM      3  O   UNL     1      19.641 -21.331   0.421 -0.78 -0.00    +0.000 OA
DOCKED: ATOM      4  N   UNL     1      20.418 -20.223   0.418 -0.69 -0.00    +0.000 N 
DOCKED: ATOM      5  C   UNL     1      20.519 -19.412  -0.756 -0.90 -0.00    +0.000 C 
DOCKED: ATOM      6  O   UNL     1      19.893 -19.736  -1.799 -2.39 -0.00    +0.000 OA
DOCKED: ATOM      7  H   UNL     1      20.917 -19.973   1.230 -0.48 -0.00    +0.000 HD
DOCKED: ENDBRANCH   2   5
DOCKED: ENDBRANCH   1   2
DOCKED: BRANCH   1   8
DOCKED: ATOM      8  C   UNL     1      23.800 -17.819  -0.006 -0.62 -0.00    +0.000 C 
DOCKED: BRANCH   8   9
DOCKED: ATOM      9  C   UNL     1      25.089 -17.443  -0.688 -0.60 -0.00    +0.000 A 
DOCKED: ATOM     10  C   UNL     1      26.318 -17.904  -0.187 -0.56 -0.00    +0.000 A 
DOCKED: ATOM     11  C   UNL     1      27.515 -17.527  -0.803 -0.39 -0.00    +0.000 A 
DOCKED: ATOM     12  C   UNL     1      27.495 -16.681  -1.915 -0.32 -0.00    +0.000 A 
DOCKED: ATOM     13  C   UNL     1      26.277 -16.207  -2.411 -0.42 -0.00    +0.000 A 
DOCKED: ATOM     14  C   UNL     1      25.077 -16.581  -1.798 -0.54 -0.00    +0.000 A 
DOCKED: ENDBRANCH   8   9
DOCKED: ENDBRANCH   1   8
DOCKED: TORSDOF 4
DOCKED: TER
DOCKED: ENDMDL
________________________________________________________________________________


	BEGINNING GENETIC ALGORITHM DOCKING 20 of 100
Run: 20 Seed: 1048898618 1643866894 [ Run 20 of 100 GA/GALS ]
Beginning LAMARCKIAN GENETIC ALGORITHM (LGA), with a maximum of 2500000 energy evaluations.

Final-Value: -10.714


	FINAL GENETIC ALGORITHM DOCKED STATE
	_______________________________________________


Detailed state:  trans 23.847 -17.047 -1.845 quatxyzw -0.373063 0.617855 0.643901 0.253908 center 0.534 -0.142 0.039 ntor 4 51.2670 -27.4700 140.0994 42.6299
State:	 23.847 -17.047  -1.845  -0.386  0.639  0.666 150.582     51.27  -27.47  140.10   42.63

DOCKED: MODEL       20
DOCKED: USER    Run = 20
DOCKED: USER    DPF = ligand_dock.biased.dpf
DOCKED: USER  
DOCKED: USER    Estimated Free Energy of Binding    =   -9.17 kcal/mol  [=(1)+(2)+(3)-(4)]
DOCKED: USER    Estimated Inhibition Constant, Ki   =  188.75 nM (nanomolar)  [Temperature = 298.15 K]
DOCKED: USER    
DOCKED: USER    (1) Final Intermolecular Energy     =  -10.37 kcal/mol
DOCKED: USER        vdW + Hbond + desolv Energy     =  -10.37 kcal/mol
DOCKED: USER        Electrostatic Energy            =   +0.00 kcal/mol
DOCKED: USER    (2) Final Total Internal Energy     =   -0.35 kcal/mol
DOCKED: USER    (3) Torsional Free Energy           =   +1.19 kcal/mol
DOCKED: USER    (4) Unbound System's Energy  [=(2)] =   -0.35 kcal/mol
DOCKED: USER    
DOCKED: USER    
DOCKED: USER    NEWDPF move ligand.pdbqt
DOCKED: USER    NEWDPF about 0.534000 -0.142000 0.039000
DOCKED: USER    NEWDPF tran0 23.846904 -17.047296 -1.845416
DOCKED: USER    NEWDPF quaternion0 -0.373063 0.617855 0.643901 0.253908
DOCKED: USER    NEWDPF axisangle0 -0.385704 0.638790 0.665718 150.582189
DOCKED: USER    NEWDPF quat0 -0.385704 0.638790 0.665718 150.582189
DOCKED: USER    NEWDPF dihe0 51.27 -27.47 140.10 42.63 
DOCKED: USER  keepresnum = 1 
DOCKED: USER  
DOCKED: REMARK  Name = 
DOCKED: REMARK  4 active torsions:
DOCKED: REMARK  status: ('A' for Active; 'I' for Inactive)
DOCKED: REMARK    1  A    between atoms: C_3  and  C_4
DOCKED: REMARK    2  A    between atoms: C_4  and  C_5
DOCKED: REMARK    3  A    between atoms: C_5  and  C_6
DOCKED: REMARK    4  A    between atoms: C_6  and  C_7
DOCKED: REMARK                            x       y       z     vdW  Elec       q    Type
DOCKED: REMARK                         _______ _______ _______ _____ _____    ______ ____
DOCKED: USER                              x       y       z     vdW  Elec       q    Type
DOCKED: USER                           _______ _______ _______ _____ _____    ______ ____
DOCKED: ROOT
DOCKED: ATOM      1  C   UNL     1      23.574 -17.371  -0.534 -0.70 -0.00    +0.000 C 
DOCKED: ENDROOT
DOCKED: BRANCH   1   2
DOCKED: ATOM      2  C   UNL     1      22.852 -18.715  -0.370 -0.81 -0.00    +0.000 C 
DOCKED: BRANCH   2   5
DOCKED: ATOM      3  O   UNL     1      19.511 -19.733  -1.828 -2.14 -0.00    +0.000 OA
DOCKED: ATOM      4  N   UNL     1      20.788 -19.801  -1.386 -0.74 -0.00    +0.000 N 
DOCKED: ATOM      5  C   UNL     1      21.430 -18.644  -0.843 -0.84 -0.00    +0.000 C 
DOCKED: ATOM      6  O   UNL     1      20.808 -17.550  -0.787 -2.10 -0.00    +0.000 OA
DOCKED: ATOM      7  H   UNL     1      21.280 -20.653  -1.439 -0.18 -0.00    +0.000 HD
DOCKED: ENDBRANCH   2   5
DOCKED: ENDBRANCH   1   2
DOCKED: BRANCH   1   8
DOCKED: ATOM      8  C   UNL     1      24.388 -17.301  -1.833 -0.64 -0.00    +0.000 C 
DOCKED: BRANCH   8   9
DOCKED: ATOM      9  C   UNL     1      25.756 -16.731  -1.568 -0.51 -0.00    +0.000 A 
DOCKED: ATOM     10  C   UNL     1      26.256 -15.686  -2.363 -0.41 -0.00    +0.000 A 
DOCKED: ATOM     11  C   UNL     1      27.539 -15.180  -2.136 -0.24 -0.00    +0.000 A 
DOCKED: ATOM     12  C   UNL     1      28.336 -15.720  -1.124 -0.23 -0.00    +0.000 A 
DOCKED: ATOM     13  C   UNL     1      27.852 -16.770  -0.337 -0.33 -0.00    +0.000 A 
DOCKED: ATOM     14  C   UNL     1      26.568 -17.279  -0.561 -0.50 -0.00    +0.000 A 
DOCKED: ENDBRANCH   8   9
DOCKED: ENDBRANCH   1   8
DOCKED: TORSDOF 4
DOCKED: TER
DOCKED: ENDMDL
________________________________________________________________________________


	BEGINNING GENETIC ALGORITHM DOCKING 21 of 100
Run: 21 Seed: 1327559514 1960657109 [ Run 21 of 100 GA/GALS ]
Beginning LAMARCKIAN GENETIC ALGORITHM (LGA), with a maximum of 2500000 energy evaluations.

Final-Value: -11.144


	FINAL GENETIC ALGORITHM DOCKED STATE
	_______________________________________________


Detailed state:  trans 24.914 -17.077 -0.948 quatxyzw -0.573895 0.484933 -0.654448 0.084749 center 0.534 -0.142 0.039 ntor 4 -10.2567 -170.7878 -7.1636 -11.5673
State:	 24.914 -17.077  -0.948  -0.576  0.487 -0.657 170.277    -10.26 -170.79   -7.16  -11.57

DOCKED: MODEL       21
DOCKED: USER    Run = 21
DOCKED: USER    DPF = ligand_dock.biased.dpf
DOCKED: USER  
DOCKED: USER    Estimated Free Energy of Binding    =   -9.61 kcal/mol  [=(1)+(2)+(3)-(4)]
DOCKED: USER    Estimated Inhibition Constant, Ki   =   90.83 nM (nanomolar)  [Temperature = 298.15 K]
DOCKED: USER    
DOCKED: USER    (1) Final Intermolecular Energy     =  -10.80 kcal/mol
DOCKED: USER        vdW + Hbond + desolv Energy     =  -10.80 kcal/mol
DOCKED: USER        Electrostatic Energy            =   +0.00 kcal/mol
DOCKED: USER    (2) Final Total Internal Energy     =   -0.34 kcal/mol
DOCKED: USER    (3) Torsional Free Energy           =   +1.19 kcal/mol
DOCKED: USER    (4) Unbound System's Energy  [=(2)] =   -0.34 kcal/mol
DOCKED: USER    
DOCKED: USER    
DOCKED: USER    NEWDPF move ligand.pdbqt
DOCKED: USER    NEWDPF about 0.534000 -0.142000 0.039000
DOCKED: USER    NEWDPF tran0 24.914266 -17.077195 -0.948211
DOCKED: USER    NEWDPF quaternion0 -0.573895 0.484933 -0.654448 0.084749
DOCKED: USER    NEWDPF axisangle0 -0.575967 0.486684 -0.656811 170.276867
DOCKED: USER    NEWDPF quat0 -0.575967 0.486684 -0.656811 170.276867
DOCKED: USER    NEWDPF dihe0 -10.26 -170.79 -7.16 -11.57 
DOCKED: USER  keepresnum = 1 
DOCKED: USER  
DOCKED: REMARK  Name = 
DOCKED: REMARK  4 active torsions:
DOCKED: REMARK  status: ('A' for Active; 'I' for Inactive)
DOCKED: REMARK    1  A    between atoms: C_3  and  C_4
DOCKED: REMARK    2  A    between atoms: C_4  and  C_5
DOCKED: REMARK    3  A    between atoms: C_5  and  C_6
DOCKED: REMARK    4  A    between atoms: C_6  and  C_7
DOCKED: REMARK                            x       y       z     vdW  Elec       q    Type
DOCKED: REMARK                         _______ _______ _______ _____ _____    ______ ____
DOCKED: USER                              x       y       z     vdW  Elec       q    Type
DOCKED: USER                           _______ _______ _______ _____ _____    ______ ____
DOCKED: ROOT
DOCKED: ATOM      1  C   UNL     1      23.917 -17.843  -1.511 -0.73 -0.00    +0.000 C 
DOCKED: ENDROOT
DOCKED: BRANCH   1   2
DOCKED: ATOM      2  C   UNL     1      23.004 -18.519  -0.479 -0.83 -0.00    +0.000 C 
DOCKED: BRANCH   2   5
DOCKED: ATOM      3  O   UNL     1      19.879 -19.799  -2.188 -2.30 -0.00    +0.000 OA
DOCKED: ATOM      4  N   UNL     1      21.153 -19.728  -1.737 -0.61 -0.00    +0.000 N 
DOCKED: ATOM      5  C   UNL     1      21.586 -18.606  -0.964 -0.82 -0.00    +0.000 C 
DOCKED: ATOM      6  O   UNL     1      20.782 -17.670  -0.710 -2.18 +0.00    +0.000 OA
DOCKED: ATOM      7  H   UNL     1      21.786 -20.454  -1.943 -0.45 -0.00    +0.000 HD
DOCKED: ENDBRANCH   2   5
DOCKED: ENDBRANCH   1   2
DOCKED: BRANCH   1   8
DOCKED: ATOM      8  C   UNL     1      24.586 -16.578  -0.958 -0.56 -0.00    +0.000 C 
DOCKED: BRANCH   8   9
DOCKED: ATOM      9  C   UNL     1      25.626 -16.067  -1.918 -0.48 -0.00    +0.000 A 
DOCKED: ATOM     10  C   UNL     1      25.250 -15.271  -3.014 -0.43 -0.00    +0.000 A 
DOCKED: ATOM     11  C   UNL     1      26.215 -14.825  -3.923 -0.48 -0.00    +0.000 A 
DOCKED: ATOM     12  C   UNL     1      27.556 -15.177  -3.752 -0.31 -0.00    +0.000 A 
DOCKED: ATOM     13  C   UNL     1      27.936 -15.980  -2.672 -0.26 -0.00    +0.000 A 
DOCKED: ATOM     14  C   UNL     1      26.975 -16.429  -1.760 -0.37 -0.00    +0.000 A 
DOCKED: ENDBRANCH   8   9
DOCKED: ENDBRANCH   1   8
DOCKED: TORSDOF 4
DOCKED: TER
DOCKED: ENDMDL
________________________________________________________________________________


	BEGINNING GENETIC ALGORITHM DOCKING 22 of 100
Run: 22 Seed: 1373378943 1627285516 [ Run 22 of 100 GA/GALS ]
Beginning LAMARCKIAN GENETIC ALGORITHM (LGA), with a maximum of 2500000 energy evaluations.

Final-Value: -11.016


	FINAL GENETIC ALGORITHM DOCKED STATE
	_______________________________________________


Detailed state:  trans 25.030 -17.849 -1.489 quatxyzw -0.323088 -0.058579 -0.867783 0.373008 center 0.534 -0.142 0.039 ntor 4 -76.3023 166.3492 -44.0107 -106.2794
State:	 25.030 -17.849  -1.489  -0.348 -0.063 -0.935 136.198    -76.30  166.35  -44.01 -106.28

DOCKED: MODEL       22
DOCKED: USER    Run = 22
DOCKED: USER    DPF = ligand_dock.biased.dpf
DOCKED: USER  
DOCKED: USER    Estimated Free Energy of Binding    =   -9.36 kcal/mol  [=(1)+(2)+(3)-(4)]
DOCKED: USER    Estimated Inhibition Constant, Ki   =  138.29 nM (nanomolar)  [Temperature = 298.15 K]
DOCKED: USER    
DOCKED: USER    (1) Final Intermolecular Energy     =  -10.55 kcal/mol
DOCKED: USER        vdW + Hbond + desolv Energy     =  -10.55 kcal/mol
DOCKED: USER        Electrostatic Energy            =   +0.00 kcal/mol
DOCKED: USER    (2) Final Total Internal Energy     =   -0.46 kcal/mol
DOCKED: USER    (3) Torsional Free Energy           =   +1.19 kcal/mol
DOCKED: USER    (4) Unbound System's Energy  [=(2)] =   -0.46 kcal/mol
DOCKED: USER    
DOCKED: USER    
DOCKED: USER    NEWDPF move ligand.pdbqt
DOCKED: USER    NEWDPF about 0.534000 -0.142000 0.039000
DOCKED: USER    NEWDPF tran0 25.030307 -17.848895 -1.489088
DOCKED: USER    NEWDPF quaternion0 -0.323088 -0.058579 -0.867783 0.373008
DOCKED: USER    NEWDPF axisangle0 -0.348220 -0.063136 -0.935284 136.197517
DOCKED: USER    NEWDPF quat0 -0.348220 -0.063136 -0.935284 136.197517
DOCKED: USER    NEWDPF dihe0 -76.30 166.35 -44.01 -106.28 
DOCKED: USER  keepresnum = 1 
DOCKED: USER  
DOCKED: REMARK  Name = 
DOCKED: REMARK  4 active torsions:
DOCKED: REMARK  status: ('A' for Active; 'I' for Inactive)
DOCKED: REMARK    1  A    between atoms: C_3  and  C_4
DOCKED: REMARK    2  A    between atoms: C_4  and  C_5
DOCKED: REMARK    3  A    between atoms: C_5  and  C_6
DOCKED: REMARK    4  A    between atoms: C_6  and  C_7
DOCKED: REMARK                            x       y       z     vdW  Elec       q    Type
DOCKED: REMARK                         _______ _______ _______ _____ _____    ______ ____
DOCKED: USER                              x       y       z     vdW  Elec       q    Type
DOCKED: USER                           _______ _______ _______ _____ _____    ______ ____
DOCKED: ROOT
DOCKED: ATOM      1  C   UNL     1      24.077 -18.683  -0.946 -0.76 -0.00    +0.000 C 
DOCKED: ENDROOT
DOCKED: BRANCH   1   2
DOCKED: ATOM      2  C   UNL     1      22.932 -17.936  -0.249 -0.78 -0.00    +0.000 C 
DOCKED: BRANCH   2   5
DOCKED: ATOM      3  O   UNL     1      20.226 -19.833  -2.093 -2.32 -0.00    +0.000 OA
DOCKED: ATOM      4  N   UNL     1      21.425 -19.519  -1.550 -0.65 -0.00    +0.000 N 
DOCKED: ATOM      5  C   UNL     1      21.598 -18.292  -0.835 -0.80 -0.00    +0.000 C 
DOCKED: ATOM      6  O   UNL     1      20.632 -17.491  -0.721 -2.09 +0.00    +0.000 OA
DOCKED: ATOM      7  H   UNL     1      22.184 -20.139  -1.647 -0.42 -0.00    +0.000 HD
DOCKED: ENDBRANCH   2   5
DOCKED: ENDBRANCH   1   2
DOCKED: BRANCH   1   8
DOCKED: ATOM      8  C   UNL     1      24.761 -17.828  -2.022 -0.50 -0.00    +0.000 C 
DOCKED: BRANCH   8   9
DOCKED: ATOM      9  C   UNL     1      25.674 -16.813  -1.388 -0.52 -0.00    +0.000 A 
DOCKED: ATOM     10  C   UNL     1      26.546 -17.191  -0.354 -0.50 -0.00    +0.000 A 
DOCKED: ATOM     11  C   UNL     1      27.370 -16.239   0.255 -0.27 -0.00    +0.000 A 
DOCKED: ATOM     12  C   UNL     1      27.322 -14.905  -0.156 -0.26 -0.00    +0.000 A 
DOCKED: ATOM     13  C   UNL     1      26.447 -14.518  -1.176 -0.29 -0.00    +0.000 A 
DOCKED: ATOM     14  C   UNL     1      25.621 -15.467  -1.788 -0.41 -0.00    +0.000 A 
DOCKED: ENDBRANCH   8   9
DOCKED: ENDBRANCH   1   8
DOCKED: TORSDOF 4
DOCKED: TER
DOCKED: ENDMDL
________________________________________________________________________________


	BEGINNING GENETIC ALGORITHM DOCKING 23 of 100
Run: 23 Seed: 2071064716 644657508 [ Run 23 of 100 GA/GALS ]
Beginning LAMARCKIAN GENETIC ALGORITHM (LGA), with a maximum of 2500000 energy evaluations.

Final-Value: -10.956


	FINAL GENETIC ALGORITHM DOCKED STATE
	_______________________________________________


Detailed state:  trans 25.115 -17.402 -1.645 quatxyzw 0.620631 -0.767816 -0.098807 -0.124549 center 0.534 -0.142 0.039 ntor 4 20.7022 -105.5916 33.3043 -15.0423
State:	 25.115 -17.402  -1.645   0.626 -0.774 -0.100 -165.691     20.70 -105.59   33.30  -15.04

DOCKED: MODEL       23
DOCKED: USER    Run = 23
DOCKED: USER    DPF = ligand_dock.biased.dpf
DOCKED: USER  
DOCKED: USER    Estimated Free Energy of Binding    =   -9.45 kcal/mol  [=(1)+(2)+(3)-(4)]
DOCKED: USER    Estimated Inhibition Constant, Ki   =  118.93 nM (nanomolar)  [Temperature = 298.15 K]
DOCKED: USER    
DOCKED: USER    (1) Final Intermolecular Energy     =  -10.64 kcal/mol
DOCKED: USER        vdW + Hbond + desolv Energy     =  -10.64 kcal/mol
DOCKED: USER        Electrostatic Energy            =   +0.00 kcal/mol
DOCKED: USER    (2) Final Total Internal Energy     =   -0.32 kcal/mol
DOCKED: USER    (3) Torsional Free Energy           =   +1.19 kcal/mol
DOCKED: USER    (4) Unbound System's Energy  [=(2)] =   -0.32 kcal/mol
DOCKED: USER    
DOCKED: USER    
DOCKED: USER    NEWDPF move ligand.pdbqt
DOCKED: USER    NEWDPF about 0.534000 -0.142000 0.039000
DOCKED: USER    NEWDPF tran0 25.114990 -17.402261 -1.645304
DOCKED: USER    NEWDPF quaternion0 0.620631 -0.767816 -0.098807 -0.124549
DOCKED: USER    NEWDPF axisangle0 0.625502 -0.773842 -0.099582 -165.690618
DOCKED: USER    NEWDPF quat0 0.625502 -0.773842 -0.099582 -165.690618
DOCKED: USER    NEWDPF dihe0 20.70 -105.59 33.30 -15.04 
DOCKED: USER  keepresnum = 1 
DOCKED: USER  
DOCKED: REMARK  Name = 
DOCKED: REMARK  4 active torsions:
DOCKED: REMARK  status: ('A' for Active; 'I' for Inactive)
DOCKED: REMARK    1  A    between atoms: C_3  and  C_4
DOCKED: REMARK    2  A    between atoms: C_4  and  C_5
DOCKED: REMARK    3  A    between atoms: C_5  and  C_6
DOCKED: REMARK    4  A    between atoms: C_6  and  C_7
DOCKED: REMARK                            x       y       z     vdW  Elec       q    Type
DOCKED: REMARK                         _______ _______ _______ _____ _____    ______ ____
DOCKED: USER                              x       y       z     vdW  Elec       q    Type
DOCKED: USER                           _______ _______ _______ _____ _____    ______ ____
DOCKED: ROOT
DOCKED: ATOM      1  C   UNL     1      23.821 -17.309  -1.182 -0.71 -0.00    +0.000 C 
DOCKED: ENDROOT
DOCKED: BRANCH   1   2
DOCKED: ATOM      2  C   UNL     1      23.235 -18.651  -0.722 -0.83 -0.00    +0.000 C 
DOCKED: BRANCH   2   5
DOCKED: ATOM      3  O   UNL     1      19.835 -19.737  -1.981 -2.33 -0.00    +0.000 OA
DOCKED: ATOM      4  N   UNL     1      21.173 -19.696  -1.785 -0.60 -0.00    +0.000 N 
DOCKED: ATOM      5  C   UNL     1      21.749 -18.708  -0.926 -0.83 -0.00    +0.000 C 
DOCKED: ATOM      6  O   UNL     1      21.009 -17.861  -0.358 -1.95 +0.00    +0.000 OA
DOCKED: ATOM      7  H   UNL     1      21.754 -20.350  -2.236 -0.56 -0.00    +0.000 HD
DOCKED: ENDBRANCH   2   5
DOCKED: ENDBRANCH   1   2
DOCKED: BRANCH   1   8
DOCKED: ATOM      8  C   UNL     1      25.353 -17.287  -1.109 -0.65 -0.00    +0.000 C 
DOCKED: BRANCH   8   9
DOCKED: ATOM      9  C   UNL     1      25.899 -16.087  -1.836 -0.46 -0.00    +0.000 A 
DOCKED: ATOM     10  C   UNL     1      26.719 -15.164  -1.164 -0.31 -0.00    +0.000 A 
DOCKED: ATOM     11  C   UNL     1      27.198 -14.032  -1.832 -0.20 -0.00    +0.000 A 
DOCKED: ATOM     12  C   UNL     1      26.855 -13.809  -3.168 -0.26 -0.00    +0.000 A 
DOCKED: ATOM     13  C   UNL     1      26.028 -14.716  -3.839 -0.48 -0.00    +0.000 A 
DOCKED: ATOM     14  C   UNL     1      25.547 -15.849  -3.175 -0.48 -0.00    +0.000 A 
DOCKED: ENDBRANCH   8   9
DOCKED: ENDBRANCH   1   8
DOCKED: TORSDOF 4
DOCKED: TER
DOCKED: ENDMDL
________________________________________________________________________________


	BEGINNING GENETIC ALGORITHM DOCKING 24 of 100
Run: 24 Seed: 1523843417 1064449445 [ Run 24 of 100 GA/GALS ]
Beginning LAMARCKIAN GENETIC ALGORITHM (LGA), with a maximum of 2500000 energy evaluations.

Final-Value: -10.576


	FINAL GENETIC ALGORITHM DOCKED STATE
	_______________________________________________


Detailed state:  trans 25.226 -17.920 -0.158 quatxyzw -0.351223 0.381724 0.721238 -0.459070 center 0.534 -0.142 0.039 ntor 4 170.0625 -135.8116 -161.9241 -113.4850
State:	 25.226 -17.920  -0.158  -0.395  0.430  0.812 -125.346    170.06 -135.81 -161.92 -113.49

DOCKED: MODEL       24
DOCKED: USER    Run = 24
DOCKED: USER    DPF = ligand_dock.biased.dpf
DOCKED: USER  
DOCKED: USER    Estimated Free Energy of Binding    =   -9.06 kcal/mol  [=(1)+(2)+(3)-(4)]
DOCKED: USER    Estimated Inhibition Constant, Ki   =  228.39 nM (nanomolar)  [Temperature = 298.15 K]
DOCKED: USER    
DOCKED: USER    (1) Final Intermolecular Energy     =  -10.25 kcal/mol
DOCKED: USER        vdW + Hbond + desolv Energy     =  -10.25 kcal/mol
DOCKED: USER        Electrostatic Energy            =   +0.00 kcal/mol
DOCKED: USER    (2) Final Total Internal Energy     =   -0.32 kcal/mol
DOCKED: USER    (3) Torsional Free Energy           =   +1.19 kcal/mol
DOCKED: USER    (4) Unbound System's Energy  [=(2)] =   -0.32 kcal/mol
DOCKED: USER    
DOCKED: USER    
DOCKED: USER    NEWDPF move ligand.pdbqt
DOCKED: USER    NEWDPF about 0.534000 -0.142000 0.039000
DOCKED: USER    NEWDPF tran0 25.226170 -17.919506 -0.157692
DOCKED: USER    NEWDPF quaternion0 -0.351223 0.381724 0.721238 -0.459070
DOCKED: USER    NEWDPF axisangle0 -0.395344 0.429676 0.811839 -125.345829
DOCKED: USER    NEWDPF quat0 -0.395344 0.429676 0.811839 -125.345829
DOCKED: USER    NEWDPF dihe0 170.06 -135.81 -161.92 -113.49 
DOCKED: USER  keepresnum = 1 
DOCKED: USER  
DOCKED: REMARK  Name = 
DOCKED: REMARK  4 active torsions:
DOCKED: REMARK  status: ('A' for Active; 'I' for Inactive)
DOCKED: REMARK    1  A    between atoms: C_3  and  C_4
DOCKED: REMARK    2  A    between atoms: C_4  and  C_5
DOCKED: REMARK    3  A    between atoms: C_5  and  C_6
DOCKED: REMARK    4  A    between atoms: C_6  and  C_7
DOCKED: REMARK                            x       y       z     vdW  Elec       q    Type
DOCKED: REMARK                         _______ _______ _______ _____ _____    ______ ____
DOCKED: USER                              x       y       z     vdW  Elec       q    Type
DOCKED: USER                           _______ _______ _______ _____ _____    ______ ____
DOCKED: ROOT
DOCKED: ATOM      1  C   UNL     1      23.898 -18.262  -0.032 -0.72 -0.00    +0.000 C 
DOCKED: ENDROOT
DOCKED: BRANCH   1   2
DOCKED: ATOM      2  C   UNL     1      23.077 -18.020  -1.307 -0.71 -0.00    +0.000 C 
DOCKED: BRANCH   2   5
DOCKED: ATOM      3  O   UNL     1      19.890 -20.061  -1.292 -2.02 -0.00    +0.000 OA
DOCKED: ATOM      4  N   UNL     1      21.190 -19.721  -1.443 -0.68 -0.00    +0.000 N 
DOCKED: ATOM      5  C   UNL     1      21.638 -18.401  -1.121 -0.68 -0.00    +0.000 C 
DOCKED: ATOM      6  O   UNL     1      20.814 -17.543  -0.706 -2.11 +0.00    +0.000 OA
DOCKED: ATOM      7  H   UNL     1      21.834 -20.387  -1.777 -0.41 -0.00    +0.000 HD
DOCKED: ENDBRANCH   2   5
DOCKED: ENDBRANCH   1   2
DOCKED: BRANCH   1   8
DOCKED: ATOM      8  C   UNL     1      25.389 -18.468  -0.330 -0.65 -0.00    +0.000 C 
DOCKED: BRANCH   8   9
DOCKED: ATOM      9  C   UNL     1      26.016 -17.183  -0.799 -0.53 -0.00    +0.000 A 
DOCKED: ATOM     10  C   UNL     1      25.733 -16.683  -2.081 -0.49 -0.00    +0.000 A 
DOCKED: ATOM     11  C   UNL     1      26.341 -15.505  -2.528 -0.40 -0.00    +0.000 A 
DOCKED: ATOM     12  C   UNL     1      27.243 -14.826  -1.704 -0.24 -0.00    +0.000 A 
DOCKED: ATOM     13  C   UNL     1      27.540 -15.325  -0.432 -0.27 -0.00    +0.000 A 
DOCKED: ATOM     14  C   UNL     1      26.933 -16.502   0.019 -0.35 -0.00    +0.000 A 
DOCKED: ENDBRANCH   8   9
DOCKED: ENDBRANCH   1   8
DOCKED: TORSDOF 4
DOCKED: TER
DOCKED: ENDMDL
________________________________________________________________________________


	BEGINNING GENETIC ALGORITHM DOCKING 25 of 100
Run: 25 Seed: 332462218 1230168945 [ Run 25 of 100 GA/GALS ]
Beginning LAMARCKIAN GENETIC ALGORITHM (LGA), with a maximum of 2500000 energy evaluations.

Final-Value: -11.171


	FINAL GENETIC ALGORITHM DOCKED STATE
	_______________________________________________


Detailed state:  trans 25.193 -17.593 -1.309 quatxyzw -0.600272 0.763766 -0.200143 0.127587 center 0.534 -0.142 0.039 ntor 4 7.7599 -120.1241 -71.8560 -21.0879
State:	 25.193 -17.593  -1.309  -0.605  0.770 -0.202 165.340      7.76 -120.12  -71.86  -21.09

DOCKED: MODEL       25
DOCKED: USER    Run = 25
DOCKED: USER    DPF = ligand_dock.biased.dpf
DOCKED: USER  
DOCKED: USER    Estimated Free Energy of Binding    =   -9.66 kcal/mol  [=(1)+(2)+(3)-(4)]
DOCKED: USER    Estimated Inhibition Constant, Ki   =   82.92 nM (nanomolar)  [Temperature = 298.15 K]
DOCKED: USER    
DOCKED: USER    (1) Final Intermolecular Energy     =  -10.85 kcal/mol
DOCKED: USER        vdW + Hbond + desolv Energy     =  -10.85 kcal/mol
DOCKED: USER        Electrostatic Energy            =   +0.00 kcal/mol
DOCKED: USER    (2) Final Total Internal Energy     =   -0.32 kcal/mol
DOCKED: USER    (3) Torsional Free Energy           =   +1.19 kcal/mol
DOCKED: USER    (4) Unbound System's Energy  [=(2)] =   -0.32 kcal/mol
DOCKED: USER    
DOCKED: USER    
DOCKED: USER    NEWDPF move ligand.pdbqt
DOCKED: USER    NEWDPF about 0.534000 -0.142000 0.039000
DOCKED: USER    NEWDPF tran0 25.193475 -17.592859 -1.309446
DOCKED: USER    NEWDPF quaternion0 -0.600272 0.763766 -0.200143 0.127587
DOCKED: USER    NEWDPF axisangle0 -0.605218 0.770059 -0.201792 165.339657
DOCKED: USER    NEWDPF quat0 -0.605218 0.770059 -0.201792 165.339657
DOCKED: USER    NEWDPF dihe0 7.76 -120.12 -71.86 -21.09 
DOCKED: USER  keepresnum = 1 
DOCKED: USER  
DOCKED: REMARK  Name = 
DOCKED: REMARK  4 active torsions:
DOCKED: REMARK  status: ('A' for Active; 'I' for Inactive)
DOCKED: REMARK    1  A    between atoms: C_3  and  C_4
DOCKED: REMARK    2  A    between atoms: C_4  and  C_5
DOCKED: REMARK    3  A    between atoms: C_5  and  C_6
DOCKED: REMARK    4  A    between atoms: C_6  and  C_7
DOCKED: REMARK                            x       y       z     vdW  Elec       q    Type
DOCKED: REMARK                         _______ _______ _______ _____ _____    ______ ____
DOCKED: USER                              x       y       z     vdW  Elec       q    Type
DOCKED: USER                           _______ _______ _______ _____ _____    ______ ____
DOCKED: ROOT
DOCKED: ATOM      1  C   UNL     1      23.824 -17.477  -1.401 -0.70 -0.00    +0.000 C 
DOCKED: ENDROOT
DOCKED: BRANCH   1   2
DOCKED: ATOM      2  C   UNL     1      23.062 -18.547  -0.606 -0.83 -0.00    +0.000 C 
DOCKED: BRANCH   2   5
DOCKED: ATOM      3  O   UNL     1      19.871 -19.803  -2.207 -2.28 -0.00    +0.000 OA
DOCKED: ATOM      4  N   UNL     1      21.163 -19.733  -1.814 -0.59 -0.00    +0.000 N 
DOCKED: ATOM      5  C   UNL     1      21.624 -18.632  -1.026 -0.81 -0.00    +0.000 C 
DOCKED: ATOM      6  O   UNL     1      20.825 -17.712  -0.706 -2.18 -0.00    +0.000 OA
DOCKED: ATOM      7  H   UNL     1      21.792 -20.446  -2.072 -0.49 -0.00    +0.000 HD
DOCKED: ENDBRANCH   2   5
DOCKED: ENDBRANCH   1   2
DOCKED: BRANCH   1   8
DOCKED: ATOM      8  C   UNL     1      25.229 -17.225  -0.840 -0.65 -0.00    +0.000 C 
DOCKED: BRANCH   8   9
DOCKED: ATOM      9  C   UNL     1      26.089 -16.531  -1.862 -0.46 -0.00    +0.000 A 
DOCKED: ATOM     10  C   UNL     1      25.501 -15.882  -2.961 -0.49 -0.00    +0.000 A 
DOCKED: ATOM     11  C   UNL     1      26.304 -15.266  -3.926 -0.49 -0.00    +0.000 A 
DOCKED: ATOM     12  C   UNL     1      27.695 -15.302  -3.808 -0.31 -0.00    +0.000 A 
DOCKED: ATOM     13  C   UNL     1      28.288 -15.959  -2.725 -0.24 -0.00    +0.000 A 
DOCKED: ATOM     14  C   UNL     1      27.490 -16.576  -1.757 -0.33 -0.00    +0.000 A 
DOCKED: ENDBRANCH   8   9
DOCKED: ENDBRANCH   1   8
DOCKED: TORSDOF 4
DOCKED: TER
DOCKED: ENDMDL
________________________________________________________________________________


	BEGINNING GENETIC ALGORITHM DOCKING 26 of 100
Run: 26 Seed: 264360049 764511532 [ Run 26 of 100 GA/GALS ]
Beginning LAMARCKIAN GENETIC ALGORITHM (LGA), with a maximum of 2500000 energy evaluations.

Final-Value: -11.183


	FINAL GENETIC ALGORITHM DOCKED STATE
	_______________________________________________


Detailed state:  trans 25.169 -17.936 -0.494 quatxyzw 0.427688 -0.578681 0.653521 -0.234782 center 0.534 -0.142 0.039 ntor 4 -31.2860 -145.0543 -125.6891 46.4659
State:	 25.169 -17.936  -0.494   0.440 -0.595  0.672 -152.843    -31.29 -145.05 -125.69   46.47

DOCKED: MODEL       26
DOCKED: USER    Run = 26
DOCKED: USER    DPF = ligand_dock.biased.dpf
DOCKED: USER  
DOCKED: USER    Estimated Free Energy of Binding    =   -9.60 kcal/mol  [=(1)+(2)+(3)-(4)]
DOCKED: USER    Estimated Inhibition Constant, Ki   =   92.07 nM (nanomolar)  [Temperature = 298.15 K]
DOCKED: USER    
DOCKED: USER    (1) Final Intermolecular Energy     =  -10.79 kcal/mol
DOCKED: USER        vdW + Hbond + desolv Energy     =  -10.79 kcal/mol
DOCKED: USER        Electrostatic Energy            =   +0.00 kcal/mol
DOCKED: USER    (2) Final Total Internal Energy     =   -0.39 kcal/mol
DOCKED: USER    (3) Torsional Free Energy           =   +1.19 kcal/mol
DOCKED: USER    (4) Unbound System's Energy  [=(2)] =   -0.39 kcal/mol
DOCKED: USER    
DOCKED: USER    
DOCKED: USER    NEWDPF move ligand.pdbqt
DOCKED: USER    NEWDPF about 0.534000 -0.142000 0.039000
DOCKED: USER    NEWDPF tran0 25.169000 -17.936380 -0.493573
DOCKED: USER    NEWDPF quaternion0 0.427688 -0.578681 0.653521 -0.234782
DOCKED: USER    NEWDPF axisangle0 0.439986 -0.595321 0.672313 -152.842507
DOCKED: USER    NEWDPF quat0 0.439986 -0.595321 0.672313 -152.842507
DOCKED: USER    NEWDPF dihe0 -31.29 -145.05 -125.69 46.47 
DOCKED: USER  keepresnum = 1 
DOCKED: USER  
DOCKED: REMARK  Name = 
DOCKED: REMARK  4 active torsions:
DOCKED: REMARK  status: ('A' for Active; 'I' for Inactive)
DOCKED: REMARK    1  A    between atoms: C_3  and  C_4
DOCKED: REMARK    2  A    between atoms: C_4  and  C_5
DOCKED: REMARK    3  A    between atoms: C_5  and  C_6
DOCKED: REMARK    4  A    between atoms: C_6  and  C_7
DOCKED: REMARK                            x       y       z     vdW  Elec       q    Type
DOCKED: REMARK                         _______ _______ _______ _____ _____    ______ ____
DOCKED: USER                              x       y       z     vdW  Elec       q    Type
DOCKED: USER                           _______ _______ _______ _____ _____    ______ ____
DOCKED: ROOT
DOCKED: ATOM      1  C   UNL     1      23.963 -18.241  -1.085 -0.79 -0.00    +0.000 C 
DOCKED: ENDROOT
DOCKED: BRANCH   1   2
DOCKED: ATOM      2  C   UNL     1      22.803 -18.366  -0.087 -0.79 -0.00    +0.000 C 
DOCKED: BRANCH   2   5
DOCKED: ATOM      3  O   UNL     1      19.983 -19.741  -2.205 -2.32 -0.00    +0.000 OA
DOCKED: ATOM      4  N   UNL     1      21.170 -19.643  -1.562 -0.68 -0.00    +0.000 N 
DOCKED: ATOM      5  C   UNL     1      21.479 -18.482  -0.785 -0.83 -0.00    +0.000 C 
DOCKED: ATOM      6  O   UNL     1      20.649 -17.538  -0.708 -2.12 +0.00    +0.000 OA
DOCKED: ATOM      7  H   UNL     1      21.825 -20.375  -1.629 -0.37 -0.00    +0.000 HD
DOCKED: ENDBRANCH   2   5
DOCKED: ENDBRANCH   1   2
DOCKED: BRANCH   1   8
DOCKED: ATOM      8  C   UNL     1      25.092 -17.347  -0.557 -0.63 -0.00    +0.000 C 
DOCKED: BRANCH   8   9
DOCKED: ATOM      9  C   UNL     1      25.482 -16.324  -1.589 -0.51 -0.00    +0.000 A 
DOCKED: ATOM     10  C   UNL     1      25.477 -16.656  -2.955 -0.28 -0.00    +0.000 A 
DOCKED: ATOM     11  C   UNL     1      25.871 -15.713  -3.910 -0.48 -0.00    +0.000 A 
DOCKED: ATOM     12  C   UNL     1      26.282 -14.439  -3.510 -0.40 -0.00    +0.000 A 
DOCKED: ATOM     13  C   UNL     1      26.303 -14.106  -2.152 -0.25 -0.00    +0.000 A 
DOCKED: ATOM     14  C   UNL     1      25.910 -15.045  -1.193 -0.35 -0.00    +0.000 A 
DOCKED: ENDBRANCH   8   9
DOCKED: ENDBRANCH   1   8
DOCKED: TORSDOF 4
DOCKED: TER
DOCKED: ENDMDL
________________________________________________________________________________


	BEGINNING GENETIC ALGORITHM DOCKING 27 of 100
Run: 27 Seed: 1383558151 495627639 [ Run 27 of 100 GA/GALS ]
Beginning LAMARCKIAN GENETIC ALGORITHM (LGA), with a maximum of 2500000 energy evaluations.

Final-Value: -10.846


	FINAL GENETIC ALGORITHM DOCKED STATE
	_______________________________________________


Detailed state:  trans 23.751 -18.630 -0.792 quatxyzw -0.057887 0.406791 0.788920 -0.456919 center 0.534 -0.142 0.039 ntor 4 -5.9776 169.4452 -178.4076 -85.5704
State:	 23.751 -18.630  -0.792  -0.065  0.457  0.887 -125.623     -5.98  169.45 -178.41  -85.57

DOCKED: MODEL       27
DOCKED: USER    Run = 27
DOCKED: USER    DPF = ligand_dock.biased.dpf
DOCKED: USER  
DOCKED: USER    Estimated Free Energy of Binding    =   -9.26 kcal/mol  [=(1)+(2)+(3)-(4)]
DOCKED: USER    Estimated Inhibition Constant, Ki   =  163.40 nM (nanomolar)  [Temperature = 298.15 K]
DOCKED: USER    
DOCKED: USER    (1) Final Intermolecular Energy     =  -10.45 kcal/mol
DOCKED: USER        vdW + Hbond + desolv Energy     =  -10.45 kcal/mol
DOCKED: USER        Electrostatic Energy            =   +0.00 kcal/mol
DOCKED: USER    (2) Final Total Internal Energy     =   -0.39 kcal/mol
DOCKED: USER    (3) Torsional Free Energy           =   +1.19 kcal/mol
DOCKED: USER    (4) Unbound System's Energy  [=(2)] =   -0.39 kcal/mol
DOCKED: USER    
DOCKED: USER    
DOCKED: USER    NEWDPF move ligand.pdbqt
DOCKED: USER    NEWDPF about 0.534000 -0.142000 0.039000
DOCKED: USER    NEWDPF tran0 23.750912 -18.629861 -0.791834
DOCKED: USER    NEWDPF quaternion0 -0.057887 0.406791 0.788920 -0.456919
DOCKED: USER    NEWDPF axisangle0 -0.065077 0.457321 0.886917 -125.623072
DOCKED: USER    NEWDPF quat0 -0.065077 0.457321 0.886917 -125.623072
DOCKED: USER    NEWDPF dihe0 -5.98 169.45 -178.41 -85.57 
DOCKED: USER  keepresnum = 1 
DOCKED: USER  
DOCKED: REMARK  Name = 
DOCKED: REMARK  4 active torsions:
DOCKED: REMARK  status: ('A' for Active; 'I' for Inactive)
DOCKED: REMARK    1  A    between atoms: C_3  and  C_4
DOCKED: REMARK    2  A    between atoms: C_4  and  C_5
DOCKED: REMARK    3  A    between atoms: C_5  and  C_6
DOCKED: REMARK    4  A    between atoms: C_6  and  C_7
DOCKED: REMARK                            x       y       z     vdW  Elec       q    Type
DOCKED: REMARK                         _______ _______ _______ _____ _____    ______ ____
DOCKED: USER                              x       y       z     vdW  Elec       q    Type
DOCKED: USER                           _______ _______ _______ _____ _____    ______ ____
DOCKED: ROOT
DOCKED: ATOM      1  C   UNL     1      22.581 -18.863  -0.103 -0.69 -0.00    +0.000 C 
DOCKED: ENDROOT
DOCKED: BRANCH   1   2
DOCKED: ATOM      2  C   UNL     1      21.361 -18.153  -0.707 -0.78 -0.00    +0.000 C 
DOCKED: BRANCH   2   5
DOCKED: ATOM      3  O   UNL     1      18.229 -20.235  -0.279 -0.93 -0.00    +0.000 OA
DOCKED: ATOM      4  N   UNL     1      19.225 -19.356  -0.024 -0.77 -0.00    +0.000 N 
DOCKED: ATOM      5  C   UNL     1      20.246 -19.115  -0.997 -0.87 -0.00    +0.000 C 
DOCKED: ATOM      6  O   UNL     1      20.226 -19.735  -2.094 -2.34 -0.00    +0.000 OA
DOCKED: ATOM      7  H   UNL     1      19.248 -18.878   0.836 -0.27 -0.00    +0.000 HD
DOCKED: ENDBRANCH   2   5
DOCKED: ENDBRANCH   1   2
DOCKED: BRANCH   1   8
DOCKED: ATOM      8  C   UNL     1      23.683 -19.110  -1.141 -0.71 -0.00    +0.000 C 
DOCKED: BRANCH   8   9
DOCKED: ATOM      9  C   UNL     1      24.733 -18.034  -1.063 -0.65 -0.00    +0.000 A 
DOCKED: ATOM     10  C   UNL     1      24.600 -16.858  -1.820 -0.54 -0.00    +0.000 A 
DOCKED: ATOM     11  C   UNL     1      25.592 -15.873  -1.771 -0.47 -0.00    +0.000 A 
DOCKED: ATOM     12  C   UNL     1      26.726 -16.059  -0.975 -0.38 -0.00    +0.000 A 
DOCKED: ATOM     13  C   UNL     1      26.871 -17.233  -0.229 -0.46 -0.00    +0.000 A 
DOCKED: ATOM     14  C   UNL     1      25.881 -18.220  -0.276 -0.60 -0.00    +0.000 A 
DOCKED: ENDBRANCH   8   9
DOCKED: ENDBRANCH   1   8
DOCKED: TORSDOF 4
DOCKED: TER
DOCKED: ENDMDL
________________________________________________________________________________


	BEGINNING GENETIC ALGORITHM DOCKING 28 of 100
Run: 28 Seed: 1445567385 14911787 [ Run 28 of 100 GA/GALS ]
Beginning LAMARCKIAN GENETIC ALGORITHM (LGA), with a maximum of 2500000 energy evaluations.

Final-Value: -10.735


	FINAL GENETIC ALGORITHM DOCKED STATE
	_______________________________________________


Detailed state:  trans 24.828 -17.195 -1.024 quatxyzw -0.615361 0.539721 -0.573123 0.039527 center 0.534 -0.142 0.039 ntor 4 10.7035 -176.2313 -5.4324 -54.0898
State:	 24.828 -17.195  -1.024  -0.616  0.540 -0.574 175.469     10.70 -176.23   -5.43  -54.09

DOCKED: MODEL       28
DOCKED: USER    Run = 28
DOCKED: USER    DPF = ligand_dock.biased.dpf
DOCKED: USER  
DOCKED: USER    Estimated Free Energy of Binding    =   -9.20 kcal/mol  [=(1)+(2)+(3)-(4)]
DOCKED: USER    Estimated Inhibition Constant, Ki   =  180.09 nM (nanomolar)  [Temperature = 298.15 K]
DOCKED: USER    
DOCKED: USER    (1) Final Intermolecular Energy     =  -10.39 kcal/mol
DOCKED: USER        vdW + Hbond + desolv Energy     =  -10.39 kcal/mol
DOCKED: USER        Electrostatic Energy            =   +0.00 kcal/mol
DOCKED: USER    (2) Final Total Internal Energy     =   -0.34 kcal/mol
DOCKED: USER    (3) Torsional Free Energy           =   +1.19 kcal/mol
DOCKED: USER    (4) Unbound System's Energy  [=(2)] =   -0.34 kcal/mol
DOCKED: USER    
DOCKED: USER    
DOCKED: USER    NEWDPF move ligand.pdbqt
DOCKED: USER    NEWDPF about 0.534000 -0.142000 0.039000
DOCKED: USER    NEWDPF tran0 24.827515 -17.195168 -1.024362
DOCKED: USER    NEWDPF quaternion0 -0.615361 0.539721 -0.573123 0.039527
DOCKED: USER    NEWDPF axisangle0 -0.615842 0.540143 -0.573571 175.469311
DOCKED: USER    NEWDPF quat0 -0.615842 0.540143 -0.573571 175.469311
DOCKED: USER    NEWDPF dihe0 10.70 -176.23 -5.43 -54.09 
DOCKED: USER  keepresnum = 1 
DOCKED: USER  
DOCKED: REMARK  Name = 
DOCKED: REMARK  4 active torsions:
DOCKED: REMARK  status: ('A' for Active; 'I' for Inactive)
DOCKED: REMARK    1  A    between atoms: C_3  and  C_4
DOCKED: REMARK    2  A    between atoms: C_4  and  C_5
DOCKED: REMARK    3  A    between atoms: C_5  and  C_6
DOCKED: REMARK    4  A    between atoms: C_6  and  C_7
DOCKED: REMARK                            x       y       z     vdW  Elec       q    Type
DOCKED: REMARK                         _______ _______ _______ _____ _____    ______ ____
DOCKED: USER                              x       y       z     vdW  Elec       q    Type
DOCKED: USER                           _______ _______ _______ _____ _____    ______ ____
DOCKED: ROOT
DOCKED: ATOM      1  C   UNL     1      23.790 -17.860  -1.642 -0.66 -0.00    +0.000 C 
DOCKED: ENDROOT
DOCKED: BRANCH   1   2
DOCKED: ATOM      2  C   UNL     1      22.990 -18.764  -0.695 -0.83 -0.00    +0.000 C 
DOCKED: BRANCH   2   5
DOCKED: ATOM      3  O   UNL     1      19.512 -19.734  -1.829 -2.14 -0.00    +0.000 OA
DOCKED: ATOM      4  N   UNL     1      20.836 -19.803  -1.564 -0.70 -0.00    +0.000 N 
DOCKED: ATOM      5  C   UNL     1      21.516 -18.693  -0.972 -0.83 -0.00    +0.000 C 
DOCKED: ATOM      6  O   UNL     1      20.882 -17.637  -0.707 -2.14 -0.00    +0.000 OA
DOCKED: ATOM      7  H   UNL     1      21.337 -20.624  -1.779 -0.29 -0.00    +0.000 HD
DOCKED: ENDBRANCH   2   5
DOCKED: ENDBRANCH   1   2
DOCKED: BRANCH   1   8
DOCKED: ATOM      8  C   UNL     1      24.493 -16.716  -0.899 -0.60 -0.00    +0.000 C 
DOCKED: BRANCH   8   9
DOCKED: ATOM      9  C   UNL     1      25.952 -16.665  -1.267 -0.49 -0.00    +0.000 A 
DOCKED: ATOM     10  C   UNL     1      26.368 -15.991  -2.428 -0.41 -0.00    +0.000 A 
DOCKED: ATOM     11  C   UNL     1      27.720 -15.973  -2.786 -0.27 -0.00    +0.000 A 
DOCKED: ATOM     12  C   UNL     1      28.663 -16.634  -1.995 -0.26 -0.00    +0.000 A 
DOCKED: ATOM     13  C   UNL     1      28.255 -17.318  -0.845 -0.30 -0.00    +0.000 A 
DOCKED: ATOM     14  C   UNL     1      26.904 -17.339  -0.484 -0.47 -0.00    +0.000 A 
DOCKED: ENDBRANCH   8   9
DOCKED: ENDBRANCH   1   8
DOCKED: TORSDOF 4
DOCKED: TER
DOCKED: ENDMDL
________________________________________________________________________________


	BEGINNING GENETIC ALGORITHM DOCKING 29 of 100
Run: 29 Seed: 1798924664 1601302634 [ Run 29 of 100 GA/GALS ]
Beginning LAMARCKIAN GENETIC ALGORITHM (LGA), with a maximum of 2500000 energy evaluations.

Final-Value: -10.935


	FINAL GENETIC ALGORITHM DOCKED STATE
	_______________________________________________


Detailed state:  trans 23.845 -16.860 -1.808 quatxyzw -0.420074 0.633024 0.592156 0.268645 center 0.534 -0.142 0.039 ntor 4 36.2508 -27.9697 6.3287 54.1862
State:	 23.845 -16.860  -1.808  -0.436  0.657  0.615 148.833     36.25  -27.97    6.33   54.19

DOCKED: MODEL       29
DOCKED: USER    Run = 29
DOCKED: USER    DPF = ligand_dock.biased.dpf
DOCKED: USER  
DOCKED: USER    Estimated Free Energy of Binding    =   -9.38 kcal/mol  [=(1)+(2)+(3)-(4)]
DOCKED: USER    Estimated Inhibition Constant, Ki   =  134.25 nM (nanomolar)  [Temperature = 298.15 K]
DOCKED: USER    
DOCKED: USER    (1) Final Intermolecular Energy     =  -10.57 kcal/mol
DOCKED: USER        vdW + Hbond + desolv Energy     =  -10.57 kcal/mol
DOCKED: USER        Electrostatic Energy            =   +0.00 kcal/mol
DOCKED: USER    (2) Final Total Internal Energy     =   -0.37 kcal/mol
DOCKED: USER    (3) Torsional Free Energy           =   +1.19 kcal/mol
DOCKED: USER    (4) Unbound System's Energy  [=(2)] =   -0.37 kcal/mol
DOCKED: USER    
DOCKED: USER    
DOCKED: USER    NEWDPF move ligand.pdbqt
DOCKED: USER    NEWDPF about 0.534000 -0.142000 0.039000
DOCKED: USER    NEWDPF tran0 23.845081 -16.859687 -1.807864
DOCKED: USER    NEWDPF quaternion0 -0.420074 0.633024 0.592156 0.268645
DOCKED: USER    NEWDPF axisangle0 -0.436106 0.657182 0.614754 148.832678
DOCKED: USER    NEWDPF quat0 -0.436106 0.657182 0.614754 148.832678
DOCKED: USER    NEWDPF dihe0 36.25 -27.97 6.33 54.19 
DOCKED: USER  keepresnum = 1 
DOCKED: USER  
DOCKED: REMARK  Name = 
DOCKED: REMARK  4 active torsions:
DOCKED: REMARK  status: ('A' for Active; 'I' for Inactive)
DOCKED: REMARK    1  A    between atoms: C_3  and  C_4
DOCKED: REMARK    2  A    between atoms: C_4  and  C_5
DOCKED: REMARK    3  A    between atoms: C_5  and  C_6
DOCKED: REMARK    4  A    between atoms: C_6  and  C_7
DOCKED: REMARK                            x       y       z     vdW  Elec       q    Type
DOCKED: REMARK                         _______ _______ _______ _____ _____    ______ ____
DOCKED: USER                              x       y       z     vdW  Elec       q    Type
DOCKED: USER                           _______ _______ _______ _____ _____    ______ ____
DOCKED: ROOT
DOCKED: ATOM      1  C   UNL     1      23.483 -17.120  -0.504 -0.62 -0.00    +0.000 C 
DOCKED: ENDROOT
DOCKED: BRANCH   1   2
DOCKED: ATOM      2  C   UNL     1      22.871 -18.513  -0.303 -0.82 -0.00    +0.000 C 
DOCKED: BRANCH   2   5
DOCKED: ATOM      3  O   UNL     1      19.878 -19.812  -2.220 -2.27 -0.00    +0.000 OA
DOCKED: ATOM      4  N   UNL     1      21.115 -19.736  -1.678 -0.65 -0.00    +0.000 N 
DOCKED: ATOM      5  C   UNL     1      21.493 -18.605  -0.889 -0.83 -0.00    +0.000 C 
DOCKED: ATOM      6  O   UNL     1      20.674 -17.665  -0.707 -2.20 +0.00    +0.000 OA
DOCKED: ATOM      7  H   UNL     1      21.760 -20.465  -1.827 -0.42 -0.00    +0.000 HD
DOCKED: ENDBRANCH   2   5
DOCKED: ENDBRANCH   1   2
DOCKED: BRANCH   1   8
DOCKED: ATOM      8  C   UNL     1      24.403 -17.059  -1.731 -0.63 -0.00    +0.000 C 
DOCKED: BRANCH   8   9
DOCKED: ATOM      9  C   UNL     1      25.783 -16.606  -1.333 -0.50 -0.00    +0.000 A 
DOCKED: ATOM     10  C   UNL     1      26.793 -17.549  -1.077 -0.44 -0.00    +0.000 A 
DOCKED: ATOM     11  C   UNL     1      28.064 -17.126  -0.677 -0.34 -0.00    +0.000 A 
DOCKED: ATOM     12  C   UNL     1      28.334 -15.764  -0.520 -0.24 -0.00    +0.000 A 
DOCKED: ATOM     13  C   UNL     1      27.330 -14.821  -0.760 -0.24 -0.00    +0.000 A 
DOCKED: ATOM     14  C   UNL     1      26.057 -15.239  -1.161 -0.36 -0.00    +0.000 A 
DOCKED: ENDBRANCH   8   9
DOCKED: ENDBRANCH   1   8
DOCKED: TORSDOF 4
DOCKED: TER
DOCKED: ENDMDL
________________________________________________________________________________


	BEGINNING GENETIC ALGORITHM DOCKING 30 of 100
Run: 30 Seed: 737718099 769319984 [ Run 30 of 100 GA/GALS ]
Beginning LAMARCKIAN GENETIC ALGORITHM (LGA), with a maximum of 2500000 energy evaluations.

Final-Value: -11.071


	FINAL GENETIC ALGORITHM DOCKED STATE
	_______________________________________________


Detailed state:  trans 25.023 -17.102 -0.564 quatxyzw 0.474172 -0.440710 0.744682 -0.162432 center 0.534 -0.142 0.039 ntor 4 -30.7500 -161.4198 166.4421 9.1913
State:	 25.023 -17.102  -0.564   0.481 -0.447  0.755 -161.304    -30.75 -161.42  166.44    9.19

DOCKED: MODEL       30
DOCKED: USER    Run = 30
DOCKED: USER    DPF = ligand_dock.biased.dpf
DOCKED: USER  
DOCKED: USER    Estimated Free Energy of Binding    =   -9.52 kcal/mol  [=(1)+(2)+(3)-(4)]
DOCKED: USER    Estimated Inhibition Constant, Ki   =  105.22 nM (nanomolar)  [Temperature = 298.15 K]
DOCKED: USER    
DOCKED: USER    (1) Final Intermolecular Energy     =  -10.71 kcal/mol
DOCKED: USER        vdW + Hbond + desolv Energy     =  -10.71 kcal/mol
DOCKED: USER        Electrostatic Energy            =   +0.00 kcal/mol
DOCKED: USER    (2) Final Total Internal Energy     =   -0.36 kcal/mol
DOCKED: USER    (3) Torsional Free Energy           =   +1.19 kcal/mol
DOCKED: USER    (4) Unbound System's Energy  [=(2)] =   -0.36 kcal/mol
DOCKED: USER    
DOCKED: USER    
DOCKED: USER    NEWDPF move ligand.pdbqt
DOCKED: USER    NEWDPF about 0.534000 -0.142000 0.039000
DOCKED: USER    NEWDPF tran0 25.022924 -17.102169 -0.563547
DOCKED: USER    NEWDPF quaternion0 0.474172 -0.440710 0.744682 -0.162432
DOCKED: USER    NEWDPF axisangle0 0.480553 -0.446642 0.754705 -161.303806
DOCKED: USER    NEWDPF quat0 0.480553 -0.446642 0.754705 -161.303806
DOCKED: USER    NEWDPF dihe0 -30.75 -161.42 166.44 9.19 
DOCKED: USER  keepresnum = 1 
DOCKED: USER  
DOCKED: REMARK  Name = 
DOCKED: REMARK  4 active torsions:
DOCKED: REMARK  status: ('A' for Active; 'I' for Inactive)
DOCKED: REMARK    1  A    between atoms: C_3  and  C_4
DOCKED: REMARK    2  A    between atoms: C_4  and  C_5
DOCKED: REMARK    3  A    between atoms: C_5  and  C_6
DOCKED: REMARK    4  A    between atoms: C_6  and  C_7
DOCKED: REMARK                            x       y       z     vdW  Elec       q    Type
DOCKED: REMARK                         _______ _______ _______ _____ _____    ______ ____
DOCKED: USER                              x       y       z     vdW  Elec       q    Type
DOCKED: USER                           _______ _______ _______ _____ _____    ______ ____
DOCKED: ROOT
DOCKED: ATOM      1  C   UNL     1      24.006 -17.871  -1.086 -0.77 -0.00    +0.000 C 
DOCKED: ENDROOT
DOCKED: BRANCH   1   2
DOCKED: ATOM      2  C   UNL     1      22.873 -18.151  -0.088 -0.77 -0.00    +0.000 C 
DOCKED: BRANCH   2   5
DOCKED: ATOM      3  O   UNL     1      20.240 -19.852  -2.209 -2.30 -0.00    +0.000 OA
DOCKED: ATOM      4  N   UNL     1      21.406 -19.612  -1.566 -0.60 -0.00    +0.000 N 
DOCKED: ATOM      5  C   UNL     1      21.573 -18.425  -0.786 -0.83 -0.00    +0.000 C 
DOCKED: ATOM      6  O   UNL     1      20.634 -17.589  -0.707 -2.16 +0.00    +0.000 OA
DOCKED: ATOM      7  H   UNL     1      22.145 -20.260  -1.636 -0.38 -0.00    +0.000 HD
DOCKED: ENDBRANCH   2   5
DOCKED: ENDBRANCH   1   2
DOCKED: BRANCH   1   8
DOCKED: ATOM      8  C   UNL     1      24.777 -16.589  -0.746 -0.54 -0.00    +0.000 C 
DOCKED: BRANCH   8   9
DOCKED: ATOM      9  C   UNL     1      25.671 -16.192  -1.890 -0.49 -0.00    +0.000 A 
DOCKED: ATOM     10  C   UNL     1      27.056 -16.415  -1.819 -0.36 -0.00    +0.000 A 
DOCKED: ATOM     11  C   UNL     1      27.889 -16.017  -2.870 -0.25 -0.00    +0.000 A 
DOCKED: ATOM     12  C   UNL     1      27.347 -15.384  -3.991 -0.35 -0.00    +0.000 A 
DOCKED: ATOM     13  C   UNL     1      25.971 -15.145  -4.064 -0.54 -0.00    +0.000 A 
DOCKED: ATOM     14  C   UNL     1      25.135 -15.543  -3.015 -0.37 -0.00    +0.000 A 
DOCKED: ENDBRANCH   8   9
DOCKED: ENDBRANCH   1   8
DOCKED: TORSDOF 4
DOCKED: TER
DOCKED: ENDMDL
________________________________________________________________________________


	BEGINNING GENETIC ALGORITHM DOCKING 31 of 100
Run: 31 Seed: 647105997 1814739163 [ Run 31 of 100 GA/GALS ]
Beginning LAMARCKIAN GENETIC ALGORITHM (LGA), with a maximum of 2500000 energy evaluations.

Final-Value: -11.266


	FINAL GENETIC ALGORITHM DOCKED STATE
	_______________________________________________


Detailed state:  trans 24.602 -17.910 -1.310 quatxyzw 0.355370 0.077490 0.888540 -0.279649 center 0.534 -0.142 0.039 ntor 4 -47.1508 141.8270 -41.0979 -82.0703
State:	 24.602 -17.910  -1.310   0.370  0.081  0.925 -147.522    -47.15  141.83  -41.10  -82.07

DOCKED: MODEL       31
DOCKED: USER    Run = 31
DOCKED: USER    DPF = ligand_dock.biased.dpf
DOCKED: USER  
DOCKED: USER    Estimated Free Energy of Binding    =   -9.61 kcal/mol  [=(1)+(2)+(3)-(4)]
DOCKED: USER    Estimated Inhibition Constant, Ki   =   89.61 nM (nanomolar)  [Temperature = 298.15 K]
DOCKED: USER    
DOCKED: USER    (1) Final Intermolecular Energy     =  -10.81 kcal/mol
DOCKED: USER        vdW + Hbond + desolv Energy     =  -10.81 kcal/mol
DOCKED: USER        Electrostatic Energy            =   +0.00 kcal/mol
DOCKED: USER    (2) Final Total Internal Energy     =   -0.46 kcal/mol
DOCKED: USER    (3) Torsional Free Energy           =   +1.19 kcal/mol
DOCKED: USER    (4) Unbound System's Energy  [=(2)] =   -0.46 kcal/mol
DOCKED: USER    
DOCKED: USER    
DOCKED: USER    NEWDPF move ligand.pdbqt
DOCKED: USER    NEWDPF about 0.534000 -0.142000 0.039000
DOCKED: USER    NEWDPF tran0 24.601510 -17.909882 -1.309939
DOCKED: USER    NEWDPF quaternion0 0.355370 0.077490 0.888540 -0.279649
DOCKED: USER    NEWDPF axisangle0 0.370138 0.080710 0.925464 -147.521521
DOCKED: USER    NEWDPF quat0 0.370138 0.080710 0.925464 -147.521521
DOCKED: USER    NEWDPF dihe0 -47.15 141.83 -41.10 -82.07 
DOCKED: USER  keepresnum = 1 
DOCKED: USER  
DOCKED: REMARK  Name = 
DOCKED: REMARK  4 active torsions:
DOCKED: REMARK  status: ('A' for Active; 'I' for Inactive)
DOCKED: REMARK    1  A    between atoms: C_3  and  C_4
DOCKED: REMARK    2  A    between atoms: C_4  and  C_5
DOCKED: REMARK    3  A    between atoms: C_5  and  C_6
DOCKED: REMARK    4  A    between atoms: C_6  and  C_7
DOCKED: REMARK                            x       y       z     vdW  Elec       q    Type
DOCKED: REMARK                         _______ _______ _______ _____ _____    ______ ____
DOCKED: USER                              x       y       z     vdW  Elec       q    Type
DOCKED: USER                           _______ _______ _______ _____ _____    ______ ____
DOCKED: ROOT
DOCKED: ATOM      1  C   UNL     1      23.859 -18.932  -0.760 -0.74 -0.00    +0.000 C 
DOCKED: ENDROOT
DOCKED: BRANCH   1   2
DOCKED: ATOM      2  C   UNL     1      22.650 -18.446   0.051 -0.76 -0.00    +0.000 C 
DOCKED: BRANCH   2   5
DOCKED: ATOM      3  O   UNL     1      19.878 -19.735  -2.180 -2.32 -0.00    +0.000 OA
DOCKED: ATOM      4  N   UNL     1      21.011 -19.694  -1.441 -0.76 -0.00    +0.000 N 
DOCKED: ATOM      5  C   UNL     1      21.384 -18.497  -0.753 -0.84 -0.00    +0.000 C 
DOCKED: ATOM      6  O   UNL     1      20.663 -17.468  -0.846 -2.07 +0.00    +0.000 OA
DOCKED: ATOM      7  H   UNL     1      21.582 -20.493  -1.376 -0.26 -0.00    +0.000 HD
DOCKED: ENDBRANCH   2   5
DOCKED: ENDBRANCH   1   2
DOCKED: BRANCH   1   8
DOCKED: ATOM      8  C   UNL     1      24.295 -17.915  -1.823 -0.65 -0.00    +0.000 C 
DOCKED: BRANCH   8   9
DOCKED: ATOM      9  C   UNL     1      25.492 -17.135  -1.349 -0.56 -0.00    +0.000 A 
DOCKED: ATOM     10  C   UNL     1      26.602 -17.802  -0.803 -0.49 -0.00    +0.000 A 
DOCKED: ATOM     11  C   UNL     1      27.700 -17.075  -0.333 -0.35 -0.00    +0.000 A 
DOCKED: ATOM     12  C   UNL     1      27.694 -15.679  -0.395 -0.28 -0.00    +0.000 A 
DOCKED: ATOM     13  C   UNL     1      26.587 -15.007  -0.925 -0.31 -0.00    +0.000 A 
DOCKED: ATOM     14  C   UNL     1      25.487 -15.731  -1.396 -0.43 -0.00    +0.000 A 
DOCKED: ENDBRANCH   8   9
DOCKED: ENDBRANCH   1   8
DOCKED: TORSDOF 4
DOCKED: TER
DOCKED: ENDMDL
________________________________________________________________________________


	BEGINNING GENETIC ALGORITHM DOCKING 32 of 100
Run: 32 Seed: 1529294363 1578895253 [ Run 32 of 100 GA/GALS ]
Beginning LAMARCKIAN GENETIC ALGORITHM (LGA), with a maximum of 2500000 energy evaluations.

Final-Value: -11.058


	FINAL GENETIC ALGORITHM DOCKED STATE
	_______________________________________________


Detailed state:  trans 24.806 -17.522 -1.551 quatxyzw 0.535190 -0.813380 -0.115301 -0.196699 center 0.534 -0.142 0.039 ntor 4 12.1149 -74.6079 19.6013 -11.0574
State:	 24.806 -17.522  -1.551   0.546 -0.830 -0.118 -157.312     12.11  -74.61   19.60  -11.06

DOCKED: MODEL       32
DOCKED: USER    Run = 32
DOCKED: USER    DPF = ligand_dock.biased.dpf
DOCKED: USER  
DOCKED: USER    Estimated Free Energy of Binding    =   -9.53 kcal/mol  [=(1)+(2)+(3)-(4)]
DOCKED: USER    Estimated Inhibition Constant, Ki   =  103.55 nM (nanomolar)  [Temperature = 298.15 K]
DOCKED: USER    
DOCKED: USER    (1) Final Intermolecular Energy     =  -10.72 kcal/mol
DOCKED: USER        vdW + Hbond + desolv Energy     =  -10.72 kcal/mol
DOCKED: USER        Electrostatic Energy            =   +0.00 kcal/mol
DOCKED: USER    (2) Final Total Internal Energy     =   -0.34 kcal/mol
DOCKED: USER    (3) Torsional Free Energy           =   +1.19 kcal/mol
DOCKED: USER    (4) Unbound System's Energy  [=(2)] =   -0.34 kcal/mol
DOCKED: USER    
DOCKED: USER    
DOCKED: USER    NEWDPF move ligand.pdbqt
DOCKED: USER    NEWDPF about 0.534000 -0.142000 0.039000
DOCKED: USER    NEWDPF tran0 24.806476 -17.522276 -1.551495
DOCKED: USER    NEWDPF quaternion0 0.535190 -0.813380 -0.115301 -0.196699
DOCKED: USER    NEWDPF axisangle0 0.545853 -0.829587 -0.117598 -157.311989
DOCKED: USER    NEWDPF quat0 0.545853 -0.829587 -0.117598 -157.311989
DOCKED: USER    NEWDPF dihe0 12.11 -74.61 19.60 -11.06 
DOCKED: USER  keepresnum = 1 
DOCKED: USER  
DOCKED: REMARK  Name = 
DOCKED: REMARK  4 active torsions:
DOCKED: REMARK  status: ('A' for Active; 'I' for Inactive)
DOCKED: REMARK    1  A    between atoms: C_3  and  C_4
DOCKED: REMARK    2  A    between atoms: C_4  and  C_5
DOCKED: REMARK    3  A    between atoms: C_5  and  C_6
DOCKED: REMARK    4  A    between atoms: C_6  and  C_7
DOCKED: REMARK                            x       y       z     vdW  Elec       q    Type
DOCKED: REMARK                         _______ _______ _______ _____ _____    ______ ____
DOCKED: USER                              x       y       z     vdW  Elec       q    Type
DOCKED: USER                           _______ _______ _______ _____ _____    ______ ____
DOCKED: ROOT
DOCKED: ATOM      1  C   UNL     1      23.627 -17.157  -0.939 -0.70 -0.00    +0.000 C 
DOCKED: ENDROOT
DOCKED: BRANCH   1   2
DOCKED: ATOM      2  C   UNL     1      22.895 -18.327  -0.269 -0.81 -0.00    +0.000 C 
DOCKED: BRANCH   2   5
DOCKED: ATOM      3  O   UNL     1      20.063 -19.915  -2.214 -2.26 -0.00    +0.000 OA
DOCKED: ATOM      4  N   UNL     1      21.280 -19.720  -1.657 -0.57 -0.00    +0.000 N 
DOCKED: ATOM      5  C   UNL     1      21.539 -18.552  -0.872 -0.83 -0.00    +0.000 C 
DOCKED: ATOM      6  O   UNL     1      20.633 -17.693  -0.708 -2.23 +0.00    +0.000 OA
DOCKED: ATOM      7  H   UNL     1      21.993 -20.385  -1.792 -0.41 -0.00    +0.000 HD
DOCKED: ENDBRANCH   2   5
DOCKED: ENDBRANCH   1   2
DOCKED: BRANCH   1   8
DOCKED: ATOM      8  C   UNL     1      25.136 -17.409  -1.066 -0.68 -0.00    +0.000 C 
DOCKED: BRANCH   8   9
DOCKED: ATOM      9  C   UNL     1      25.783 -16.336  -1.900 -0.49 -0.00    +0.000 A 
DOCKED: ATOM     10  C   UNL     1      26.623 -15.382  -1.301 -0.33 -0.00    +0.000 A 
DOCKED: ATOM     11  C   UNL     1      27.197 -14.367  -2.072 -0.22 -0.00    +0.000 A 
DOCKED: ATOM     12  C   UNL     1      26.929 -14.290  -3.441 -0.30 -0.00    +0.000 A 
DOCKED: ATOM     13  C   UNL     1      26.083 -15.228  -4.042 -0.53 -0.00    +0.000 A 
DOCKED: ATOM     14  C   UNL     1      25.507 -16.245  -3.274 -0.36 -0.00    +0.000 A 
DOCKED: ENDBRANCH   8   9
DOCKED: ENDBRANCH   1   8
DOCKED: TORSDOF 4
DOCKED: TER
DOCKED: ENDMDL
________________________________________________________________________________


	BEGINNING GENETIC ALGORITHM DOCKING 33 of 100
Run: 33 Seed: 969870602 1270967572 [ Run 33 of 100 GA/GALS ]
Beginning LAMARCKIAN GENETIC ALGORITHM (LGA), with a maximum of 2500000 energy evaluations.

Final-Value: -10.917


	FINAL GENETIC ALGORITHM DOCKED STATE
	_______________________________________________


Detailed state:  trans 25.213 -17.641 -1.171 quatxyzw 0.623651 -0.672069 0.385995 -0.101933 center 0.534 -0.142 0.039 ntor 4 0.7105 -151.7840 -52.7100 -14.5728
State:	 25.213 -17.641  -1.171   0.627 -0.676  0.388 -168.299      0.71 -151.78  -52.71  -14.57

DOCKED: MODEL       33
DOCKED: USER    Run = 33
DOCKED: USER    DPF = ligand_dock.biased.dpf
DOCKED: USER  
DOCKED: USER    Estimated Free Energy of Binding    =   -9.40 kcal/mol  [=(1)+(2)+(3)-(4)]
DOCKED: USER    Estimated Inhibition Constant, Ki   =  129.38 nM (nanomolar)  [Temperature = 298.15 K]
DOCKED: USER    
DOCKED: USER    (1) Final Intermolecular Energy     =  -10.59 kcal/mol
DOCKED: USER        vdW + Hbond + desolv Energy     =  -10.59 kcal/mol
DOCKED: USER        Electrostatic Energy            =   +0.00 kcal/mol
DOCKED: USER    (2) Final Total Internal Energy     =   -0.33 kcal/mol
DOCKED: USER    (3) Torsional Free Energy           =   +1.19 kcal/mol
DOCKED: USER    (4) Unbound System's Energy  [=(2)] =   -0.33 kcal/mol
DOCKED: USER    
DOCKED: USER    
DOCKED: USER    NEWDPF move ligand.pdbqt
DOCKED: USER    NEWDPF about 0.534000 -0.142000 0.039000
DOCKED: USER    NEWDPF tran0 25.213012 -17.641460 -1.171009
DOCKED: USER    NEWDPF quaternion0 0.623651 -0.672069 0.385995 -0.101933
DOCKED: USER    NEWDPF axisangle0 0.626916 -0.675588 0.388016 -168.299030
DOCKED: USER    NEWDPF quat0 0.626916 -0.675588 0.388016 -168.299030
DOCKED: USER    NEWDPF dihe0 0.71 -151.78 -52.71 -14.57 
DOCKED: USER  keepresnum = 1 
DOCKED: USER  
DOCKED: REMARK  Name = 
DOCKED: REMARK  4 active torsions:
DOCKED: REMARK  status: ('A' for Active; 'I' for Inactive)
DOCKED: REMARK    1  A    between atoms: C_3  and  C_4
DOCKED: REMARK    2  A    between atoms: C_4  and  C_5
DOCKED: REMARK    3  A    between atoms: C_5  and  C_6
DOCKED: REMARK    4  A    between atoms: C_6  and  C_7
DOCKED: REMARK                            x       y       z     vdW  Elec       q    Type
DOCKED: REMARK                         _______ _______ _______ _____ _____    ______ ____
DOCKED: USER                              x       y       z     vdW  Elec       q    Type
DOCKED: USER                           _______ _______ _______ _____ _____    ______ ____
DOCKED: ROOT
DOCKED: ATOM      1  C   UNL     1      23.912 -17.873  -1.559 -0.71 -0.00    +0.000 C 
DOCKED: ENDROOT
DOCKED: BRANCH   1   2
DOCKED: ATOM      2  C   UNL     1      23.162 -18.852  -0.645 -0.81 -0.00    +0.000 C 
DOCKED: BRANCH   2   5
DOCKED: ATOM      3  O   UNL     1      19.690 -19.699  -1.891 -2.19 -0.00    +0.000 OA
DOCKED: ATOM      4  N   UNL     1      21.025 -19.763  -1.682 -0.65 -0.00    +0.000 N 
DOCKED: ATOM      5  C   UNL     1      21.679 -18.790  -0.862 -0.85 -0.00    +0.000 C 
DOCKED: ATOM      6  O   UNL     1      21.010 -17.858  -0.340 -1.94 +0.00    +0.000 OA
DOCKED: ATOM      7  H   UNL     1      21.552 -20.485  -2.097 -0.49 -0.00    +0.000 HD
DOCKED: ENDBRANCH   2   5
DOCKED: ENDBRANCH   1   2
DOCKED: BRANCH   1   8
DOCKED: ATOM      8  C   UNL     1      25.067 -17.168  -0.836 -0.65 -0.00    +0.000 C 
DOCKED: BRANCH   8   9
DOCKED: ATOM      9  C   UNL     1      25.943 -16.443  -1.823 -0.48 -0.00    +0.000 A 
DOCKED: ATOM     10  C   UNL     1      25.377 -15.808  -2.941 -0.45 -0.00    +0.000 A 
DOCKED: ATOM     11  C   UNL     1      26.196 -15.163  -3.873 -0.50 -0.00    +0.000 A 
DOCKED: ATOM     12  C   UNL     1      27.583 -15.156  -3.702 -0.30 -0.00    +0.000 A 
DOCKED: ATOM     13  C   UNL     1      28.154 -15.798  -2.599 -0.24 -0.00    +0.000 A 
DOCKED: ATOM     14  C   UNL     1      27.339 -16.444  -1.664 -0.34 -0.00    +0.000 A 
DOCKED: ENDBRANCH   8   9
DOCKED: ENDBRANCH   1   8
DOCKED: TORSDOF 4
DOCKED: TER
DOCKED: ENDMDL
________________________________________________________________________________


	BEGINNING GENETIC ALGORITHM DOCKING 34 of 100
Run: 34 Seed: 67949198 1301376154 [ Run 34 of 100 GA/GALS ]
Beginning LAMARCKIAN GENETIC ALGORITHM (LGA), with a maximum of 2500000 energy evaluations.

Final-Value: -10.864


	FINAL GENETIC ALGORITHM DOCKED STATE
	_______________________________________________


Detailed state:  trans 23.928 -16.979 -2.129 quatxyzw 0.430596 -0.683051 -0.511771 -0.293461 center 0.534 -0.142 0.039 ntor 4 29.2722 -35.8506 162.7005 57.7611
State:	 23.928 -16.979  -2.129   0.450 -0.715 -0.535 -145.869     29.27  -35.85  162.70   57.76

DOCKED: MODEL       34
DOCKED: USER    Run = 34
DOCKED: USER    DPF = ligand_dock.biased.dpf
DOCKED: USER  
DOCKED: USER    Estimated Free Energy of Binding    =   -9.31 kcal/mol  [=(1)+(2)+(3)-(4)]
DOCKED: USER    Estimated Inhibition Constant, Ki   =  148.76 nM (nanomolar)  [Temperature = 298.15 K]
DOCKED: USER    
DOCKED: USER    (1) Final Intermolecular Energy     =  -10.51 kcal/mol
DOCKED: USER        vdW + Hbond + desolv Energy     =  -10.51 kcal/mol
DOCKED: USER        Electrostatic Energy            =   +0.00 kcal/mol
DOCKED: USER    (2) Final Total Internal Energy     =   -0.36 kcal/mol
DOCKED: USER    (3) Torsional Free Energy           =   +1.19 kcal/mol
DOCKED: USER    (4) Unbound System's Energy  [=(2)] =   -0.36 kcal/mol
DOCKED: USER    
DOCKED: USER    
DOCKED: USER    NEWDPF move ligand.pdbqt
DOCKED: USER    NEWDPF about 0.534000 -0.142000 0.039000
DOCKED: USER    NEWDPF tran0 23.927605 -16.979030 -2.129209
DOCKED: USER    NEWDPF quaternion0 0.430596 -0.683051 -0.511771 -0.293461
DOCKED: USER    NEWDPF axisangle0 0.450428 -0.714510 -0.535342 -145.869460
DOCKED: USER    NEWDPF quat0 0.450428 -0.714510 -0.535342 -145.869460
DOCKED: USER    NEWDPF dihe0 29.27 -35.85 162.70 57.76 
DOCKED: USER  keepresnum = 1 
DOCKED: USER  
DOCKED: REMARK  Name = 
DOCKED: REMARK  4 active torsions:
DOCKED: REMARK  status: ('A' for Active; 'I' for Inactive)
DOCKED: REMARK    1  A    between atoms: C_3  and  C_4
DOCKED: REMARK    2  A    between atoms: C_4  and  C_5
DOCKED: REMARK    3  A    between atoms: C_5  and  C_6
DOCKED: REMARK    4  A    between atoms: C_6  and  C_7
DOCKED: REMARK                            x       y       z     vdW  Elec       q    Type
DOCKED: REMARK                         _______ _______ _______ _____ _____    ______ ____
DOCKED: USER                              x       y       z     vdW  Elec       q    Type
DOCKED: USER                           _______ _______ _______ _____ _____    ______ ____
DOCKED: ROOT
DOCKED: ATOM      1  C   UNL     1      23.473 -17.027  -0.829 -0.65 -0.00    +0.000 C 
DOCKED: ENDROOT
DOCKED: BRANCH   1   2
DOCKED: ATOM      2  C   UNL     1      22.900 -18.393  -0.428 -0.83 -0.00    +0.000 C 
DOCKED: BRANCH   2   5
DOCKED: ATOM      3  O   UNL     1      19.883 -19.895  -2.151 -2.26 -0.00    +0.000 OA
DOCKED: ATOM      4  N   UNL     1      21.143 -19.737  -1.685 -0.63 -0.00    +0.000 N 
DOCKED: ATOM      5  C   UNL     1      21.497 -18.575  -0.930 -0.82 -0.00    +0.000 C 
DOCKED: ATOM      6  O   UNL     1      20.634 -17.684  -0.707 -2.22 +0.00    +0.000 OA
DOCKED: ATOM      7  H   UNL     1      21.822 -20.427  -1.866 -0.43 -0.00    +0.000 HD
DOCKED: ENDBRANCH   2   5
DOCKED: ENDBRANCH   1   2
DOCKED: BRANCH   1   8
DOCKED: ATOM      8  C   UNL     1      24.485 -17.134  -1.978 -0.55 -0.00    +0.000 C 
DOCKED: BRANCH   8   9
DOCKED: ATOM      9  C   UNL     1      25.835 -16.630  -1.542 -0.50 -0.00    +0.000 A 
DOCKED: ATOM     10  C   UNL     1      26.323 -15.403  -2.023 -0.37 -0.00    +0.000 A 
DOCKED: ATOM     11  C   UNL     1      27.591 -14.952  -1.642 -0.22 -0.00    +0.000 A 
DOCKED: ATOM     12  C   UNL     1      28.382 -15.725  -0.788 -0.23 -0.00    +0.000 A 
DOCKED: ATOM     13  C   UNL     1      27.908 -16.953  -0.316 -0.31 -0.00    +0.000 A 
DOCKED: ATOM     14  C   UNL     1      26.641 -17.408  -0.695 -0.50 -0.00    +0.000 A 
DOCKED: ENDBRANCH   8   9
DOCKED: ENDBRANCH   1   8
DOCKED: TORSDOF 4
DOCKED: TER
DOCKED: ENDMDL
________________________________________________________________________________


	BEGINNING GENETIC ALGORITHM DOCKING 35 of 100
Run: 35 Seed: 536928252 1939998907 [ Run 35 of 100 GA/GALS ]
Beginning LAMARCKIAN GENETIC ALGORITHM (LGA), with a maximum of 2500000 energy evaluations.

Final-Value: -11.050


	FINAL GENETIC ALGORITHM DOCKED STATE
	_______________________________________________


Detailed state:  trans 25.116 -17.460 -1.538 quatxyzw -0.637442 0.764850 0.050851 0.078008 center 0.534 -0.142 0.039 ntor 4 27.2909 -118.8731 -82.7303 -35.9968
State:	 25.116 -17.460  -1.538  -0.639  0.767  0.051 171.052     27.29 -118.87  -82.73  -36.00

DOCKED: MODEL       35
DOCKED: USER    Run = 35
DOCKED: USER    DPF = ligand_dock.biased.dpf
DOCKED: USER  
DOCKED: USER    Estimated Free Energy of Binding    =   -9.54 kcal/mol  [=(1)+(2)+(3)-(4)]
DOCKED: USER    Estimated Inhibition Constant, Ki   =  102.42 nM (nanomolar)  [Temperature = 298.15 K]
DOCKED: USER    
DOCKED: USER    (1) Final Intermolecular Energy     =  -10.73 kcal/mol
DOCKED: USER        vdW + Hbond + desolv Energy     =  -10.73 kcal/mol
DOCKED: USER        Electrostatic Energy            =   +0.00 kcal/mol
DOCKED: USER    (2) Final Total Internal Energy     =   -0.32 kcal/mol
DOCKED: USER    (3) Torsional Free Energy           =   +1.19 kcal/mol
DOCKED: USER    (4) Unbound System's Energy  [=(2)] =   -0.32 kcal/mol
DOCKED: USER    
DOCKED: USER    
DOCKED: USER    NEWDPF move ligand.pdbqt
DOCKED: USER    NEWDPF about 0.534000 -0.142000 0.039000
DOCKED: USER    NEWDPF tran0 25.115544 -17.459948 -1.538046
DOCKED: USER    NEWDPF quaternion0 -0.637442 0.764850 0.050851 0.078008
DOCKED: USER    NEWDPF axisangle0 -0.639391 0.767188 0.051006 171.051855
DOCKED: USER    NEWDPF quat0 -0.639391 0.767188 0.051006 171.051855
DOCKED: USER    NEWDPF dihe0 27.29 -118.87 -82.73 -36.00 
DOCKED: USER  keepresnum = 1 
DOCKED: USER  
DOCKED: REMARK  Name = 
DOCKED: REMARK  4 active torsions:
DOCKED: REMARK  status: ('A' for Active; 'I' for Inactive)
DOCKED: REMARK    1  A    between atoms: C_3  and  C_4
DOCKED: REMARK    2  A    between atoms: C_4  and  C_5
DOCKED: REMARK    3  A    between atoms: C_5  and  C_6
DOCKED: REMARK    4  A    between atoms: C_6  and  C_7
DOCKED: REMARK                            x       y       z     vdW  Elec       q    Type
DOCKED: REMARK                         _______ _______ _______ _____ _____    ______ ____
DOCKED: USER                              x       y       z     vdW  Elec       q    Type
DOCKED: USER                           _______ _______ _______ _____ _____    ______ ____
DOCKED: ROOT
DOCKED: ATOM      1  C   UNL     1      23.769 -17.406  -1.252 -0.71 -0.00    +0.000 C 
DOCKED: ENDROOT
DOCKED: BRANCH   1   2
DOCKED: ATOM      2  C   UNL     1      23.169 -18.762  -0.857 -0.82 -0.00    +0.000 C 
DOCKED: BRANCH   2   5
DOCKED: ATOM      3  O   UNL     1      19.647 -19.735  -1.843 -2.23 -0.00    +0.000 OA
DOCKED: ATOM      4  N   UNL     1      20.996 -19.748  -1.738 -0.68 -0.00    +0.000 N 
DOCKED: ATOM      5  C   UNL     1      21.672 -18.758  -0.958 -0.83 -0.00    +0.000 C 
DOCKED: ATOM      6  O   UNL     1      21.010 -17.860  -0.373 -1.96 +0.00    +0.000 OA
DOCKED: ATOM      7  H   UNL     1      21.517 -20.443  -2.203 -0.52 -0.00    +0.000 HD
DOCKED: ENDBRANCH   2   5
DOCKED: ENDBRANCH   1   2
DOCKED: BRANCH   1   8
DOCKED: ATOM      8  C   UNL     1      25.277 -17.332  -0.977 -0.66 -0.00    +0.000 C 
DOCKED: BRANCH   8   9
DOCKED: ATOM      9  C   UNL     1      25.960 -16.471  -2.005 -0.47 -0.00    +0.000 A 
DOCKED: ATOM     10  C   UNL     1      25.202 -15.754  -2.946 -0.40 -0.00    +0.000 A 
DOCKED: ATOM     11  C   UNL     1      25.840 -14.980  -3.921 -0.52 -0.00    +0.000 A 
DOCKED: ATOM     12  C   UNL     1      27.236 -14.924  -3.969 -0.35 -0.00    +0.000 A 
DOCKED: ATOM     13  C   UNL     1      27.997 -15.646  -3.044 -0.25 -0.00    +0.000 A 
DOCKED: ATOM     14  C   UNL     1      27.363 -16.421  -2.068 -0.32 -0.00    +0.000 A 
DOCKED: ENDBRANCH   8   9
DOCKED: ENDBRANCH   1   8
DOCKED: TORSDOF 4
DOCKED: TER
DOCKED: ENDMDL
________________________________________________________________________________


	BEGINNING GENETIC ALGORITHM DOCKING 36 of 100
Run: 36 Seed: 1892723831 1517471207 [ Run 36 of 100 GA/GALS ]
Beginning LAMARCKIAN GENETIC ALGORITHM (LGA), with a maximum of 2500000 energy evaluations.

Final-Value: -10.773


	FINAL GENETIC ALGORITHM DOCKED STATE
	_______________________________________________


Detailed state:  trans 25.020 -17.354 -1.249 quatxyzw -0.666394 0.670627 -0.325240 0.019941 center 0.534 -0.142 0.039 ntor 4 14.7970 -160.5112 -45.1212 -36.4634
State:	 25.020 -17.354  -1.249  -0.667  0.671 -0.325 177.715     14.80 -160.51  -45.12  -36.46

DOCKED: MODEL       36
DOCKED: USER    Run = 36
DOCKED: USER    DPF = ligand_dock.biased.dpf
DOCKED: USER  
DOCKED: USER    Estimated Free Energy of Binding    =   -9.25 kcal/mol  [=(1)+(2)+(3)-(4)]
DOCKED: USER    Estimated Inhibition Constant, Ki   =  164.81 nM (nanomolar)  [Temperature = 298.15 K]
DOCKED: USER    
DOCKED: USER    (1) Final Intermolecular Energy     =  -10.45 kcal/mol
DOCKED: USER        vdW + Hbond + desolv Energy     =  -10.45 kcal/mol
DOCKED: USER        Electrostatic Energy            =   +0.00 kcal/mol
DOCKED: USER    (2) Final Total Internal Energy     =   -0.33 kcal/mol
DOCKED: USER    (3) Torsional Free Energy           =   +1.19 kcal/mol
DOCKED: USER    (4) Unbound System's Energy  [=(2)] =   -0.33 kcal/mol
DOCKED: USER    
DOCKED: USER    
DOCKED: USER    NEWDPF move ligand.pdbqt
DOCKED: USER    NEWDPF about 0.534000 -0.142000 0.039000
DOCKED: USER    NEWDPF tran0 25.019753 -17.353728 -1.249364
DOCKED: USER    NEWDPF quaternion0 -0.666394 0.670627 -0.325240 0.019941
DOCKED: USER    NEWDPF axisangle0 -0.666526 0.670760 -0.325305 177.714767
DOCKED: USER    NEWDPF quat0 -0.666526 0.670760 -0.325305 177.714767
DOCKED: USER    NEWDPF dihe0 14.80 -160.51 -45.12 -36.46 
DOCKED: USER  keepresnum = 1 
DOCKED: USER  
DOCKED: REMARK  Name = 
DOCKED: REMARK  4 active torsions:
DOCKED: REMARK  status: ('A' for Active; 'I' for Inactive)
DOCKED: REMARK    1  A    between atoms: C_3  and  C_4
DOCKED: REMARK    2  A    between atoms: C_4  and  C_5
DOCKED: REMARK    3  A    between atoms: C_5  and  C_6
DOCKED: REMARK    4  A    between atoms: C_6  and  C_7
DOCKED: REMARK                            x       y       z     vdW  Elec       q    Type
DOCKED: REMARK                         _______ _______ _______ _____ _____    ______ ____
DOCKED: USER                              x       y       z     vdW  Elec       q    Type
DOCKED: USER                           _______ _______ _______ _____ _____    ______ ____
DOCKED: ROOT
DOCKED: ATOM      1  C   UNL     1      23.748 -17.648  -1.690 -0.57 -0.00    +0.000 C 
DOCKED: ENDROOT
DOCKED: BRANCH   1   2
DOCKED: ATOM      2  C   UNL     1      23.119 -18.859  -0.987 -0.81 -0.00    +0.000 C 
DOCKED: BRANCH   2   5
DOCKED: ATOM      3  O   UNL     1      19.530 -19.719  -1.828 -2.14 -0.00    +0.000 OA
DOCKED: ATOM      4  N   UNL     1      20.881 -19.774  -1.779 -0.67 -0.00    +0.000 N 
DOCKED: ATOM      5  C   UNL     1      21.620 -18.808  -1.026 -0.83 -0.00    +0.000 C 
DOCKED: ATOM      6  O   UNL     1      21.011 -17.890  -0.415 -1.98 +0.00    +0.000 OA
DOCKED: ATOM      7  H   UNL     1      21.360 -20.485  -2.264 -0.52 -0.00    +0.000 HD
DOCKED: ENDBRANCH   2   5
DOCKED: ENDBRANCH   1   2
DOCKED: BRANCH   1   8
DOCKED: ATOM      8  C   UNL     1      24.826 -16.972  -0.832 -0.63 -0.00    +0.000 C 
DOCKED: BRANCH   8   9
DOCKED: ATOM      9  C   UNL     1      25.919 -16.413  -1.703 -0.48 -0.00    +0.000 A 
DOCKED: ATOM     10  C   UNL     1      25.602 -15.703  -2.873 -0.49 -0.00    +0.000 A 
DOCKED: ATOM     11  C   UNL     1      26.620 -15.213  -3.697 -0.44 -0.00    +0.000 A 
DOCKED: ATOM     12  C   UNL     1      27.958 -15.437  -3.366 -0.26 -0.00    +0.000 A 
DOCKED: ATOM     13  C   UNL     1      28.282 -16.155  -2.211 -0.25 -0.00    +0.000 A 
DOCKED: ATOM     14  C   UNL     1      27.268 -16.647  -1.384 -0.38 -0.00    +0.000 A 
DOCKED: ENDBRANCH   8   9
DOCKED: ENDBRANCH   1   8
DOCKED: TORSDOF 4
DOCKED: TER
DOCKED: ENDMDL
________________________________________________________________________________


	BEGINNING GENETIC ALGORITHM DOCKING 37 of 100
Run: 37 Seed: 1871576438 1468566507 [ Run 37 of 100 GA/GALS ]
Beginning LAMARCKIAN GENETIC ALGORITHM (LGA), with a maximum of 2500000 energy evaluations.

Final-Value: -10.988


	FINAL GENETIC ALGORITHM DOCKED STATE
	_______________________________________________


Detailed state:  trans 25.017 -17.298 -0.806 quatxyzw -0.573490 0.589121 0.543412 -0.169557 center 0.534 -0.142 0.039 ntor 4 88.8056 -108.3935 14.9473 -77.8157
State:	 25.017 -17.298  -0.806  -0.582  0.598  0.551 -160.476     88.81 -108.39   14.95  -77.82

DOCKED: MODEL       37
DOCKED: USER    Run = 37
DOCKED: USER    DPF = ligand_dock.biased.dpf
DOCKED: USER  
DOCKED: USER    Estimated Free Energy of Binding    =   -9.42 kcal/mol  [=(1)+(2)+(3)-(4)]
DOCKED: USER    Estimated Inhibition Constant, Ki   =  124.94 nM (nanomolar)  [Temperature = 298.15 K]
DOCKED: USER    
DOCKED: USER    (1) Final Intermolecular Energy     =  -10.61 kcal/mol
DOCKED: USER        vdW + Hbond + desolv Energy     =  -10.61 kcal/mol
DOCKED: USER        Electrostatic Energy            =   +0.00 kcal/mol
DOCKED: USER    (2) Final Total Internal Energy     =   -0.38 kcal/mol
DOCKED: USER    (3) Torsional Free Energy           =   +1.19 kcal/mol
DOCKED: USER    (4) Unbound System's Energy  [=(2)] =   -0.38 kcal/mol
DOCKED: USER    
DOCKED: USER    
DOCKED: USER    NEWDPF move ligand.pdbqt
DOCKED: USER    NEWDPF about 0.534000 -0.142000 0.039000
DOCKED: USER    NEWDPF tran0 25.016749 -17.298329 -0.805898
DOCKED: USER    NEWDPF quaternion0 -0.573490 0.589121 0.543412 -0.169557
DOCKED: USER    NEWDPF axisangle0 -0.581916 0.597776 0.551396 -160.475835
DOCKED: USER    NEWDPF quat0 -0.581916 0.597776 0.551396 -160.475835
DOCKED: USER    NEWDPF dihe0 88.81 -108.39 14.95 -77.82 
DOCKED: USER  keepresnum = 1 
DOCKED: USER  
DOCKED: REMARK  Name = 
DOCKED: REMARK  4 active torsions:
DOCKED: REMARK  status: ('A' for Active; 'I' for Inactive)
DOCKED: REMARK    1  A    between atoms: C_3  and  C_4
DOCKED: REMARK    2  A    between atoms: C_4  and  C_5
DOCKED: REMARK    3  A    between atoms: C_5  and  C_6
DOCKED: REMARK    4  A    between atoms: C_6  and  C_7
DOCKED: REMARK                            x       y       z     vdW  Elec       q    Type
DOCKED: REMARK                         _______ _______ _______ _____ _____    ______ ____
DOCKED: USER                              x       y       z     vdW  Elec       q    Type
DOCKED: USER                           _______ _______ _______ _____ _____    ______ ____
DOCKED: ROOT
DOCKED: ATOM      1  C   UNL     1      23.803 -17.763  -0.349 -0.74 -0.00    +0.000 C 
DOCKED: ENDROOT
DOCKED: BRANCH   1   2
DOCKED: ATOM      2  C   UNL     1      23.146 -18.788  -1.284 -0.79 -0.00    +0.000 C 
DOCKED: BRANCH   2   5
DOCKED: ATOM      3  O   UNL     1      19.509 -19.736  -1.735 -2.13 -0.00    +0.000 OA
DOCKED: ATOM      4  N   UNL     1      20.859 -19.758  -1.831 -0.69 -0.00    +0.000 N 
DOCKED: ATOM      5  C   UNL     1      21.650 -18.773  -1.161 -0.75 -0.00    +0.000 C 
DOCKED: ATOM      6  O   UNL     1      21.089 -17.869  -0.487 -1.97 -0.00    +0.000 OA
DOCKED: ATOM      7  H   UNL     1      21.299 -20.458  -2.367 -0.53 -0.00    +0.000 HD
DOCKED: ENDBRANCH   2   5
DOCKED: ENDBRANCH   1   2
DOCKED: BRANCH   1   8
DOCKED: ATOM      8  C   UNL     1      25.327 -17.717  -0.514 -0.68 -0.00    +0.000 C 
DOCKED: BRANCH   8   9
DOCKED: ATOM      9  C   UNL     1      25.740 -16.483  -1.271 -0.49 -0.00    +0.000 A 
DOCKED: ATOM     10  C   UNL     1      26.316 -15.395  -0.594 -0.33 -0.00    +0.000 A 
DOCKED: ATOM     11  C   UNL     1      26.669 -14.237  -1.294 -0.25 -0.00    +0.000 A 
DOCKED: ATOM     12  C   UNL     1      26.441 -14.153  -2.670 -0.29 -0.00    +0.000 A 
DOCKED: ATOM     13  C   UNL     1      25.856 -15.227  -3.349 -0.49 -0.00    +0.000 A 
DOCKED: ATOM     14  C   UNL     1      25.501 -16.387  -2.652 -0.48 -0.00    +0.000 A 
DOCKED: ENDBRANCH   8   9
DOCKED: ENDBRANCH   1   8
DOCKED: TORSDOF 4
DOCKED: TER
DOCKED: ENDMDL
________________________________________________________________________________


	BEGINNING GENETIC ALGORITHM DOCKING 38 of 100
Run: 38 Seed: 68175804 725371905 [ Run 38 of 100 GA/GALS ]
Beginning LAMARCKIAN GENETIC ALGORITHM (LGA), with a maximum of 2500000 energy evaluations.

Final-Value: -11.069


	FINAL GENETIC ALGORITHM DOCKED STATE
	_______________________________________________


Detailed state:  trans 24.496 -17.083 -1.236 quatxyzw -0.474940 0.157682 -0.859478 0.104239 center 0.534 -0.142 0.039 ntor 4 -29.9060 154.6075 61.4993 -58.0110
State:	 24.496 -17.083  -1.236  -0.478  0.159 -0.864 168.033    -29.91  154.61   61.50  -58.01

DOCKED: MODEL       38
DOCKED: USER    Run = 38
DOCKED: USER    DPF = ligand_dock.biased.dpf
DOCKED: USER  
DOCKED: USER    Estimated Free Energy of Binding    =   -9.49 kcal/mol  [=(1)+(2)+(3)-(4)]
DOCKED: USER    Estimated Inhibition Constant, Ki   =  110.26 nM (nanomolar)  [Temperature = 298.15 K]
DOCKED: USER    
DOCKED: USER    (1) Final Intermolecular Energy     =  -10.68 kcal/mol
DOCKED: USER        vdW + Hbond + desolv Energy     =  -10.68 kcal/mol
DOCKED: USER        Electrostatic Energy            =   +0.00 kcal/mol
DOCKED: USER    (2) Final Total Internal Energy     =   -0.38 kcal/mol
DOCKED: USER    (3) Torsional Free Energy           =   +1.19 kcal/mol
DOCKED: USER    (4) Unbound System's Energy  [=(2)] =   -0.38 kcal/mol
DOCKED: USER    
DOCKED: USER    
DOCKED: USER    NEWDPF move ligand.pdbqt
DOCKED: USER    NEWDPF about 0.534000 -0.142000 0.039000
DOCKED: USER    NEWDPF tran0 24.496487 -17.083384 -1.235560
DOCKED: USER    NEWDPF quaternion0 -0.474940 0.157682 -0.859478 0.104239
DOCKED: USER    NEWDPF axisangle0 -0.477542 0.158546 -0.864186 168.033394
DOCKED: USER    NEWDPF quat0 -0.477542 0.158546 -0.864186 168.033394
DOCKED: USER    NEWDPF dihe0 -29.91 154.61 61.50 -58.01 
DOCKED: USER  keepresnum = 1 
DOCKED: USER  
DOCKED: REMARK  Name = 
DOCKED: REMARK  4 active torsions:
DOCKED: REMARK  status: ('A' for Active; 'I' for Inactive)
DOCKED: REMARK    1  A    between atoms: C_3  and  C_4
DOCKED: REMARK    2  A    between atoms: C_4  and  C_5
DOCKED: REMARK    3  A    between atoms: C_5  and  C_6
DOCKED: REMARK    4  A    between atoms: C_6  and  C_7
DOCKED: REMARK                            x       y       z     vdW  Elec       q    Type
DOCKED: REMARK                         _______ _______ _______ _____ _____    ______ ____
DOCKED: USER                              x       y       z     vdW  Elec       q    Type
DOCKED: USER                           _______ _______ _______ _____ _____    ______ ____
DOCKED: ROOT
DOCKED: ATOM      1  C   UNL     1      23.917 -18.331  -1.319 -0.76 -0.00    +0.000 C 
DOCKED: ENDROOT
DOCKED: BRANCH   1   2
DOCKED: ATOM      2  C   UNL     1      22.820 -18.570  -0.273 -0.82 -0.00    +0.000 C 
DOCKED: BRANCH   2   5
DOCKED: ATOM      3  O   UNL     1      19.885 -19.796  -2.324 -2.18 -0.00    +0.000 OA
DOCKED: ATOM      4  N   UNL     1      21.106 -19.740  -1.744 -0.63 -0.00    +0.000 N 
DOCKED: ATOM      5  C   UNL     1      21.459 -18.640  -0.901 -0.83 -0.00    +0.000 C 
DOCKED: ATOM      6  O   UNL     1      20.633 -17.708  -0.706 -2.24 +0.00    +0.000 OA
DOCKED: ATOM      7  H   UNL     1      21.757 -20.462  -1.903 -0.45 -0.00    +0.000 HD
DOCKED: ENDBRANCH   2   5
DOCKED: ENDBRANCH   1   2
DOCKED: BRANCH   1   8
DOCKED: ATOM      8  C   UNL     1      24.115 -16.840  -1.626 -0.54 -0.00    +0.000 C 
DOCKED: BRANCH   8   9
DOCKED: ATOM      9  C   UNL     1      25.552 -16.444  -1.417 -0.51 -0.00    +0.000 A 
DOCKED: ATOM     10  C   UNL     1      26.114 -15.393  -2.162 -0.40 -0.00    +0.000 A 
DOCKED: ATOM     11  C   UNL     1      27.458 -15.048  -1.989 -0.23 -0.00    +0.000 A 
DOCKED: ATOM     12  C   UNL     1      28.252 -15.755  -1.082 -0.24 -0.00    +0.000 A 
DOCKED: ATOM     13  C   UNL     1      27.703 -16.811  -0.347 -0.35 -0.00    +0.000 A 
DOCKED: ATOM     14  C   UNL     1      26.360 -17.159  -0.516 -0.51 -0.00    +0.000 A 
DOCKED: ENDBRANCH   8   9
DOCKED: ENDBRANCH   1   8
DOCKED: TORSDOF 4
DOCKED: TER
DOCKED: ENDMDL
________________________________________________________________________________


	BEGINNING GENETIC ALGORITHM DOCKING 39 of 100
Run: 39 Seed: 332050549 263147093 [ Run 39 of 100 GA/GALS ]
Beginning LAMARCKIAN GENETIC ALGORITHM (LGA), with a maximum of 2500000 energy evaluations.

Final-Value: -10.112


	FINAL GENETIC ALGORITHM DOCKED STATE
	_______________________________________________


Detailed state:  trans 25.025 -17.363 -1.243 quatxyzw -0.682079 0.659849 -0.309453 -0.060052 center 0.534 -0.142 0.039 ntor 4 19.1727 180.0000 133.5864 -51.3474
State:	 25.025 -17.363  -1.243  -0.683  0.661 -0.310 -173.114     19.17  180.00  133.59  -51.35

DOCKED: MODEL       39
DOCKED: USER    Run = 39
DOCKED: USER    DPF = ligand_dock.biased.dpf
DOCKED: USER  
DOCKED: USER    Estimated Free Energy of Binding    =   -8.58 kcal/mol  [=(1)+(2)+(3)-(4)]
DOCKED: USER    Estimated Inhibition Constant, Ki   =  511.25 nM (nanomolar)  [Temperature = 298.15 K]
DOCKED: USER    
DOCKED: USER    (1) Final Intermolecular Energy     =   -9.78 kcal/mol
DOCKED: USER        vdW + Hbond + desolv Energy     =   -9.78 kcal/mol
DOCKED: USER        Electrostatic Energy            =   +0.00 kcal/mol
DOCKED: USER    (2) Final Total Internal Energy     =   -0.34 kcal/mol
DOCKED: USER    (3) Torsional Free Energy           =   +1.19 kcal/mol
DOCKED: USER    (4) Unbound System's Energy  [=(2)] =   -0.34 kcal/mol
DOCKED: USER    
DOCKED: USER    
DOCKED: USER    NEWDPF move ligand.pdbqt
DOCKED: USER    NEWDPF about 0.534000 -0.142000 0.039000
DOCKED: USER    NEWDPF tran0 25.024928 -17.362659 -1.242541
DOCKED: USER    NEWDPF quaternion0 -0.682079 0.659849 -0.309453 -0.060052
DOCKED: USER    NEWDPF axisangle0 -0.683312 0.661042 -0.310012 -173.114401
DOCKED: USER    NEWDPF quat0 -0.683312 0.661042 -0.310012 -173.114401
DOCKED: USER    NEWDPF dihe0 19.17 180.00 133.59 -51.35 
DOCKED: USER  keepresnum = 1 
DOCKED: USER  
DOCKED: REMARK  Name = 
DOCKED: REMARK  4 active torsions:
DOCKED: REMARK  status: ('A' for Active; 'I' for Inactive)
DOCKED: REMARK    1  A    between atoms: C_3  and  C_4
DOCKED: REMARK    2  A    between atoms: C_4  and  C_5
DOCKED: REMARK    3  A    between atoms: C_5  and  C_6
DOCKED: REMARK    4  A    between atoms: C_6  and  C_7
DOCKED: REMARK                            x       y       z     vdW  Elec       q    Type
DOCKED: REMARK                         _______ _______ _______ _____ _____    ______ ____
DOCKED: USER                              x       y       z     vdW  Elec       q    Type
DOCKED: USER                           _______ _______ _______ _____ _____    ______ ____
DOCKED: ROOT
DOCKED: ATOM      1  C   UNL     1      23.819 -17.703  -1.816 -0.55 -0.00    +0.000 C 
DOCKED: ENDROOT
DOCKED: BRANCH   1   2
DOCKED: ATOM      2  C   UNL     1      23.256 -19.040  -1.313 -0.78 -0.00    +0.000 C 
DOCKED: BRANCH   2   5
DOCKED: ATOM      3  O   UNL     1      19.526 -19.655  -1.504 -2.06 -0.00    +0.000 OA
DOCKED: ATOM      4  N   UNL     1      20.852 -19.748  -1.754 -0.72 -0.00    +0.000 N 
DOCKED: ATOM      5  C   UNL     1      21.786 -18.949  -1.023 -0.84 -0.00    +0.000 C 
DOCKED: ATOM      6  O   UNL     1      21.372 -18.142  -0.148 -1.51 -0.00    +0.000 OA
DOCKED: ATOM      7  H   UNL     1      21.178 -20.371  -2.444 -0.52 -0.00    +0.000 HD
DOCKED: ENDBRANCH   2   5
DOCKED: ENDBRANCH   1   2
DOCKED: BRANCH   1   8
DOCKED: ATOM      8  C   UNL     1      24.768 -17.053  -0.801 -0.65 -0.00    +0.000 C 
DOCKED: BRANCH   8   9
DOCKED: ATOM      9  C   UNL     1      26.044 -16.619  -1.473 -0.48 -0.00    +0.000 A 
DOCKED: ATOM     10  C   UNL     1      27.285 -16.849  -0.855 -0.40 -0.00    +0.000 A 
DOCKED: ATOM     11  C   UNL     1      28.466 -16.417  -1.467 -0.27 -0.00    +0.000 A 
DOCKED: ATOM     12  C   UNL     1      28.416 -15.744  -2.690 -0.22 -0.00    +0.000 A 
DOCKED: ATOM     13  C   UNL     1      27.184 -15.500  -3.305 -0.33 -0.00    +0.000 A 
DOCKED: ATOM     14  C   UNL     1      26.000 -15.930  -2.697 -0.46 -0.00    +0.000 A 
DOCKED: ENDBRANCH   8   9
DOCKED: ENDBRANCH   1   8
DOCKED: TORSDOF 4
DOCKED: TER
DOCKED: ENDMDL
________________________________________________________________________________


	BEGINNING GENETIC ALGORITHM DOCKING 40 of 100
Run: 40 Seed: 937795318 610841639 [ Run 40 of 100 GA/GALS ]
Beginning LAMARCKIAN GENETIC ALGORITHM (LGA), with a maximum of 2500000 energy evaluations.

Final-Value: -10.881


	FINAL GENETIC ALGORITHM DOCKED STATE
	_______________________________________________


Detailed state:  trans 25.090 -17.393 -1.255 quatxyzw -0.656026 0.751864 0.058224 -0.030670 center 0.534 -0.142 0.039 ntor 4 40.5015 -133.4527 -102.8179 -43.3231
State:	 25.090 -17.393  -1.255  -0.656  0.752  0.058 -176.485     40.50 -133.45 -102.82  -43.32

DOCKED: MODEL       40
DOCKED: USER    Run = 40
DOCKED: USER    DPF = ligand_dock.biased.dpf
DOCKED: USER  
DOCKED: USER    Estimated Free Energy of Binding    =   -9.37 kcal/mol  [=(1)+(2)+(3)-(4)]
DOCKED: USER    Estimated Inhibition Constant, Ki   =  135.82 nM (nanomolar)  [Temperature = 298.15 K]
DOCKED: USER    
DOCKED: USER    (1) Final Intermolecular Energy     =  -10.56 kcal/mol
DOCKED: USER        vdW + Hbond + desolv Energy     =  -10.56 kcal/mol
DOCKED: USER        Electrostatic Energy            =   +0.00 kcal/mol
DOCKED: USER    (2) Final Total Internal Energy     =   -0.32 kcal/mol
DOCKED: USER    (3) Torsional Free Energy           =   +1.19 kcal/mol
DOCKED: USER    (4) Unbound System's Energy  [=(2)] =   -0.32 kcal/mol
DOCKED: USER    
DOCKED: USER    
DOCKED: USER    NEWDPF move ligand.pdbqt
DOCKED: USER    NEWDPF about 0.534000 -0.142000 0.039000
DOCKED: USER    NEWDPF tran0 25.089584 -17.392555 -1.255159
DOCKED: USER    NEWDPF quaternion0 -0.656026 0.751864 0.058224 -0.030670
DOCKED: USER    NEWDPF axisangle0 -0.656334 0.752218 0.058252 -176.484887
DOCKED: USER    NEWDPF quat0 -0.656334 0.752218 0.058252 -176.484887
DOCKED: USER    NEWDPF dihe0 40.50 -133.45 -102.82 -43.32 
DOCKED: USER  keepresnum = 1 
DOCKED: USER  
DOCKED: REMARK  Name = 
DOCKED: REMARK  4 active torsions:
DOCKED: REMARK  status: ('A' for Active; 'I' for Inactive)
DOCKED: REMARK    1  A    between atoms: C_3  and  C_4
DOCKED: REMARK    2  A    between atoms: C_4  and  C_5
DOCKED: REMARK    3  A    between atoms: C_5  and  C_6
DOCKED: REMARK    4  A    between atoms: C_6  and  C_7
DOCKED: REMARK                            x       y       z     vdW  Elec       q    Type
DOCKED: REMARK                         _______ _______ _______ _____ _____    ______ ____
DOCKED: USER                              x       y       z     vdW  Elec       q    Type
DOCKED: USER                           _______ _______ _______ _____ _____    ______ ____
DOCKED: ROOT
DOCKED: ATOM      1  C   UNL     1      23.714 -17.411  -1.181 -0.72 -0.00    +0.000 C 
DOCKED: ENDROOT
DOCKED: BRANCH   1   2
DOCKED: ATOM      2  C   UNL     1      23.122 -18.824  -1.094 -0.81 -0.00    +0.000 C 
DOCKED: BRANCH   2   5
DOCKED: ATOM      3  O   UNL     1      19.520 -19.727  -1.828 -2.14 -0.00    +0.000 OA
DOCKED: ATOM      4  N   UNL     1      20.873 -19.760  -1.828 -0.69 -0.00    +0.000 N 
DOCKED: ATOM      5  C   UNL     1      21.621 -18.798  -1.079 -0.82 -0.00    +0.000 C 
DOCKED: ATOM      6  O   UNL     1      21.020 -17.905  -0.426 -1.98 -0.00    +0.000 OA
DOCKED: ATOM      7  H   UNL     1      21.346 -20.451  -2.346 -0.53 -0.00    +0.000 HD
DOCKED: ENDBRANCH   2   5
DOCKED: ENDBRANCH   1   2
DOCKED: BRANCH   1   8
DOCKED: ATOM      8  C   UNL     1      25.157 -17.351  -0.663 -0.66 -0.00    +0.000 C 
DOCKED: BRANCH   8   9
DOCKED: ATOM      9  C   UNL     1      25.996 -16.460  -1.540 -0.47 -0.00    +0.000 A 
DOCKED: ATOM     10  C   UNL     1      25.520 -16.048  -2.796 -0.49 -0.00    +0.000 A 
DOCKED: ATOM     11  C   UNL     1      26.314 -15.247  -3.622 -0.47 -0.00    +0.000 A 
DOCKED: ATOM     12  C   UNL     1      27.591 -14.861  -3.206 -0.25 -0.00    +0.000 A 
DOCKED: ATOM     13  C   UNL     1      28.078 -15.278  -1.963 -0.20 -0.00    +0.000 A 
DOCKED: ATOM     14  C   UNL     1      27.286 -16.079  -1.134 -0.34 -0.00    +0.000 A 
DOCKED: ENDBRANCH   8   9
DOCKED: ENDBRANCH   1   8
DOCKED: TORSDOF 4
DOCKED: TER
DOCKED: ENDMDL
________________________________________________________________________________


	BEGINNING GENETIC ALGORITHM DOCKING 41 of 100
Run: 41 Seed: 520489624 1960352164 [ Run 41 of 100 GA/GALS ]
Beginning LAMARCKIAN GENETIC ALGORITHM (LGA), with a maximum of 2500000 energy evaluations.

Final-Value: -10.680


	FINAL GENETIC ALGORITHM DOCKED STATE
	_______________________________________________


Detailed state:  trans 23.849 -16.746 -1.858 quatxyzw 0.412312 -0.525917 -0.703419 -0.242098 center 0.534 -0.142 0.039 ntor 4 59.7158 -35.1397 130.8883 52.7465
State:	 23.849 -16.746  -1.858   0.425 -0.542 -0.725 -151.979     59.72  -35.14  130.89   52.75

DOCKED: MODEL       41
DOCKED: USER    Run = 41
DOCKED: USER    DPF = ligand_dock.biased.dpf
DOCKED: USER  
DOCKED: USER    Estimated Free Energy of Binding    =   -9.14 kcal/mol  [=(1)+(2)+(3)-(4)]
DOCKED: USER    Estimated Inhibition Constant, Ki   =  198.81 nM (nanomolar)  [Temperature = 298.15 K]
DOCKED: USER    
DOCKED: USER    (1) Final Intermolecular Energy     =  -10.34 kcal/mol
DOCKED: USER        vdW + Hbond + desolv Energy     =  -10.34 kcal/mol
DOCKED: USER        Electrostatic Energy            =   +0.00 kcal/mol
DOCKED: USER    (2) Final Total Internal Energy     =   -0.34 kcal/mol
DOCKED: USER    (3) Torsional Free Energy           =   +1.19 kcal/mol
DOCKED: USER    (4) Unbound System's Energy  [=(2)] =   -0.34 kcal/mol
DOCKED: USER    
DOCKED: USER    
DOCKED: USER    NEWDPF move ligand.pdbqt
DOCKED: USER    NEWDPF about 0.534000 -0.142000 0.039000
DOCKED: USER    NEWDPF tran0 23.849077 -16.746209 -1.858477
DOCKED: USER    NEWDPF quaternion0 0.412312 -0.525917 -0.703419 -0.242098
DOCKED: USER    NEWDPF axisangle0 0.424954 -0.542042 -0.724986 -151.979205
DOCKED: USER    NEWDPF quat0 0.424954 -0.542042 -0.724986 -151.979205
DOCKED: USER    NEWDPF dihe0 59.72 -35.14 130.89 52.75 
DOCKED: USER  keepresnum = 1 
DOCKED: USER  
DOCKED: REMARK  Name = 
DOCKED: REMARK  4 active torsions:
DOCKED: REMARK  status: ('A' for Active; 'I' for Inactive)
DOCKED: REMARK    1  A    between atoms: C_3  and  C_4
DOCKED: REMARK    2  A    between atoms: C_4  and  C_5
DOCKED: REMARK    3  A    between atoms: C_5  and  C_6
DOCKED: REMARK    4  A    between atoms: C_6  and  C_7
DOCKED: REMARK                            x       y       z     vdW  Elec       q    Type
DOCKED: REMARK                         _______ _______ _______ _____ _____    ______ ____
DOCKED: USER                              x       y       z     vdW  Elec       q    Type
DOCKED: USER                           _______ _______ _______ _____ _____    ______ ____
DOCKED: ROOT
DOCKED: ATOM      1  C   UNL     1      23.643 -17.367  -0.646 -0.72 -0.00    +0.000 C 
DOCKED: ENDROOT
DOCKED: BRANCH   1   2
DOCKED: ATOM      2  C   UNL     1      23.021 -18.765  -0.769 -0.82 -0.00    +0.000 C 
DOCKED: BRANCH   2   5
DOCKED: ATOM      3  O   UNL     1      19.519 -19.729  -1.832 -2.14 -0.00    +0.000 OA
DOCKED: ATOM      4  N   UNL     1      20.850 -19.798  -1.602 -0.69 -0.00    +0.000 N 
DOCKED: ATOM      5  C   UNL     1      21.541 -18.695  -1.008 -0.82 -0.00    +0.000 C 
DOCKED: ATOM      6  O   UNL     1      20.910 -17.647  -0.708 -2.14 -0.00    +0.000 OA
DOCKED: ATOM      7  H   UNL     1      21.348 -20.612  -1.845 -0.32 -0.00    +0.000 HD
DOCKED: ENDBRANCH   2   5
DOCKED: ENDBRANCH   1   2
DOCKED: BRANCH   1   8
DOCKED: ATOM      8  C   UNL     1      24.406 -16.956  -1.912 -0.54 -0.00    +0.000 C 
DOCKED: BRANCH   8   9
DOCKED: ATOM      9  C   UNL     1      25.828 -16.590  -1.576 -0.49 -0.00    +0.000 A 
DOCKED: ATOM     10  C   UNL     1      26.443 -15.490  -2.198 -0.37 -0.00    +0.000 A 
DOCKED: ATOM     11  C   UNL     1      27.774 -15.172  -1.908 -0.21 -0.00    +0.000 A 
DOCKED: ATOM     12  C   UNL     1      28.501 -15.952  -1.006 -0.24 -0.00    +0.000 A 
DOCKED: ATOM     13  C   UNL     1      27.899 -17.056  -0.393 -0.32 -0.00    +0.000 A 
DOCKED: ATOM     14  C   UNL     1      26.569 -17.378  -0.680 -0.51 -0.00    +0.000 A 
DOCKED: ENDBRANCH   8   9
DOCKED: ENDBRANCH   1   8
DOCKED: TORSDOF 4
DOCKED: TER
DOCKED: ENDMDL
________________________________________________________________________________


	BEGINNING GENETIC ALGORITHM DOCKING 42 of 100
Run: 42 Seed: 523890596 2067388778 [ Run 42 of 100 GA/GALS ]
Beginning LAMARCKIAN GENETIC ALGORITHM (LGA), with a maximum of 2500000 energy evaluations.

Final-Value: -10.961


	FINAL GENETIC ALGORITHM DOCKED STATE
	_______________________________________________


Detailed state:  trans 24.658 -17.309 -1.456 quatxyzw 0.354774 -0.007286 0.894707 -0.271258 center 0.534 -0.142 0.039 ntor 4 -72.9325 170.9968 127.5860 -76.1081
State:	 24.658 -17.309  -1.456   0.369 -0.008  0.930 -148.522    -72.93  171.00  127.59  -76.11

DOCKED: MODEL       42
DOCKED: USER    Run = 42
DOCKED: USER    DPF = ligand_dock.biased.dpf
DOCKED: USER  
DOCKED: USER    Estimated Free Energy of Binding    =   -9.37 kcal/mol  [=(1)+(2)+(3)-(4)]
DOCKED: USER    Estimated Inhibition Constant, Ki   =  134.62 nM (nanomolar)  [Temperature = 298.15 K]
DOCKED: USER    
DOCKED: USER    (1) Final Intermolecular Energy     =  -10.57 kcal/mol
DOCKED: USER        vdW + Hbond + desolv Energy     =  -10.57 kcal/mol
DOCKED: USER        Electrostatic Energy            =   +0.00 kcal/mol
DOCKED: USER    (2) Final Total Internal Energy     =   -0.39 kcal/mol
DOCKED: USER    (3) Torsional Free Energy           =   +1.19 kcal/mol
DOCKED: USER    (4) Unbound System's Energy  [=(2)] =   -0.39 kcal/mol
DOCKED: USER    
DOCKED: USER    
DOCKED: USER    NEWDPF move ligand.pdbqt
DOCKED: USER    NEWDPF about 0.534000 -0.142000 0.039000
DOCKED: USER    NEWDPF tran0 24.657977 -17.309203 -1.456068
DOCKED: USER    NEWDPF quaternion0 0.354774 -0.007286 0.894707 -0.271258
DOCKED: USER    NEWDPF axisangle0 0.368594 -0.007570 0.929560 -148.521693
DOCKED: USER    NEWDPF quat0 0.368594 -0.007570 0.929560 -148.521693
DOCKED: USER    NEWDPF dihe0 -72.93 171.00 127.59 -76.11 
DOCKED: USER  keepresnum = 1 
DOCKED: USER  
DOCKED: REMARK  Name = 
DOCKED: REMARK  4 active torsions:
DOCKED: REMARK  status: ('A' for Active; 'I' for Inactive)
DOCKED: REMARK    1  A    between atoms: C_3  and  C_4
DOCKED: REMARK    2  A    between atoms: C_4  and  C_5
DOCKED: REMARK    3  A    between atoms: C_5  and  C_6
DOCKED: REMARK    4  A    between atoms: C_6  and  C_7
DOCKED: REMARK                            x       y       z     vdW  Elec       q    Type
DOCKED: REMARK                         _______ _______ _______ _____ _____    ______ ____
DOCKED: USER                              x       y       z     vdW  Elec       q    Type
DOCKED: USER                           _______ _______ _______ _____ _____    ______ ____
DOCKED: ROOT
DOCKED: ATOM      1  C   UNL     1      23.849 -18.369  -1.110 -0.79 -0.00    +0.000 C 
DOCKED: ENDROOT
DOCKED: BRANCH   1   2
DOCKED: ATOM      2  C   UNL     1      22.616 -17.961  -0.292 -0.81 -0.00    +0.000 C 
DOCKED: BRANCH   2   5
DOCKED: ATOM      3  O   UNL     1      20.224 -20.109  -2.289 -2.18 -0.00    +0.000 OA
DOCKED: ATOM      4  N   UNL     1      21.365 -19.649  -1.726 -0.54 -0.00    +0.000 N 
DOCKED: ATOM      5  C   UNL     1      21.347 -18.481  -0.901 -0.80 -0.00    +0.000 C 
DOCKED: ATOM      6  O   UNL     1      20.265 -17.867  -0.706 -2.21 +0.00    +0.000 OA
DOCKED: ATOM      7  H   UNL     1      22.215 -20.121  -1.886 -0.48 -0.00    +0.000 HD
DOCKED: ENDBRANCH   2   5
DOCKED: ENDBRANCH   1   2
DOCKED: BRANCH   1   8
DOCKED: ATOM      8  C   UNL     1      24.380 -17.220  -1.977 -0.53 -0.00    +0.000 C 
DOCKED: BRANCH   8   9
DOCKED: ATOM      9  C   UNL     1      25.661 -16.675  -1.405 -0.51 -0.00    +0.000 A 
DOCKED: ATOM     10  C   UNL     1      25.931 -15.297  -1.457 -0.38 -0.00    +0.000 A 
DOCKED: ATOM     11  C   UNL     1      27.136 -14.797  -0.953 -0.25 -0.00    +0.000 A 
DOCKED: ATOM     12  C   UNL     1      28.081 -15.666  -0.404 -0.25 -0.00    +0.000 A 
DOCKED: ATOM     13  C   UNL     1      27.825 -17.041  -0.361 -0.33 -0.00    +0.000 A 
DOCKED: ATOM     14  C   UNL     1      26.622 -17.545  -0.864 -0.49 -0.00    +0.000 A 
DOCKED: ENDBRANCH   8   9
DOCKED: ENDBRANCH   1   8
DOCKED: TORSDOF 4
DOCKED: TER
DOCKED: ENDMDL
________________________________________________________________________________


	BEGINNING GENETIC ALGORITHM DOCKING 43 of 100
Run: 43 Seed: 552650758 902400627 [ Run 43 of 100 GA/GALS ]
Beginning LAMARCKIAN GENETIC ALGORITHM (LGA), with a maximum of 2500000 energy evaluations.

Final-Value: -10.947


	FINAL GENETIC ALGORITHM DOCKED STATE
	_______________________________________________


Detailed state:  trans 24.367 -16.982 -0.793 quatxyzw -0.431614 0.122476 -0.891791 0.058458 center 0.534 -0.142 0.039 ntor 4 -1.7729 142.9756 46.1864 -19.6423
State:	 24.367 -16.982  -0.793  -0.432  0.123 -0.893 173.297     -1.77  142.98   46.19  -19.64

DOCKED: MODEL       43
DOCKED: USER    Run = 43
DOCKED: USER    DPF = ligand_dock.biased.dpf
DOCKED: USER  
DOCKED: USER    Estimated Free Energy of Binding    =   -9.37 kcal/mol  [=(1)+(2)+(3)-(4)]
DOCKED: USER    Estimated Inhibition Constant, Ki   =  134.65 nM (nanomolar)  [Temperature = 298.15 K]
DOCKED: USER    
DOCKED: USER    (1) Final Intermolecular Energy     =  -10.57 kcal/mol
DOCKED: USER        vdW + Hbond + desolv Energy     =  -10.57 kcal/mol
DOCKED: USER        Electrostatic Energy            =   +0.00 kcal/mol
DOCKED: USER    (2) Final Total Internal Energy     =   -0.38 kcal/mol
DOCKED: USER    (3) Torsional Free Energy           =   +1.19 kcal/mol
DOCKED: USER    (4) Unbound System's Energy  [=(2)] =   -0.38 kcal/mol
DOCKED: USER    
DOCKED: USER    
DOCKED: USER    NEWDPF move ligand.pdbqt
DOCKED: USER    NEWDPF about 0.534000 -0.142000 0.039000
DOCKED: USER    NEWDPF tran0 24.366713 -16.982191 -0.792753
DOCKED: USER    NEWDPF quaternion0 -0.431614 0.122476 -0.891791 0.058458
DOCKED: USER    NEWDPF axisangle0 -0.432353 0.122686 -0.893319 173.297342
DOCKED: USER    NEWDPF quat0 -0.432353 0.122686 -0.893319 173.297342
DOCKED: USER    NEWDPF dihe0 -1.77 142.98 46.19 -19.64 
DOCKED: USER  keepresnum = 1 
DOCKED: USER  
DOCKED: REMARK  Name = 
DOCKED: REMARK  4 active torsions:
DOCKED: REMARK  status: ('A' for Active; 'I' for Inactive)
DOCKED: REMARK    1  A    between atoms: C_3  and  C_4
DOCKED: REMARK    2  A    between atoms: C_4  and  C_5
DOCKED: REMARK    3  A    between atoms: C_5  and  C_6
DOCKED: REMARK    4  A    between atoms: C_6  and  C_7
DOCKED: REMARK                            x       y       z     vdW  Elec       q    Type
DOCKED: REMARK                         _______ _______ _______ _____ _____    ______ ____
DOCKED: USER                              x       y       z     vdW  Elec       q    Type
DOCKED: USER                           _______ _______ _______ _____ _____    ______ ____
DOCKED: ROOT
DOCKED: ATOM      1  C   UNL     1      23.932 -18.286  -0.887 -0.80 -0.00    +0.000 C 
DOCKED: ENDROOT
DOCKED: BRANCH   1   2
DOCKED: ATOM      2  C   UNL     1      22.753 -18.609   0.042 -0.75 -0.00    +0.000 C 
DOCKED: BRANCH   2   5
DOCKED: ATOM      3  O   UNL     1      19.682 -19.731  -1.864 -2.24 -0.00    +0.000 OA
DOCKED: ATOM      4  N   UNL     1      20.855 -19.770  -1.191 -0.76 -0.00    +0.000 N 
DOCKED: ATOM      5  C   UNL     1      21.443 -18.567  -0.689 -0.86 -0.00    +0.000 C 
DOCKED: ATOM      6  O   UNL     1      20.873 -17.461  -0.885 -2.02 -0.00    +0.000 OA
DOCKED: ATOM      7  H   UNL     1      21.307 -20.633  -1.046 -0.07 -0.00    +0.000 HD
DOCKED: ENDBRANCH   2   5
DOCKED: ENDBRANCH   1   2
DOCKED: BRANCH   1   8
DOCKED: ATOM      8  C   UNL     1      24.009 -16.793  -1.233 -0.61 -0.00    +0.000 C 
DOCKED: BRANCH   8   9
DOCKED: ATOM      9  C   UNL     1      25.366 -16.449  -1.786 -0.52 -0.00    +0.000 A 
DOCKED: ATOM     10  C   UNL     1      25.481 -15.627  -2.920 -0.49 -0.00    +0.000 A 
DOCKED: ATOM     11  C   UNL     1      26.741 -15.334  -3.451 -0.40 -0.00    +0.000 A 
DOCKED: ATOM     12  C   UNL     1      27.891 -15.867  -2.864 -0.26 -0.00    +0.000 A 
DOCKED: ATOM     13  C   UNL     1      27.783 -16.698  -1.743 -0.32 -0.00    +0.000 A 
DOCKED: ATOM     14  C   UNL     1      26.525 -16.992  -1.208 -0.46 -0.00    +0.000 A 
DOCKED: ENDBRANCH   8   9
DOCKED: ENDBRANCH   1   8
DOCKED: TORSDOF 4
DOCKED: TER
DOCKED: ENDMDL
________________________________________________________________________________


	BEGINNING GENETIC ALGORITHM DOCKING 44 of 100
Run: 44 Seed: 1903376188 1148949723 [ Run 44 of 100 GA/GALS ]
Beginning LAMARCKIAN GENETIC ALGORITHM (LGA), with a maximum of 2500000 energy evaluations.

Final-Value: -11.154


	FINAL GENETIC ALGORITHM DOCKED STATE
	_______________________________________________


Detailed state:  trans 24.868 -17.098 -1.034 quatxyzw 0.544245 -0.383040 0.739948 -0.097750 center 0.534 -0.142 0.039 ntor 4 -15.0578 176.3316 -170.7267 -23.8234
State:	 24.868 -17.098  -1.034   0.547 -0.385  0.744 -168.781    -15.06  176.33 -170.73  -23.82

DOCKED: MODEL       44
DOCKED: USER    Run = 44
DOCKED: USER    DPF = ligand_dock.biased.dpf
DOCKED: USER  
DOCKED: USER    Estimated Free Energy of Binding    =   -9.62 kcal/mol  [=(1)+(2)+(3)-(4)]
DOCKED: USER    Estimated Inhibition Constant, Ki   =   89.55 nM (nanomolar)  [Temperature = 298.15 K]
DOCKED: USER    
DOCKED: USER    (1) Final Intermolecular Energy     =  -10.81 kcal/mol
DOCKED: USER        vdW + Hbond + desolv Energy     =  -10.81 kcal/mol
DOCKED: USER        Electrostatic Energy            =   +0.00 kcal/mol
DOCKED: USER    (2) Final Total Internal Energy     =   -0.35 kcal/mol
DOCKED: USER    (3) Torsional Free Energy           =   +1.19 kcal/mol
DOCKED: USER    (4) Unbound System's Energy  [=(2)] =   -0.35 kcal/mol
DOCKED: USER    
DOCKED: USER    
DOCKED: USER    NEWDPF move ligand.pdbqt
DOCKED: USER    NEWDPF about 0.534000 -0.142000 0.039000
DOCKED: USER    NEWDPF tran0 24.868214 -17.097689 -1.034192
DOCKED: USER    NEWDPF quaternion0 0.544245 -0.383040 0.739948 -0.097750
DOCKED: USER    NEWDPF axisangle0 0.546864 -0.384883 0.743509 -168.780778
DOCKED: USER    NEWDPF quat0 0.546864 -0.384883 0.743509 -168.780778
DOCKED: USER    NEWDPF dihe0 -15.06 176.33 -170.73 -23.82 
DOCKED: USER  keepresnum = 1 
DOCKED: USER  
DOCKED: REMARK  Name = 
DOCKED: REMARK  4 active torsions:
DOCKED: REMARK  status: ('A' for Active; 'I' for Inactive)
DOCKED: REMARK    1  A    between atoms: C_3  and  C_4
DOCKED: REMARK    2  A    between atoms: C_4  and  C_5
DOCKED: REMARK    3  A    between atoms: C_5  and  C_6
DOCKED: REMARK    4  A    between atoms: C_6  and  C_7
DOCKED: REMARK                            x       y       z     vdW  Elec       q    Type
DOCKED: REMARK                         _______ _______ _______ _____ _____    ______ ____
DOCKED: USER                              x       y       z     vdW  Elec       q    Type
DOCKED: USER                           _______ _______ _______ _____ _____    ______ ____
DOCKED: ROOT
DOCKED: ATOM      1  C   UNL     1      24.001 -18.066  -1.491 -0.74 -0.00    +0.000 C 
DOCKED: ENDROOT
DOCKED: BRANCH   1   2
DOCKED: ATOM      2  C   UNL     1      23.026 -18.573  -0.420 -0.82 -0.00    +0.000 C 
DOCKED: BRANCH   2   5
DOCKED: ATOM      3  O   UNL     1      19.879 -19.758  -2.158 -2.32 -0.00    +0.000 OA
DOCKED: ATOM      4  N   UNL     1      21.147 -19.730  -1.687 -0.63 -0.00    +0.000 N 
DOCKED: ATOM      5  C   UNL     1      21.614 -18.611  -0.928 -0.83 -0.00    +0.000 C 
DOCKED: ATOM      6  O   UNL     1      20.845 -17.638  -0.707 -2.15 +0.00    +0.000 OA
DOCKED: ATOM      7  H   UNL     1      21.753 -20.485  -1.867 -0.43 -0.00    +0.000 HD
DOCKED: ENDBRANCH   2   5
DOCKED: ENDBRANCH   1   2
DOCKED: BRANCH   1   8
DOCKED: ATOM      8  C   UNL     1      24.508 -16.648  -1.194 -0.61 -0.00    +0.000 C 
DOCKED: BRANCH   8   9
DOCKED: ATOM      9  C   UNL     1      25.794 -16.382  -1.930 -0.49 -0.00    +0.000 A 
DOCKED: ATOM     10  C   UNL     1      27.016 -16.845  -1.414 -0.40 -0.00    +0.000 A 
DOCKED: ATOM     11  C   UNL     1      28.212 -16.569  -2.083 -0.27 -0.00    +0.000 A 
DOCKED: ATOM     12  C   UNL     1      28.199 -15.822  -3.263 -0.25 -0.00    +0.000 A 
DOCKED: ATOM     13  C   UNL     1      26.988 -15.346  -3.776 -0.38 -0.00    +0.000 A 
DOCKED: ATOM     14  C   UNL     1      25.789 -15.620  -3.110 -0.49 -0.00    +0.000 A 
DOCKED: ENDBRANCH   8   9
DOCKED: ENDBRANCH   1   8
DOCKED: TORSDOF 4
DOCKED: TER
DOCKED: ENDMDL
________________________________________________________________________________


	BEGINNING GENETIC ALGORITHM DOCKING 45 of 100
Run: 45 Seed: 147473585 71737349 [ Run 45 of 100 GA/GALS ]
Beginning LAMARCKIAN GENETIC ALGORITHM (LGA), with a maximum of 2500000 energy evaluations.

Final-Value: -11.137


	FINAL GENETIC ALGORITHM DOCKED STATE
	_______________________________________________


Detailed state:  trans 24.755 -17.208 -0.631 quatxyzw 0.474022 -0.351568 0.797725 -0.123845 center 0.534 -0.142 0.039 ntor 4 -22.7427 177.1159 -162.4299 -20.2633
State:	 24.755 -17.208  -0.631   0.478 -0.354  0.804 -165.772    -22.74  177.12 -162.43  -20.26

DOCKED: MODEL       45
DOCKED: USER    Run = 45
DOCKED: USER    DPF = ligand_dock.biased.dpf
DOCKED: USER  
DOCKED: USER    Estimated Free Energy of Binding    =   -9.60 kcal/mol  [=(1)+(2)+(3)-(4)]
DOCKED: USER    Estimated Inhibition Constant, Ki   =   92.61 nM (nanomolar)  [Temperature = 298.15 K]
DOCKED: USER    
DOCKED: USER    (1) Final Intermolecular Energy     =  -10.79 kcal/mol
DOCKED: USER        vdW + Hbond + desolv Energy     =  -10.79 kcal/mol
DOCKED: USER        Electrostatic Energy            =   +0.00 kcal/mol
DOCKED: USER    (2) Final Total Internal Energy     =   -0.35 kcal/mol
DOCKED: USER    (3) Torsional Free Energy           =   +1.19 kcal/mol
DOCKED: USER    (4) Unbound System's Energy  [=(2)] =   -0.35 kcal/mol
DOCKED: USER    
DOCKED: USER    
DOCKED: USER    NEWDPF move ligand.pdbqt
DOCKED: USER    NEWDPF about 0.534000 -0.142000 0.039000
DOCKED: USER    NEWDPF tran0 24.755245 -17.208191 -0.631360
DOCKED: USER    NEWDPF quaternion0 0.474022 -0.351568 0.797725 -0.123845
DOCKED: USER    NEWDPF axisangle0 0.477700 -0.354296 0.803914 -165.771895
DOCKED: USER    NEWDPF quat0 0.477700 -0.354296 0.803914 -165.771895
DOCKED: USER    NEWDPF dihe0 -22.74 177.12 -162.43 -20.26 
DOCKED: USER  keepresnum = 1 
DOCKED: USER  
DOCKED: REMARK  Name = 
DOCKED: REMARK  4 active torsions:
DOCKED: REMARK  status: ('A' for Active; 'I' for Inactive)
DOCKED: REMARK    1  A    between atoms: C_3  and  C_4
DOCKED: REMARK    2  A    between atoms: C_4  and  C_5
DOCKED: REMARK    3  A    between atoms: C_5  and  C_6
DOCKED: REMARK    4  A    between atoms: C_6  and  C_7
DOCKED: REMARK                            x       y       z     vdW  Elec       q    Type
DOCKED: REMARK                         _______ _______ _______ _____ _____    ______ ____
DOCKED: USER                              x       y       z     vdW  Elec       q    Type
DOCKED: USER                           _______ _______ _______ _____ _____    ______ ____
DOCKED: ROOT
DOCKED: ATOM      1  C   UNL     1      23.906 -18.196  -1.079 -0.79 -0.00    +0.000 C 
DOCKED: ENDROOT
DOCKED: BRANCH   1   2
DOCKED: ATOM      2  C   UNL     1      22.766 -18.517  -0.102 -0.78 -0.00    +0.000 C 
DOCKED: BRANCH   2   5
DOCKED: ATOM      3  O   UNL     1      19.912 -19.790  -2.236 -2.27 -0.00    +0.000 OA
DOCKED: ATOM      4  N   UNL     1      21.100 -19.730  -1.593 -0.68 -0.00    +0.000 N 
DOCKED: ATOM      5  C   UNL     1      21.440 -18.589  -0.800 -0.85 -0.00    +0.000 C 
DOCKED: ATOM      6  O   UNL     1      20.633 -17.626  -0.709 -2.18 +0.00    +0.000 OA
DOCKED: ATOM      7  H   UNL     1      21.737 -20.478  -1.672 -0.36 -0.00    +0.000 HD
DOCKED: ENDBRANCH   2   5
DOCKED: ENDBRANCH   1   2
DOCKED: BRANCH   1   8
DOCKED: ATOM      8  C   UNL     1      24.446 -16.772  -0.898 -0.61 -0.00    +0.000 C 
DOCKED: BRANCH   8   9
DOCKED: ATOM      9  C   UNL     1      25.797 -16.632  -1.547 -0.50 -0.00    +0.000 A 
DOCKED: ATOM     10  C   UNL     1      26.929 -17.226  -0.963 -0.45 -0.00    +0.000 A 
DOCKED: ATOM     11  C   UNL     1      28.188 -17.069  -1.550 -0.29 -0.00    +0.000 A 
DOCKED: ATOM     12  C   UNL     1      28.328 -16.311  -2.715 -0.24 -0.00    +0.000 A 
DOCKED: ATOM     13  C   UNL     1      27.209 -15.705  -3.295 -0.31 -0.00    +0.000 A 
DOCKED: ATOM     14  C   UNL     1      25.948 -15.860  -2.711 -0.46 -0.00    +0.000 A 
DOCKED: ENDBRANCH   8   9
DOCKED: ENDBRANCH   1   8
DOCKED: TORSDOF 4
DOCKED: TER
DOCKED: ENDMDL
________________________________________________________________________________


	BEGINNING GENETIC ALGORITHM DOCKING 46 of 100
Run: 46 Seed: 546508509 1671095558 [ Run 46 of 100 GA/GALS ]
Beginning LAMARCKIAN GENETIC ALGORITHM (LGA), with a maximum of 2500000 energy evaluations.

Final-Value: -10.799


	FINAL GENETIC ALGORITHM DOCKED STATE
	_______________________________________________


Detailed state:  trans 23.760 -18.199 -1.213 quatxyzw -0.046061 0.478331 0.812943 -0.328941 center 0.534 -0.142 0.039 ntor 4 -36.7556 167.3724 158.3758 -58.1493
State:	 23.760 -18.199  -1.213  -0.049  0.507  0.861 -141.591    -36.76  167.37  158.38  -58.15

DOCKED: MODEL       46
DOCKED: USER    Run = 46
DOCKED: USER    DPF = ligand_dock.biased.dpf
DOCKED: USER  
DOCKED: USER    Estimated Free Energy of Binding    =   -9.23 kcal/mol  [=(1)+(2)+(3)-(4)]
DOCKED: USER    Estimated Inhibition Constant, Ki   =  170.75 nM (nanomolar)  [Temperature = 298.15 K]
DOCKED: USER    
DOCKED: USER    (1) Final Intermolecular Energy     =  -10.43 kcal/mol
DOCKED: USER        vdW + Hbond + desolv Energy     =  -10.43 kcal/mol
DOCKED: USER        Electrostatic Energy            =   +0.00 kcal/mol
DOCKED: USER    (2) Final Total Internal Energy     =   -0.37 kcal/mol
DOCKED: USER    (3) Torsional Free Energy           =   +1.19 kcal/mol
DOCKED: USER    (4) Unbound System's Energy  [=(2)] =   -0.37 kcal/mol
DOCKED: USER    
DOCKED: USER    
DOCKED: USER    NEWDPF move ligand.pdbqt
DOCKED: USER    NEWDPF about 0.534000 -0.142000 0.039000
DOCKED: USER    NEWDPF tran0 23.760077 -18.199335 -1.213402
DOCKED: USER    NEWDPF quaternion0 -0.046061 0.478331 0.812943 -0.328941
DOCKED: USER    NEWDPF axisangle0 -0.048775 0.506518 0.860848 -141.591013
DOCKED: USER    NEWDPF quat0 -0.048775 0.506518 0.860848 -141.591013
DOCKED: USER    NEWDPF dihe0 -36.76 167.37 158.38 -58.15 
DOCKED: USER  keepresnum = 1 
DOCKED: USER  
DOCKED: REMARK  Name = 
DOCKED: REMARK  4 active torsions:
DOCKED: REMARK  status: ('A' for Active; 'I' for Inactive)
DOCKED: REMARK    1  A    between atoms: C_3  and  C_4
DOCKED: REMARK    2  A    between atoms: C_4  and  C_5
DOCKED: REMARK    3  A    between atoms: C_5  and  C_6
DOCKED: REMARK    4  A    between atoms: C_6  and  C_7
DOCKED: REMARK                            x       y       z     vdW  Elec       q    Type
DOCKED: REMARK                         _______ _______ _______ _____ _____    ______ ____
DOCKED: USER                              x       y       z     vdW  Elec       q    Type
DOCKED: USER                           _______ _______ _______ _____ _____    ______ ____
DOCKED: ROOT
DOCKED: ATOM      1  C   UNL     1      22.809 -18.574  -0.290 -0.82 -0.00    +0.000 C 
DOCKED: ENDROOT
DOCKED: BRANCH   1   2
DOCKED: ATOM      2  C   UNL     1      21.378 -18.190  -0.692 -0.80 -0.00    +0.000 C 
DOCKED: BRANCH   2   5
DOCKED: ATOM      3  O   UNL     1      19.425 -21.235   0.422 -0.84 -0.00    +0.000 OA
DOCKED: ATOM      4  N   UNL     1      20.229 -20.147   0.458 -0.71 -0.00    +0.000 N 
DOCKED: ATOM      5  C   UNL     1      20.471 -19.386  -0.728 -0.90 -0.00    +0.000 C 
DOCKED: ATOM      6  O   UNL     1      19.944 -19.735  -1.818 -2.39 -0.00    +0.000 OA
DOCKED: ATOM      7  H   UNL     1      20.651 -19.878   1.306 -0.33 -0.00    +0.000 HD
DOCKED: ENDBRANCH   2   5
DOCKED: ENDBRANCH   1   2
DOCKED: BRANCH   1   8
DOCKED: ATOM      8  C   UNL     1      23.735 -18.721  -1.504 -0.70 -0.00    +0.000 C 
DOCKED: BRANCH   8   9
DOCKED: ATOM      9  C   UNL     1      24.944 -17.836  -1.356 -0.60 -0.00    +0.000 A 
DOCKED: ATOM     10  C   UNL     1      25.124 -16.733  -2.208 -0.53 -0.00    +0.000 A 
DOCKED: ATOM     11  C   UNL     1      26.264 -15.931  -2.089 -0.42 -0.00    +0.000 A 
DOCKED: ATOM     12  C   UNL     1      27.234 -16.230  -1.130 -0.36 -0.00    +0.000 A 
DOCKED: ATOM     13  C   UNL     1      27.069 -17.334  -0.288 -0.45 -0.00    +0.000 A 
DOCKED: ATOM     14  C   UNL     1      25.930 -18.138  -0.403 -0.59 -0.00    +0.000 A 
DOCKED: ENDBRANCH   8   9
DOCKED: ENDBRANCH   1   8
DOCKED: TORSDOF 4
DOCKED: TER
DOCKED: ENDMDL
________________________________________________________________________________


	BEGINNING GENETIC ALGORITHM DOCKING 47 of 100
Run: 47 Seed: 1230589483 142931771 [ Run 47 of 100 GA/GALS ]
Beginning LAMARCKIAN GENETIC ALGORITHM (LGA), with a maximum of 2500000 energy evaluations.

Final-Value: -10.894


	FINAL GENETIC ALGORITHM DOCKED STATE
	_______________________________________________


Detailed state:  trans 23.980 -16.954 -1.791 quatxyzw -0.447247 0.650082 0.564403 0.242513 center 0.534 -0.142 0.039 ntor 4 34.0360 -34.0797 -158.5236 51.4890
State:	 23.980 -16.954  -1.791  -0.461  0.670  0.582 151.930     34.04  -34.08 -158.52   51.49

DOCKED: MODEL       47
DOCKED: USER    Run = 47
DOCKED: USER    DPF = ligand_dock.biased.dpf
DOCKED: USER  
DOCKED: USER    Estimated Free Energy of Binding    =   -9.35 kcal/mol  [=(1)+(2)+(3)-(4)]
DOCKED: USER    Estimated Inhibition Constant, Ki   =  141.12 nM (nanomolar)  [Temperature = 298.15 K]
DOCKED: USER    
DOCKED: USER    (1) Final Intermolecular Energy     =  -10.54 kcal/mol
DOCKED: USER        vdW + Hbond + desolv Energy     =  -10.54 kcal/mol
DOCKED: USER        Electrostatic Energy            =   +0.00 kcal/mol
DOCKED: USER    (2) Final Total Internal Energy     =   -0.35 kcal/mol
DOCKED: USER    (3) Torsional Free Energy           =   +1.19 kcal/mol
DOCKED: USER    (4) Unbound System's Energy  [=(2)] =   -0.35 kcal/mol
DOCKED: USER    
DOCKED: USER    
DOCKED: USER    NEWDPF move ligand.pdbqt
DOCKED: USER    NEWDPF about 0.534000 -0.142000 0.039000
DOCKED: USER    NEWDPF tran0 23.980086 -16.954310 -1.791169
DOCKED: USER    NEWDPF quaternion0 -0.447247 0.650082 0.564403 0.242513
DOCKED: USER    NEWDPF axisangle0 -0.461009 0.670085 0.581770 151.930192
DOCKED: USER    NEWDPF quat0 -0.461009 0.670085 0.581770 151.930192
DOCKED: USER    NEWDPF dihe0 34.04 -34.08 -158.52 51.49 
DOCKED: USER  keepresnum = 1 
DOCKED: USER  
DOCKED: REMARK  Name = 
DOCKED: REMARK  4 active torsions:
DOCKED: REMARK  status: ('A' for Active; 'I' for Inactive)
DOCKED: REMARK    1  A    between atoms: C_3  and  C_4
DOCKED: REMARK    2  A    between atoms: C_4  and  C_5
DOCKED: REMARK    3  A    between atoms: C_5  and  C_6
DOCKED: REMARK    4  A    between atoms: C_6  and  C_7
DOCKED: REMARK                            x       y       z     vdW  Elec       q    Type
DOCKED: REMARK                         _______ _______ _______ _____ _____    ______ ____
DOCKED: USER                              x       y       z     vdW  Elec       q    Type
DOCKED: USER                           _______ _______ _______ _____ _____    ______ ____
DOCKED: ROOT
DOCKED: ATOM      1  C   UNL     1      23.493 -17.192  -0.524 -0.65 -0.00    +0.000 C 
DOCKED: ENDROOT
DOCKED: BRANCH   1   2
DOCKED: ATOM      2  C   UNL     1      22.869 -18.584  -0.357 -0.83 -0.00    +0.000 C 
DOCKED: BRANCH   2   5
DOCKED: ATOM      3  O   UNL     1      19.881 -19.786  -2.346 -2.16 -0.00    +0.000 OA
DOCKED: ATOM      4  N   UNL     1      21.119 -19.735  -1.801 -0.62 -0.00    +0.000 N 
DOCKED: ATOM      5  C   UNL     1      21.490 -18.650  -0.946 -0.83 -0.00    +0.000 C 
DOCKED: ATOM      6  O   UNL     1      20.666 -17.727  -0.708 -2.24 +0.00    +0.000 OA
DOCKED: ATOM      7  H   UNL     1      21.769 -20.449  -1.994 -0.47 -0.00    +0.000 HD
DOCKED: ENDBRANCH   2   5
DOCKED: ENDBRANCH   1   2
DOCKED: BRANCH   1   8
DOCKED: ATOM      8  C   UNL     1      24.529 -17.150  -1.656 -0.66 -0.00    +0.000 C 
DOCKED: BRANCH   8   9
DOCKED: ATOM      9  C   UNL     1      25.843 -16.620  -1.149 -0.49 -0.00    +0.000 A 
DOCKED: ATOM     10  C   UNL     1      25.967 -15.272  -0.772 -0.35 -0.00    +0.000 A 
DOCKED: ATOM     11  C   UNL     1      27.198 -14.775  -0.331 -0.26 -0.00    +0.000 A 
DOCKED: ATOM     12  C   UNL     1      28.313 -15.614  -0.274 -0.23 -0.00    +0.000 A 
DOCKED: ATOM     13  C   UNL     1      28.201 -16.954  -0.661 -0.31 -0.00    +0.000 A 
DOCKED: ATOM     14  C   UNL     1      26.972 -17.455  -1.102 -0.43 -0.00    +0.000 A 
DOCKED: ENDBRANCH   8   9
DOCKED: ENDBRANCH   1   8
DOCKED: TORSDOF 4
DOCKED: TER
DOCKED: ENDMDL
________________________________________________________________________________


	BEGINNING GENETIC ALGORITHM DOCKING 48 of 100
Run: 48 Seed: 1538708855 44104494 [ Run 48 of 100 GA/GALS ]
Beginning LAMARCKIAN GENETIC ALGORITHM (LGA), with a maximum of 2500000 energy evaluations.

Final-Value: -11.184


	FINAL GENETIC ALGORITHM DOCKED STATE
	_______________________________________________


Detailed state:  trans 24.484 -17.427 -1.785 quatxyzw 0.464639 -0.770594 -0.381367 -0.211787 center 0.534 -0.142 0.039 ntor 4 27.5689 -51.4708 -16.2318 -8.3841
State:	 24.484 -17.427  -1.785   0.475 -0.788 -0.390 -155.546     27.57  -51.47  -16.23   -8.38

DOCKED: MODEL       48
DOCKED: USER    Run = 48
DOCKED: USER    DPF = ligand_dock.biased.dpf
DOCKED: USER  
DOCKED: USER    Estimated Free Energy of Binding    =   -9.64 kcal/mol  [=(1)+(2)+(3)-(4)]
DOCKED: USER    Estimated Inhibition Constant, Ki   =   85.70 nM (nanomolar)  [Temperature = 298.15 K]
DOCKED: USER    
DOCKED: USER    (1) Final Intermolecular Energy     =  -10.83 kcal/mol
DOCKED: USER        vdW + Hbond + desolv Energy     =  -10.83 kcal/mol
DOCKED: USER        Electrostatic Energy            =   +0.00 kcal/mol
DOCKED: USER    (2) Final Total Internal Energy     =   -0.35 kcal/mol
DOCKED: USER    (3) Torsional Free Energy           =   +1.19 kcal/mol
DOCKED: USER    (4) Unbound System's Energy  [=(2)] =   -0.35 kcal/mol
DOCKED: USER    
DOCKED: USER    
DOCKED: USER    NEWDPF move ligand.pdbqt
DOCKED: USER    NEWDPF about 0.534000 -0.142000 0.039000
DOCKED: USER    NEWDPF tran0 24.484239 -17.426641 -1.784515
DOCKED: USER    NEWDPF quaternion0 0.464639 -0.770594 -0.381367 -0.211787
DOCKED: USER    NEWDPF axisangle0 0.475424 -0.788480 -0.390219 -155.545864
DOCKED: USER    NEWDPF quat0 0.475424 -0.788480 -0.390219 -155.545864
DOCKED: USER    NEWDPF dihe0 27.57 -51.47 -16.23 -8.38 
DOCKED: USER  keepresnum = 1 
DOCKED: USER  
DOCKED: REMARK  Name = 
DOCKED: REMARK  4 active torsions:
DOCKED: REMARK  status: ('A' for Active; 'I' for Inactive)
DOCKED: REMARK    1  A    between atoms: C_3  and  C_4
DOCKED: REMARK    2  A    between atoms: C_4  and  C_5
DOCKED: REMARK    3  A    between atoms: C_5  and  C_6
DOCKED: REMARK    4  A    between atoms: C_6  and  C_7
DOCKED: REMARK                            x       y       z     vdW  Elec       q    Type
DOCKED: REMARK                         _______ _______ _______ _____ _____    ______ ____
DOCKED: USER                              x       y       z     vdW  Elec       q    Type
DOCKED: USER                           _______ _______ _______ _____ _____    ______ ____
DOCKED: ROOT
DOCKED: ATOM      1  C   UNL     1      23.657 -17.236  -0.700 -0.71 -0.00    +0.000 C 
DOCKED: ENDROOT
DOCKED: BRANCH   1   2
DOCKED: ATOM      2  C   UNL     1      22.904 -18.503  -0.270 -0.81 -0.00    +0.000 C 
DOCKED: BRANCH   2   5
DOCKED: ATOM      3  O   UNL     1      19.885 -19.761  -2.174 -2.32 -0.00    +0.000 OA
DOCKED: ATOM      4  N   UNL     1      21.117 -19.712  -1.618 -0.67 -0.00    +0.000 N 
DOCKED: ATOM      5  C   UNL     1      21.531 -18.564  -0.872 -0.83 -0.00    +0.000 C 
DOCKED: ATOM      6  O   UNL     1      20.749 -17.585  -0.742 -2.13 +0.00    +0.000 OA
DOCKED: ATOM      7  H   UNL     1      21.734 -20.472  -1.726 -0.38 -0.00    +0.000 HD
DOCKED: ENDBRANCH   2   5
DOCKED: ENDBRANCH   1   2
DOCKED: BRANCH   1   8
DOCKED: ATOM      8  C   UNL     1      24.959 -17.556  -1.445 -0.67 -0.00    +0.000 C 
DOCKED: BRANCH   8   9
DOCKED: ATOM      9  C   UNL     1      25.595 -16.294  -1.963 -0.50 -0.00    +0.000 A 
DOCKED: ATOM     10  C   UNL     1      26.228 -15.404  -1.079 -0.36 -0.00    +0.000 A 
DOCKED: ATOM     11  C   UNL     1      26.790 -14.216  -1.557 -0.24 -0.00    +0.000 A 
DOCKED: ATOM     12  C   UNL     1      26.716 -13.904  -2.917 -0.26 -0.00    +0.000 A 
DOCKED: ATOM     13  C   UNL     1      26.076 -14.778  -3.802 -0.48 -0.00    +0.000 A 
DOCKED: ATOM     14  C   UNL     1      25.512 -15.967  -3.327 -0.46 -0.00    +0.000 A 
DOCKED: ENDBRANCH   8   9
DOCKED: ENDBRANCH   1   8
DOCKED: TORSDOF 4
DOCKED: TER
DOCKED: ENDMDL
________________________________________________________________________________


	BEGINNING GENETIC ALGORITHM DOCKING 49 of 100
Run: 49 Seed: 1886363500 637808732 [ Run 49 of 100 GA/GALS ]
Beginning LAMARCKIAN GENETIC ALGORITHM (LGA), with a maximum of 2500000 energy evaluations.

Final-Value: -10.913


	FINAL GENETIC ALGORITHM DOCKED STATE
	_______________________________________________


Detailed state:  trans 25.131 -17.656 -0.543 quatxyzw 0.496875 -0.481711 -0.668598 0.272114 center 0.534 -0.142 0.039 ntor 4 112.5700 -107.3751 -150.3661 -90.9727
State:	 25.131 -17.656  -0.543   0.516 -0.501 -0.695 148.420    112.57 -107.38 -150.37  -90.97

DOCKED: MODEL       49
DOCKED: USER    Run = 49
DOCKED: USER    DPF = ligand_dock.biased.dpf
DOCKED: USER  
DOCKED: USER    Estimated Free Energy of Binding    =   -9.34 kcal/mol  [=(1)+(2)+(3)-(4)]
DOCKED: USER    Estimated Inhibition Constant, Ki   =  143.42 nM (nanomolar)  [Temperature = 298.15 K]
DOCKED: USER    
DOCKED: USER    (1) Final Intermolecular Energy     =  -10.53 kcal/mol
DOCKED: USER        vdW + Hbond + desolv Energy     =  -10.53 kcal/mol
DOCKED: USER        Electrostatic Energy            =   +0.00 kcal/mol
DOCKED: USER    (2) Final Total Internal Energy     =   -0.38 kcal/mol
DOCKED: USER    (3) Torsional Free Energy           =   +1.19 kcal/mol
DOCKED: USER    (4) Unbound System's Energy  [=(2)] =   -0.38 kcal/mol
DOCKED: USER    
DOCKED: USER    
DOCKED: USER    NEWDPF move ligand.pdbqt
DOCKED: USER    NEWDPF about 0.534000 -0.142000 0.039000
DOCKED: USER    NEWDPF tran0 25.130853 -17.655736 -0.542666
DOCKED: USER    NEWDPF quaternion0 0.496875 -0.481711 -0.668598 0.272114
DOCKED: USER    NEWDPF axisangle0 0.516360 -0.500601 -0.694817 148.419794
DOCKED: USER    NEWDPF quat0 0.516360 -0.500601 -0.694817 148.419794
DOCKED: USER    NEWDPF dihe0 112.57 -107.38 -150.37 -90.97 
DOCKED: USER  keepresnum = 1 
DOCKED: USER  
DOCKED: REMARK  Name = 
DOCKED: REMARK  4 active torsions:
DOCKED: REMARK  status: ('A' for Active; 'I' for Inactive)
DOCKED: REMARK    1  A    between atoms: C_3  and  C_4
DOCKED: REMARK    2  A    between atoms: C_4  and  C_5
DOCKED: REMARK    3  A    between atoms: C_5  and  C_6
DOCKED: REMARK    4  A    between atoms: C_6  and  C_7
DOCKED: REMARK                            x       y       z     vdW  Elec       q    Type
DOCKED: REMARK                         _______ _______ _______ _____ _____    ______ ____
DOCKED: USER                              x       y       z     vdW  Elec       q    Type
DOCKED: USER                           _______ _______ _______ _____ _____    ______ ____
DOCKED: ROOT
DOCKED: ATOM      1  C   UNL     1      23.925 -18.238  -0.218 -0.76 -0.00    +0.000 C 
DOCKED: ENDROOT
DOCKED: BRANCH   1   2
DOCKED: ATOM      2  C   UNL     1      23.163 -18.790  -1.431 -0.77 -0.00    +0.000 C 
DOCKED: BRANCH   2   5
DOCKED: ATOM      3  O   UNL     1      19.503 -19.734  -1.631 -2.11 -0.00    +0.000 OA
DOCKED: ATOM      4  N   UNL     1      20.843 -19.760  -1.816 -0.70 -0.00    +0.000 N 
DOCKED: ATOM      5  C   UNL     1      21.679 -18.771  -1.210 -0.71 -0.00    +0.000 C 
DOCKED: ATOM      6  O   UNL     1      21.164 -17.860  -0.508 -1.92 -0.00    +0.000 OA
DOCKED: ATOM      7  H   UNL     1      21.247 -20.466  -2.373 -0.52 -0.00    +0.000 HD
DOCKED: ENDBRANCH   2   5
DOCKED: ENDBRANCH   1   2
DOCKED: BRANCH   1   8
DOCKED: ATOM      8  C   UNL     1      25.438 -18.163  -0.466 -0.69 -0.00    +0.000 C 
DOCKED: BRANCH   8   9
DOCKED: ATOM      9  C   UNL     1      25.817 -16.811  -1.009 -0.51 -0.00    +0.000 A 
DOCKED: ATOM     10  C   UNL     1      25.287 -16.364  -2.231 -0.51 -0.00    +0.000 A 
DOCKED: ATOM     11  C   UNL     1      25.665 -15.121  -2.750 -0.44 -0.00    +0.000 A 
DOCKED: ATOM     12  C   UNL     1      26.582 -14.324  -2.060 -0.27 -0.00    +0.000 A 
DOCKED: ATOM     13  C   UNL     1      27.125 -14.768  -0.850 -0.26 -0.00    +0.000 A 
DOCKED: ATOM     14  C   UNL     1      26.748 -16.010  -0.328 -0.36 -0.00    +0.000 A 
DOCKED: ENDBRANCH   8   9
DOCKED: ENDBRANCH   1   8
DOCKED: TORSDOF 4
DOCKED: TER
DOCKED: ENDMDL
________________________________________________________________________________


	BEGINNING GENETIC ALGORITHM DOCKING 50 of 100
Run: 50 Seed: 196179546 2055260675 [ Run 50 of 100 GA/GALS ]
Beginning LAMARCKIAN GENETIC ALGORITHM (LGA), with a maximum of 2500000 energy evaluations.

Final-Value: -11.250


	FINAL GENETIC ALGORITHM DOCKED STATE
	_______________________________________________


Detailed state:  trans 24.733 -17.034 -0.983 quatxyzw 0.522415 -0.336410 0.777062 -0.100420 center 0.534 -0.142 0.039 ntor 4 -19.8242 173.6286 -170.0979 -16.4995
State:	 24.733 -17.034  -0.983   0.525 -0.338  0.781 -168.473    -19.82  173.63 -170.10  -16.50

DOCKED: MODEL       50
DOCKED: USER    Run = 50
DOCKED: USER    DPF = ligand_dock.biased.dpf
DOCKED: USER  
DOCKED: USER    Estimated Free Energy of Binding    =   -9.70 kcal/mol  [=(1)+(2)+(3)-(4)]
DOCKED: USER    Estimated Inhibition Constant, Ki   =   77.13 nM (nanomolar)  [Temperature = 298.15 K]
DOCKED: USER    
DOCKED: USER    (1) Final Intermolecular Energy     =  -10.90 kcal/mol
DOCKED: USER        vdW + Hbond + desolv Energy     =  -10.90 kcal/mol
DOCKED: USER        Electrostatic Energy            =   +0.00 kcal/mol
DOCKED: USER    (2) Final Total Internal Energy     =   -0.35 kcal/mol
DOCKED: USER    (3) Torsional Free Energy           =   +1.19 kcal/mol
DOCKED: USER    (4) Unbound System's Energy  [=(2)] =   -0.35 kcal/mol
DOCKED: USER    
DOCKED: USER    
DOCKED: USER    NEWDPF move ligand.pdbqt
DOCKED: USER    NEWDPF about 0.534000 -0.142000 0.039000
DOCKED: USER    NEWDPF tran0 24.732925 -17.034040 -0.982571
DOCKED: USER    NEWDPF quaternion0 0.522415 -0.336410 0.777062 -0.100420
DOCKED: USER    NEWDPF axisangle0 0.525070 -0.338119 0.781010 -168.473264
DOCKED: USER    NEWDPF quat0 0.525070 -0.338119 0.781010 -168.473264
DOCKED: USER    NEWDPF dihe0 -19.82 173.63 -170.10 -16.50 
DOCKED: USER  keepresnum = 1 
DOCKED: USER  
DOCKED: REMARK  Name = 
DOCKED: REMARK  4 active torsions:
DOCKED: REMARK  status: ('A' for Active; 'I' for Inactive)
DOCKED: REMARK    1  A    between atoms: C_3  and  C_4
DOCKED: REMARK    2  A    between atoms: C_4  and  C_5
DOCKED: REMARK    3  A    between atoms: C_5  and  C_6
DOCKED: REMARK    4  A    between atoms: C_6  and  C_7
DOCKED: REMARK                            x       y       z     vdW  Elec       q    Type
DOCKED: REMARK                         _______ _______ _______ _____ _____    ______ ____
DOCKED: USER                              x       y       z     vdW  Elec       q    Type
DOCKED: USER                           _______ _______ _______ _____ _____    ______ ____
DOCKED: ROOT
DOCKED: ATOM      1  C   UNL     1      23.930 -18.078  -1.386 -0.76 -0.00    +0.000 C 
DOCKED: ENDROOT
DOCKED: BRANCH   1   2
DOCKED: ATOM      2  C   UNL     1      22.906 -18.511  -0.327 -0.83 -0.00    +0.000 C 
DOCKED: BRANCH   2   5
DOCKED: ATOM      3  O   UNL     1      19.882 -19.796  -2.205 -2.30 -0.00    +0.000 OA
DOCKED: ATOM      4  N   UNL     1      21.126 -19.726  -1.678 -0.65 -0.00    +0.000 N 
DOCKED: ATOM      5  C   UNL     1      21.520 -18.596  -0.896 -0.83 -0.00    +0.000 C 
DOCKED: ATOM      6  O   UNL     1      20.709 -17.650  -0.706 -2.18 +0.00    +0.000 OA
DOCKED: ATOM      7  H   UNL     1      21.765 -20.460  -1.834 -0.43 -0.00    +0.000 HD
DOCKED: ENDBRANCH   2   5
DOCKED: ENDBRANCH   1   2
DOCKED: BRANCH   1   8
DOCKED: ATOM      8  C   UNL     1      24.368 -16.619  -1.210 -0.58 -0.00    +0.000 C 
DOCKED: BRANCH   8   9
DOCKED: ATOM      9  C   UNL     1      25.593 -16.332  -2.038 -0.50 -0.00    +0.000 A 
DOCKED: ATOM     10  C   UNL     1      26.866 -16.703  -1.573 -0.40 -0.00    +0.000 A 
DOCKED: ATOM     11  C   UNL     1      28.005 -16.407  -2.329 -0.27 -0.00    +0.000 A 
DOCKED: ATOM     12  C   UNL     1      27.882 -15.730  -3.545 -0.26 -0.00    +0.000 A 
DOCKED: ATOM     13  C   UNL     1      26.620 -15.345  -4.008 -0.45 -0.00    +0.000 A 
DOCKED: ATOM     14  C   UNL     1      25.478 -15.640  -3.255 -0.48 -0.00    +0.000 A 
DOCKED: ENDBRANCH   8   9
DOCKED: ENDBRANCH   1   8
DOCKED: TORSDOF 4
DOCKED: TER
DOCKED: ENDMDL
________________________________________________________________________________


	BEGINNING GENETIC ALGORITHM DOCKING 51 of 100
Run: 51 Seed: 1230824960 220954297 [ Run 51 of 100 GA/GALS ]
Beginning LAMARCKIAN GENETIC ALGORITHM (LGA), with a maximum of 2500000 energy evaluations.

Final-Value: -11.054


	FINAL GENETIC ALGORITHM DOCKED STATE
	_______________________________________________


Detailed state:  trans 24.884 -17.359 -1.276 quatxyzw 0.577054 -0.793096 -0.151718 -0.122427 center 0.534 -0.142 0.039 ntor 4 33.7476 -86.6129 24.2519 -22.8037
State:	 24.884 -17.359  -1.276   0.581 -0.799 -0.153 -165.936     33.75  -86.61   24.25  -22.80

DOCKED: MODEL       51
DOCKED: USER    Run = 51
DOCKED: USER    DPF = ligand_dock.biased.dpf
DOCKED: USER  
DOCKED: USER    Estimated Free Energy of Binding    =   -9.53 kcal/mol  [=(1)+(2)+(3)-(4)]
DOCKED: USER    Estimated Inhibition Constant, Ki   =  103.47 nM (nanomolar)  [Temperature = 298.15 K]
DOCKED: USER    
DOCKED: USER    (1) Final Intermolecular Energy     =  -10.72 kcal/mol
DOCKED: USER        vdW + Hbond + desolv Energy     =  -10.72 kcal/mol
DOCKED: USER        Electrostatic Energy            =   +0.00 kcal/mol
DOCKED: USER    (2) Final Total Internal Energy     =   -0.33 kcal/mol
DOCKED: USER    (3) Torsional Free Energy           =   +1.19 kcal/mol
DOCKED: USER    (4) Unbound System's Energy  [=(2)] =   -0.33 kcal/mol
DOCKED: USER    
DOCKED: USER    
DOCKED: USER    NEWDPF move ligand.pdbqt
DOCKED: USER    NEWDPF about 0.534000 -0.142000 0.039000
DOCKED: USER    NEWDPF tran0 24.883786 -17.358770 -1.275654
DOCKED: USER    NEWDPF quaternion0 0.577054 -0.793096 -0.151718 -0.122427
DOCKED: USER    NEWDPF axisangle0 0.581428 -0.799107 -0.152868 -165.935623
DOCKED: USER    NEWDPF quat0 0.581428 -0.799107 -0.152868 -165.935623
DOCKED: USER    NEWDPF dihe0 33.75 -86.61 24.25 -22.80 
DOCKED: USER  keepresnum = 1 
DOCKED: USER  
DOCKED: REMARK  Name = 
DOCKED: REMARK  4 active torsions:
DOCKED: REMARK  status: ('A' for Active; 'I' for Inactive)
DOCKED: REMARK    1  A    between atoms: C_3  and  C_4
DOCKED: REMARK    2  A    between atoms: C_4  and  C_5
DOCKED: REMARK    3  A    between atoms: C_5  and  C_6
DOCKED: REMARK    4  A    between atoms: C_6  and  C_7
DOCKED: REMARK                            x       y       z     vdW  Elec       q    Type
DOCKED: REMARK                         _______ _______ _______ _____ _____    ______ ____
DOCKED: USER                              x       y       z     vdW  Elec       q    Type
DOCKED: USER                           _______ _______ _______ _____ _____    ______ ____
DOCKED: ROOT
DOCKED: ATOM      1  C   UNL     1      23.639 -17.158  -0.720 -0.70 -0.00    +0.000 C 
DOCKED: ENDROOT
DOCKED: BRANCH   1   2
DOCKED: ATOM      2  C   UNL     1      22.933 -18.458  -0.308 -0.82 -0.00    +0.000 C 
DOCKED: BRANCH   2   5
DOCKED: ATOM      3  O   UNL     1      19.783 -19.734  -1.972 -2.29 -0.00    +0.000 OA
DOCKED: ATOM      4  N   UNL     1      21.046 -19.688  -1.489 -0.74 -0.00    +0.000 N 
DOCKED: ATOM      5  C   UNL     1      21.527 -18.515  -0.828 -0.83 -0.00    +0.000 C 
DOCKED: ATOM      6  O   UNL     1      20.776 -17.510  -0.706 -2.09 +0.00    +0.000 OA
DOCKED: ATOM      7  H   UNL     1      21.638 -20.468  -1.592 -0.34 -0.00    +0.000 HD
DOCKED: ENDBRANCH   2   5
DOCKED: ENDBRANCH   1   2
DOCKED: BRANCH   1   8
DOCKED: ATOM      8  C   UNL     1      25.166 -17.309  -0.751 -0.66 -0.00    +0.000 C 
DOCKED: BRANCH   8   9
DOCKED: ATOM      9  C   UNL     1      25.786 -16.228  -1.595 -0.48 -0.00    +0.000 A 
DOCKED: ATOM     10  C   UNL     1      26.604 -15.249  -1.006 -0.32 -0.00    +0.000 A 
DOCKED: ATOM     11  C   UNL     1      27.153 -14.228  -1.787 -0.21 -0.00    +0.000 A 
DOCKED: ATOM     12  C   UNL     1      26.882 -14.169  -3.156 -0.28 -0.00    +0.000 A 
DOCKED: ATOM     13  C   UNL     1      26.057 -15.132  -3.748 -0.50 -0.00    +0.000 A 
DOCKED: ATOM     14  C   UNL     1      25.506 -16.155  -2.970 -0.47 -0.00    +0.000 A 
DOCKED: ENDBRANCH   8   9
DOCKED: ENDBRANCH   1   8
DOCKED: TORSDOF 4
DOCKED: TER
DOCKED: ENDMDL
________________________________________________________________________________


	BEGINNING GENETIC ALGORITHM DOCKING 52 of 100
Run: 52 Seed: 729594821 206341121 [ Run 52 of 100 GA/GALS ]
Beginning LAMARCKIAN GENETIC ALGORITHM (LGA), with a maximum of 2500000 energy evaluations.

Final-Value: -10.707


	FINAL GENETIC ALGORITHM DOCKED STATE
	_______________________________________________


Detailed state:  trans 23.801 -16.381 -1.329 quatxyzw -0.452983 0.381856 0.777638 0.210407 center 0.534 -0.142 0.039 ntor 4 65.6480 -39.8163 120.8152 71.5458
State:	 23.801 -16.381  -1.329  -0.463  0.391  0.795 155.708     65.65  -39.82  120.82   71.55

DOCKED: MODEL       52
DOCKED: USER    Run = 52
DOCKED: USER    DPF = ligand_dock.biased.dpf
DOCKED: USER  
DOCKED: USER    Estimated Free Energy of Binding    =   -9.16 kcal/mol  [=(1)+(2)+(3)-(4)]
DOCKED: USER    Estimated Inhibition Constant, Ki   =  193.67 nM (nanomolar)  [Temperature = 298.15 K]
DOCKED: USER    
DOCKED: USER    (1) Final Intermolecular Energy     =  -10.35 kcal/mol
DOCKED: USER        vdW + Hbond + desolv Energy     =  -10.35 kcal/mol
DOCKED: USER        Electrostatic Energy            =   +0.00 kcal/mol
DOCKED: USER    (2) Final Total Internal Energy     =   -0.36 kcal/mol
DOCKED: USER    (3) Torsional Free Energy           =   +1.19 kcal/mol
DOCKED: USER    (4) Unbound System's Energy  [=(2)] =   -0.36 kcal/mol
DOCKED: USER    
DOCKED: USER    
DOCKED: USER    NEWDPF move ligand.pdbqt
DOCKED: USER    NEWDPF about 0.534000 -0.142000 0.039000
DOCKED: USER    NEWDPF tran0 23.800753 -16.380830 -1.328869
DOCKED: USER    NEWDPF quaternion0 -0.452983 0.381856 0.777638 0.210407
DOCKED: USER    NEWDPF axisangle0 -0.463355 0.390600 0.795445 155.707592
DOCKED: USER    NEWDPF quat0 -0.463355 0.390600 0.795445 155.707592
DOCKED: USER    NEWDPF dihe0 65.65 -39.82 120.82 71.55 
DOCKED: USER  keepresnum = 1 
DOCKED: USER  
DOCKED: REMARK  Name = 
DOCKED: REMARK  4 active torsions:
DOCKED: REMARK  status: ('A' for Active; 'I' for Inactive)
DOCKED: REMARK    1  A    between atoms: C_3  and  C_4
DOCKED: REMARK    2  A    between atoms: C_4  and  C_5
DOCKED: REMARK    3  A    between atoms: C_5  and  C_6
DOCKED: REMARK    4  A    between atoms: C_6  and  C_7
DOCKED: REMARK                            x       y       z     vdW  Elec       q    Type
DOCKED: REMARK                         _______ _______ _______ _____ _____    ______ ____
DOCKED: USER                              x       y       z     vdW  Elec       q    Type
DOCKED: USER                           _______ _______ _______ _____ _____    ______ ____
DOCKED: ROOT
DOCKED: ATOM      1  C   UNL     1      23.705 -17.373  -0.377 -0.65 -0.00    +0.000 C 
DOCKED: ENDROOT
DOCKED: BRANCH   1   2
DOCKED: ATOM      2  C   UNL     1      23.182 -18.706  -0.929 -0.82 -0.00    +0.000 C 
DOCKED: BRANCH   2   5
DOCKED: ATOM      3  O   UNL     1      19.654 -19.735  -1.835 -2.24 -0.00    +0.000 OA
DOCKED: ATOM      4  N   UNL     1      21.005 -19.720  -1.770 -0.69 -0.00    +0.000 N 
DOCKED: ATOM      5  C   UNL     1      21.682 -18.733  -0.987 -0.83 -0.00    +0.000 C 
DOCKED: ATOM      6  O   UNL     1      21.019 -17.861  -0.365 -1.95 +0.00    +0.000 OA
DOCKED: ATOM      7  H   UNL     1      21.527 -20.394  -2.264 -0.54 -0.00    +0.000 HD
DOCKED: ENDBRANCH   2   5
DOCKED: ENDBRANCH   1   2
DOCKED: BRANCH   1   8
DOCKED: ATOM      8  C   UNL     1      24.368 -16.513  -1.462 -0.54 -0.00    +0.000 C 
DOCKED: BRANCH   8   9
DOCKED: ATOM      9  C   UNL     1      25.866 -16.532  -1.308 -0.49 -0.00    +0.000 A 
DOCKED: ATOM     10  C   UNL     1      26.633 -15.421  -1.699 -0.34 -0.00    +0.000 A 
DOCKED: ATOM     11  C   UNL     1      28.026 -15.453  -1.585 -0.22 -0.00    +0.000 A 
DOCKED: ATOM     12  C   UNL     1      28.663 -16.595  -1.092 -0.27 -0.00    +0.000 A 
DOCKED: ATOM     13  C   UNL     1      27.907 -17.709  -0.714 -0.28 -0.00    +0.000 A 
DOCKED: ATOM     14  C   UNL     1      26.514 -17.682  -0.826 -0.50 -0.00    +0.000 A 
DOCKED: ENDBRANCH   8   9
DOCKED: ENDBRANCH   1   8
DOCKED: TORSDOF 4
DOCKED: TER
DOCKED: ENDMDL
________________________________________________________________________________


	BEGINNING GENETIC ALGORITHM DOCKING 53 of 100
Run: 53 Seed: 302941730 1071418715 [ Run 53 of 100 GA/GALS ]
Beginning LAMARCKIAN GENETIC ALGORITHM (LGA), with a maximum of 2500000 energy evaluations.

Final-Value: -10.746


	FINAL GENETIC ALGORITHM DOCKED STATE
	_______________________________________________


Detailed state:  trans 23.679 -18.197 -1.280 quatxyzw -0.044539 -0.320494 -0.876269 0.357005 center 0.534 -0.142 0.039 ntor 4 12.2391 179.6011 -28.3154 -62.8190
State:	 23.679 -18.197  -1.280  -0.048 -0.343 -0.938 138.167     12.24  179.60  -28.32  -62.82

DOCKED: MODEL       53
DOCKED: USER    Run = 53
DOCKED: USER    DPF = ligand_dock.biased.dpf
DOCKED: USER  
DOCKED: USER    Estimated Free Energy of Binding    =   -9.20 kcal/mol  [=(1)+(2)+(3)-(4)]
DOCKED: USER    Estimated Inhibition Constant, Ki   =  179.87 nM (nanomolar)  [Temperature = 298.15 K]
DOCKED: USER    
DOCKED: USER    (1) Final Intermolecular Energy     =  -10.40 kcal/mol
DOCKED: USER        vdW + Hbond + desolv Energy     =  -10.40 kcal/mol
DOCKED: USER        Electrostatic Energy            =   +0.00 kcal/mol
DOCKED: USER    (2) Final Total Internal Energy     =   -0.35 kcal/mol
DOCKED: USER    (3) Torsional Free Energy           =   +1.19 kcal/mol
DOCKED: USER    (4) Unbound System's Energy  [=(2)] =   -0.35 kcal/mol
DOCKED: USER    
DOCKED: USER    
DOCKED: USER    NEWDPF move ligand.pdbqt
DOCKED: USER    NEWDPF about 0.534000 -0.142000 0.039000
DOCKED: USER    NEWDPF tran0 23.679259 -18.196998 -1.279636
DOCKED: USER    NEWDPF quaternion0 -0.044539 -0.320494 -0.876269 0.357005
DOCKED: USER    NEWDPF axisangle0 -0.047681 -0.343103 -0.938087 138.167284
DOCKED: USER    NEWDPF quat0 -0.047681 -0.343103 -0.938087 138.167284
DOCKED: USER    NEWDPF dihe0 12.24 179.60 -28.32 -62.82 
DOCKED: USER  keepresnum = 1 
DOCKED: USER  
DOCKED: REMARK  Name = 
DOCKED: REMARK  4 active torsions:
DOCKED: REMARK  status: ('A' for Active; 'I' for Inactive)
DOCKED: REMARK    1  A    between atoms: C_3  and  C_4
DOCKED: REMARK    2  A    between atoms: C_4  and  C_5
DOCKED: REMARK    3  A    between atoms: C_5  and  C_6
DOCKED: REMARK    4  A    between atoms: C_6  and  C_7
DOCKED: REMARK                            x       y       z     vdW  Elec       q    Type
DOCKED: REMARK                         _______ _______ _______ _____ _____    ______ ____
DOCKED: USER                              x       y       z     vdW  Elec       q    Type
DOCKED: USER                           _______ _______ _______ _____ _____    ______ ____
DOCKED: ROOT
DOCKED: ATOM      1  C   UNL     1      22.708 -18.821  -0.527 -0.82 -0.00    +0.000 C 
DOCKED: ENDROOT
DOCKED: BRANCH   1   2
DOCKED: ATOM      2  C   UNL     1      21.309 -18.215  -0.705 -0.78 -0.00    +0.000 C 
DOCKED: BRANCH   2   5
DOCKED: ATOM      3  O   UNL     1      18.358 -20.465   0.042 -0.94 -0.00    +0.000 OA
DOCKED: ATOM      4  N   UNL     1      19.295 -19.497   0.173 -0.75 -0.00    +0.000 N 
DOCKED: ATOM      5  C   UNL     1      20.259 -19.277  -0.859 -0.89 -0.00    +0.000 C 
DOCKED: ATOM      6  O   UNL     1      20.248 -19.997  -1.893 -2.31 -0.00    +0.000 OA
DOCKED: ATOM      7  H   UNL     1      19.313 -18.940   0.985 -0.29 -0.00    +0.000 HD
DOCKED: ENDBRANCH   2   5
DOCKED: ENDBRANCH   1   2
DOCKED: BRANCH   1   8
DOCKED: ATOM      8  C   UNL     1      23.611 -18.569  -1.742 -0.66 -0.00    +0.000 C 
DOCKED: BRANCH   8   9
DOCKED: ATOM      9  C   UNL     1      24.834 -17.790  -1.339 -0.62 -0.00    +0.000 A 
DOCKED: ATOM     10  C   UNL     1      25.736 -18.321  -0.401 -0.59 -0.00    +0.000 A 
DOCKED: ATOM     11  C   UNL     1      26.855 -17.582  -0.003 -0.44 -0.00    +0.000 A 
DOCKED: ATOM     12  C   UNL     1      27.075 -16.307  -0.529 -0.38 -0.00    +0.000 A 
DOCKED: ATOM     13  C   UNL     1      26.175 -15.766  -1.453 -0.40 -0.00    +0.000 A 
DOCKED: ATOM     14  C   UNL     1      25.055 -16.501  -1.853 -0.53 -0.00    +0.000 A 
DOCKED: ENDBRANCH   8   9
DOCKED: ENDBRANCH   1   8
DOCKED: TORSDOF 4
DOCKED: TER
DOCKED: ENDMDL
________________________________________________________________________________


	BEGINNING GENETIC ALGORITHM DOCKING 54 of 100
Run: 54 Seed: 354320054 857674065 [ Run 54 of 100 GA/GALS ]
Beginning LAMARCKIAN GENETIC ALGORITHM (LGA), with a maximum of 2500000 energy evaluations.

Final-Value: -11.087


	FINAL GENETIC ALGORITHM DOCKED STATE
	_______________________________________________


Detailed state:  trans 23.993 -17.379 -1.952 quatxyzw 0.349713 -0.724449 -0.531900 -0.264494 center 0.534 -0.142 0.039 ntor 4 22.6796 -25.0290 -20.3256 35.8391
State:	 23.993 -17.379  -1.952   0.363 -0.751 -0.552 -149.326     22.68  -25.03  -20.33   35.84

DOCKED: MODEL       54
DOCKED: USER    Run = 54
DOCKED: USER    DPF = ligand_dock.biased.dpf
DOCKED: USER  
DOCKED: USER    Estimated Free Energy of Binding    =   -9.53 kcal/mol  [=(1)+(2)+(3)-(4)]
DOCKED: USER    Estimated Inhibition Constant, Ki   =  103.15 nM (nanomolar)  [Temperature = 298.15 K]
DOCKED: USER    
DOCKED: USER    (1) Final Intermolecular Energy     =  -10.72 kcal/mol
DOCKED: USER        vdW + Hbond + desolv Energy     =  -10.72 kcal/mol
DOCKED: USER        Electrostatic Energy            =   +0.00 kcal/mol
DOCKED: USER    (2) Final Total Internal Energy     =   -0.36 kcal/mol
DOCKED: USER    (3) Torsional Free Energy           =   +1.19 kcal/mol
DOCKED: USER    (4) Unbound System's Energy  [=(2)] =   -0.36 kcal/mol
DOCKED: USER    
DOCKED: USER    
DOCKED: USER    NEWDPF move ligand.pdbqt
DOCKED: USER    NEWDPF about 0.534000 -0.142000 0.039000
DOCKED: USER    NEWDPF tran0 23.992985 -17.378653 -1.952046
DOCKED: USER    NEWDPF quaternion0 0.349713 -0.724449 -0.531900 -0.264494
DOCKED: USER    NEWDPF axisangle0 0.362628 -0.751201 -0.551542 -149.326182
DOCKED: USER    NEWDPF quat0 0.362628 -0.751201 -0.551542 -149.326182
DOCKED: USER    NEWDPF dihe0 22.68 -25.03 -20.33 35.84 
DOCKED: USER  keepresnum = 1 
DOCKED: USER  
DOCKED: REMARK  Name = 
DOCKED: REMARK  4 active torsions:
DOCKED: REMARK  status: ('A' for Active; 'I' for Inactive)
DOCKED: REMARK    1  A    between atoms: C_3  and  C_4
DOCKED: REMARK    2  A    between atoms: C_4  and  C_5
DOCKED: REMARK    3  A    between atoms: C_5  and  C_6
DOCKED: REMARK    4  A    between atoms: C_6  and  C_7
DOCKED: REMARK                            x       y       z     vdW  Elec       q    Type
DOCKED: REMARK                         _______ _______ _______ _____ _____    ______ ____
DOCKED: USER                              x       y       z     vdW  Elec       q    Type
DOCKED: USER                           _______ _______ _______ _____ _____    ______ ____
DOCKED: ROOT
DOCKED: ATOM      1  C   UNL     1      23.590 -17.296  -0.637 -0.71 -0.00    +0.000 C 
DOCKED: ENDROOT
DOCKED: BRANCH   1   2
DOCKED: ATOM      2  C   UNL     1      22.788 -18.516  -0.163 -0.79 -0.00    +0.000 C 
DOCKED: BRANCH   2   5
DOCKED: ATOM      3  O   UNL     1      19.863 -19.784  -2.202 -2.28 -0.00    +0.000 OA
DOCKED: ATOM      4  N   UNL     1      21.072 -19.728  -1.597 -0.69 -0.00    +0.000 N 
DOCKED: ATOM      5  C   UNL     1      21.441 -18.586  -0.819 -0.84 -0.00    +0.000 C 
DOCKED: ATOM      6  O   UNL     1      20.642 -17.618  -0.707 -2.18 +0.00    +0.000 OA
DOCKED: ATOM      7  H   UNL     1      21.702 -20.479  -1.691 -0.37 -0.00    +0.000 HD
DOCKED: ENDBRANCH   2   5
DOCKED: ENDBRANCH   1   2
DOCKED: BRANCH   1   8
DOCKED: ATOM      8  C   UNL     1      24.517 -17.630  -1.813 -0.65 -0.00    +0.000 C 
DOCKED: BRANCH   8   9
DOCKED: ATOM      9  C   UNL     1      25.829 -16.905  -1.673 -0.50 -0.00    +0.000 A 
DOCKED: ATOM     10  C   UNL     1      26.732 -17.262  -0.657 -0.48 -0.00    +0.000 A 
DOCKED: ATOM     11  C   UNL     1      27.936 -16.567  -0.508 -0.32 -0.00    +0.000 A 
DOCKED: ATOM     12  C   UNL     1      28.242 -15.505  -1.364 -0.21 -0.00    +0.000 A 
DOCKED: ATOM     13  C   UNL     1      27.343 -15.135  -2.369 -0.26 -0.00    +0.000 A 
DOCKED: ATOM     14  C   UNL     1      26.138 -15.828  -2.521 -0.44 -0.00    +0.000 A 
DOCKED: ENDBRANCH   8   9
DOCKED: ENDBRANCH   1   8
DOCKED: TORSDOF 4
DOCKED: TER
DOCKED: ENDMDL
________________________________________________________________________________


	BEGINNING GENETIC ALGORITHM DOCKING 55 of 100
Run: 55 Seed: 1809539541 1137842018 [ Run 55 of 100 GA/GALS ]
Beginning LAMARCKIAN GENETIC ALGORITHM (LGA), with a maximum of 2500000 energy evaluations.

Final-Value: -11.375


	FINAL GENETIC ALGORITHM DOCKED STATE
	_______________________________________________


Detailed state:  trans 25.151 -18.940 -0.645 quatxyzw 0.305270 -0.685143 0.558707 -0.353886 center 0.534 -0.142 0.039 ntor 4 -48.0382 -118.2652 -117.7228 77.4324
State:	 25.151 -18.940  -0.645   0.326 -0.733  0.597 -138.550    -48.04 -118.27 -117.72   77.43

DOCKED: MODEL       55
DOCKED: USER    Run = 55
DOCKED: USER    DPF = ligand_dock.biased.dpf
DOCKED: USER  
DOCKED: USER    Estimated Free Energy of Binding    =   -9.77 kcal/mol  [=(1)+(2)+(3)-(4)]
DOCKED: USER    Estimated Inhibition Constant, Ki   =   68.65 nM (nanomolar)  [Temperature = 298.15 K]
DOCKED: USER    
DOCKED: USER    (1) Final Intermolecular Energy     =  -10.97 kcal/mol
DOCKED: USER        vdW + Hbond + desolv Energy     =  -10.97 kcal/mol
DOCKED: USER        Electrostatic Energy            =   +0.00 kcal/mol
DOCKED: USER    (2) Final Total Internal Energy     =   -0.41 kcal/mol
DOCKED: USER    (3) Torsional Free Energy           =   +1.19 kcal/mol
DOCKED: USER    (4) Unbound System's Energy  [=(2)] =   -0.41 kcal/mol
DOCKED: USER    
DOCKED: USER    
DOCKED: USER    NEWDPF move ligand.pdbqt
DOCKED: USER    NEWDPF about 0.534000 -0.142000 0.039000
DOCKED: USER    NEWDPF tran0 25.150943 -18.940187 -0.645127
DOCKED: USER    NEWDPF quaternion0 0.305270 -0.685143 0.558707 -0.353886
DOCKED: USER    NEWDPF axisangle0 0.326392 -0.732547 0.597363 -138.549627
DOCKED: USER    NEWDPF quat0 0.326392 -0.732547 0.597363 -138.549627
DOCKED: USER    NEWDPF dihe0 -48.04 -118.27 -117.72 77.43 
DOCKED: USER  keepresnum = 1 
DOCKED: USER  
DOCKED: REMARK  Name = 
DOCKED: REMARK  4 active torsions:
DOCKED: REMARK  status: ('A' for Active; 'I' for Inactive)
DOCKED: REMARK    1  A    between atoms: C_3  and  C_4
DOCKED: REMARK    2  A    between atoms: C_4  and  C_5
DOCKED: REMARK    3  A    between atoms: C_5  and  C_6
DOCKED: REMARK    4  A    between atoms: C_6  and  C_7
DOCKED: REMARK                            x       y       z     vdW  Elec       q    Type
DOCKED: REMARK                         _______ _______ _______ _____ _____    ______ ____
DOCKED: USER                              x       y       z     vdW  Elec       q    Type
DOCKED: USER                           _______ _______ _______ _____ _____    ______ ____
DOCKED: ROOT
DOCKED: ATOM      1  C   UNL     1      23.935 -18.653  -1.226 -0.75 -0.00    +0.000 C 
DOCKED: ENDROOT
DOCKED: BRANCH   1   2
DOCKED: ATOM      2  C   UNL     1      22.821 -18.366  -0.211 -0.81 -0.00    +0.000 C 
DOCKED: BRANCH   2   5
DOCKED: ATOM      3  O   UNL     1      19.885 -19.743  -2.162 -2.33 -0.00    +0.000 OA
DOCKED: ATOM      4  N   UNL     1      21.106 -19.644  -1.589 -0.70 -0.00    +0.000 N 
DOCKED: ATOM      5  C   UNL     1      21.459 -18.483  -0.831 -0.82 -0.00    +0.000 C 
DOCKED: ATOM      6  O   UNL     1      20.634 -17.540  -0.707 -2.12 +0.00    +0.000 OA
DOCKED: ATOM      7  H   UNL     1      21.757 -20.376  -1.693 -0.39 -0.00    +0.000 HD
DOCKED: ENDBRANCH   2   5
DOCKED: ENDBRANCH   1   2
DOCKED: BRANCH   1   8
DOCKED: ATOM      8  C   UNL     1      25.331 -18.370  -0.655 -0.66 -0.00    +0.000 C 
DOCKED: BRANCH   8   9
DOCKED: ATOM      9  C   UNL     1      25.830 -17.028  -1.121 -0.52 -0.00    +0.000 A 
DOCKED: ATOM     10  C   UNL     1      25.398 -16.498  -2.348 -0.50 -0.00    +0.000 A 
DOCKED: ATOM     11  C   UNL     1      25.887 -15.266  -2.794 -0.45 -0.00    +0.000 A 
DOCKED: ATOM     12  C   UNL     1      26.817 -14.562  -2.025 -0.26 -0.00    +0.000 A 
DOCKED: ATOM     13  C   UNL     1      27.262 -15.090  -0.809 -0.26 -0.00    +0.000 A 
DOCKED: ATOM     14  C   UNL     1      26.775 -16.321  -0.360 -0.39 -0.00    +0.000 A 
DOCKED: ENDBRANCH   8   9
DOCKED: ENDBRANCH   1   8
DOCKED: TORSDOF 4
DOCKED: TER
DOCKED: ENDMDL
________________________________________________________________________________


	BEGINNING GENETIC ALGORITHM DOCKING 56 of 100
Run: 56 Seed: 1567365830 1309440622 [ Run 56 of 100 GA/GALS ]
Beginning LAMARCKIAN GENETIC ALGORITHM (LGA), with a maximum of 2500000 energy evaluations.

Final-Value: -10.582


	FINAL GENETIC ALGORITHM DOCKED STATE
	_______________________________________________


Detailed state:  trans 23.438 -19.203 -1.259 quatxyzw -0.331589 0.888820 -0.102599 0.299201 center 0.534 -0.142 0.039 ntor 4 94.7825 -48.3567 63.9789 43.3940
State:	 23.438 -19.203  -1.259  -0.348  0.931 -0.108 145.181     94.78  -48.36   63.98   43.39

DOCKED: MODEL       56
DOCKED: USER    Run = 56
DOCKED: USER    DPF = ligand_dock.biased.dpf
DOCKED: USER  
DOCKED: USER    Estimated Free Energy of Binding    =   -9.06 kcal/mol  [=(1)+(2)+(3)-(4)]
DOCKED: USER    Estimated Inhibition Constant, Ki   =  229.01 nM (nanomolar)  [Temperature = 298.15 K]
DOCKED: USER    
DOCKED: USER    (1) Final Intermolecular Energy     =  -10.25 kcal/mol
DOCKED: USER        vdW + Hbond + desolv Energy     =  -10.25 kcal/mol
DOCKED: USER        Electrostatic Energy            =   +0.00 kcal/mol
DOCKED: USER    (2) Final Total Internal Energy     =   -0.33 kcal/mol
DOCKED: USER    (3) Torsional Free Energy           =   +1.19 kcal/mol
DOCKED: USER    (4) Unbound System's Energy  [=(2)] =   -0.33 kcal/mol
DOCKED: USER    
DOCKED: USER    
DOCKED: USER    NEWDPF move ligand.pdbqt
DOCKED: USER    NEWDPF about 0.534000 -0.142000 0.039000
DOCKED: USER    NEWDPF tran0 23.437613 -19.202598 -1.258545
DOCKED: USER    NEWDPF quaternion0 -0.331589 0.888820 -0.102599 0.299201
DOCKED: USER    NEWDPF axisangle0 -0.347508 0.931492 -0.107525 145.180751
DOCKED: USER    NEWDPF quat0 -0.347508 0.931492 -0.107525 145.180751
DOCKED: USER    NEWDPF dihe0 94.78 -48.36 63.98 43.39 
DOCKED: USER  keepresnum = 1 
DOCKED: USER  
DOCKED: REMARK  Name = 
DOCKED: REMARK  4 active torsions:
DOCKED: REMARK  status: ('A' for Active; 'I' for Inactive)
DOCKED: REMARK    1  A    between atoms: C_3  and  C_4
DOCKED: REMARK    2  A    between atoms: C_4  and  C_5
DOCKED: REMARK    3  A    between atoms: C_5  and  C_6
DOCKED: REMARK    4  A    between atoms: C_6  and  C_7
DOCKED: REMARK                            x       y       z     vdW  Elec       q    Type
DOCKED: REMARK                         _______ _______ _______ _____ _____    ______ ____
DOCKED: USER                              x       y       z     vdW  Elec       q    Type
DOCKED: USER                           _______ _______ _______ _____ _____    ______ ____
DOCKED: ROOT
DOCKED: ATOM      1  C   UNL     1      22.447 -18.260  -1.091 -0.79 -0.00    +0.000 C 
DOCKED: ENDROOT
DOCKED: BRANCH   1   2
DOCKED: ATOM      2  C   UNL     1      21.423 -18.630  -0.009 -0.73 -0.00    +0.000 C 
DOCKED: BRANCH   2   5
DOCKED: ATOM      3  O   UNL     1      18.005 -20.224  -0.324 -0.85 -0.00    +0.000 OA
DOCKED: ATOM      4  N   UNL     1      19.059 -19.550   0.189 -0.73 -0.00    +0.000 N 
DOCKED: ATOM      5  C   UNL     1      20.247 -19.363  -0.585 -0.90 -0.00    +0.000 C 
DOCKED: ATOM      6  O   UNL     1      20.319 -19.841  -1.749 -2.28 -0.00    +0.000 OA
DOCKED: ATOM      7  H   UNL     1      19.009 -19.184   1.102 -0.22 -0.00    +0.000 HD
DOCKED: ENDBRANCH   2   5
DOCKED: ENDBRANCH   1   2
DOCKED: BRANCH   1   8
DOCKED: ATOM      8  C   UNL     1      23.804 -18.940  -0.866 -0.75 -0.00    +0.000 C 
DOCKED: BRANCH   8   9
DOCKED: ATOM      9  C   UNL     1      24.925 -17.949  -1.027 -0.63 -0.00    +0.000 A 
DOCKED: ATOM     10  C   UNL     1      26.147 -18.145  -0.362 -0.58 -0.00    +0.000 A 
DOCKED: ATOM     11  C   UNL     1      27.176 -17.206  -0.488 -0.44 -0.00    +0.000 A 
DOCKED: ATOM     12  C   UNL     1      26.989 -16.063  -1.269 -0.36 -0.00    +0.000 A 
DOCKED: ATOM     13  C   UNL     1      25.771 -15.854  -1.923 -0.46 -0.00    +0.000 A 
DOCKED: ATOM     14  C   UNL     1      24.740 -16.790  -1.800 -0.56 -0.00    +0.000 A 
DOCKED: ENDBRANCH   8   9
DOCKED: ENDBRANCH   1   8
DOCKED: TORSDOF 4
DOCKED: TER
DOCKED: ENDMDL
________________________________________________________________________________


	BEGINNING GENETIC ALGORITHM DOCKING 57 of 100
Run: 57 Seed: 1310204814 1918783278 [ Run 57 of 100 GA/GALS ]
Beginning LAMARCKIAN GENETIC ALGORITHM (LGA), with a maximum of 2500000 energy evaluations.

Final-Value: -10.831


	FINAL GENETIC ALGORITHM DOCKED STATE
	_______________________________________________


Detailed state:  trans 24.796 -17.243 -1.010 quatxyzw -0.600531 0.500307 -0.622652 0.036874 center 0.534 -0.142 0.039 ntor 4 8.3579 177.2610 -15.5684 -26.6926
State:	 24.796 -17.243  -1.010  -0.601  0.501 -0.623 175.774      8.36  177.26  -15.57  -26.69

DOCKED: MODEL       57
DOCKED: USER    Run = 57
DOCKED: USER    DPF = ligand_dock.biased.dpf
DOCKED: USER  
DOCKED: USER    Estimated Free Energy of Binding    =   -9.30 kcal/mol  [=(1)+(2)+(3)-(4)]
DOCKED: USER    Estimated Inhibition Constant, Ki   =  152.92 nM (nanomolar)  [Temperature = 298.15 K]
DOCKED: USER    
DOCKED: USER    (1) Final Intermolecular Energy     =  -10.49 kcal/mol
DOCKED: USER        vdW + Hbond + desolv Energy     =  -10.49 kcal/mol
DOCKED: USER        Electrostatic Energy            =   +0.00 kcal/mol
DOCKED: USER    (2) Final Total Internal Energy     =   -0.34 kcal/mol
DOCKED: USER    (3) Torsional Free Energy           =   +1.19 kcal/mol
DOCKED: USER    (4) Unbound System's Energy  [=(2)] =   -0.34 kcal/mol
DOCKED: USER    
DOCKED: USER    
DOCKED: USER    NEWDPF move ligand.pdbqt
DOCKED: USER    NEWDPF about 0.534000 -0.142000 0.039000
DOCKED: USER    NEWDPF tran0 24.795934 -17.242637 -1.010186
DOCKED: USER    NEWDPF quaternion0 -0.600531 0.500307 -0.622652 0.036874
DOCKED: USER    NEWDPF axisangle0 -0.600940 0.500648 -0.623076 175.773543
DOCKED: USER    NEWDPF quat0 -0.600940 0.500648 -0.623076 175.773543
DOCKED: USER    NEWDPF dihe0 8.36 177.26 -15.57 -26.69 
DOCKED: USER  keepresnum = 1 
DOCKED: USER  
DOCKED: REMARK  Name = 
DOCKED: REMARK  4 active torsions:
DOCKED: REMARK  status: ('A' for Active; 'I' for Inactive)
DOCKED: REMARK    1  A    between atoms: C_3  and  C_4
DOCKED: REMARK    2  A    between atoms: C_4  and  C_5
DOCKED: REMARK    3  A    between atoms: C_5  and  C_6
DOCKED: REMARK    4  A    between atoms: C_6  and  C_7
DOCKED: REMARK                            x       y       z     vdW  Elec       q    Type
DOCKED: REMARK                         _______ _______ _______ _____ _____    ______ ____
DOCKED: USER                              x       y       z     vdW  Elec       q    Type
DOCKED: USER                           _______ _______ _______ _____ _____    ______ ____
DOCKED: ROOT
DOCKED: ATOM      1  C   UNL     1      23.835 -18.007  -1.636 -0.68 -0.00    +0.000 C 
DOCKED: ENDROOT
DOCKED: BRANCH   1   2
DOCKED: ATOM      2  C   UNL     1      22.995 -18.851  -0.668 -0.82 -0.00    +0.000 C 
DOCKED: BRANCH   2   5
DOCKED: ATOM      3  O   UNL     1      19.513 -19.734  -1.860 -2.13 -0.00    +0.000 OA
DOCKED: ATOM      4  N   UNL     1      20.831 -19.836  -1.575 -0.66 -0.00    +0.000 N 
DOCKED: ATOM      5  C   UNL     1      21.528 -18.744  -0.968 -0.83 -0.00    +0.000 C 
DOCKED: ATOM      6  O   UNL     1      20.915 -17.675  -0.708 -2.14 -0.00    +0.000 OA
DOCKED: ATOM      7  H   UNL     1      21.315 -20.667  -1.786 -0.27 -0.00    +0.000 HD
DOCKED: ENDBRANCH   2   5
DOCKED: ENDBRANCH   1   2
DOCKED: BRANCH   1   8
DOCKED: ATOM      8  C   UNL     1      24.436 -16.768  -0.958 -0.62 -0.00    +0.000 C 
DOCKED: BRANCH   8   9
DOCKED: ATOM      9  C   UNL     1      25.661 -16.303  -1.699 -0.49 -0.00    +0.000 A 
DOCKED: ATOM     10  C   UNL     1      25.536 -15.647  -2.935 -0.50 -0.00    +0.000 A 
DOCKED: ATOM     11  C   UNL     1      26.677 -15.244  -3.637 -0.43 -0.00    +0.000 A 
DOCKED: ATOM     12  C   UNL     1      27.948 -15.502  -3.116 -0.25 -0.00    +0.000 A 
DOCKED: ATOM     13  C   UNL     1      28.080 -16.166  -1.892 -0.27 -0.00    +0.000 A 
DOCKED: ATOM     14  C   UNL     1      26.942 -16.570  -1.187 -0.40 -0.00    +0.000 A 
DOCKED: ENDBRANCH   8   9
DOCKED: ENDBRANCH   1   8
DOCKED: TORSDOF 4
DOCKED: TER
DOCKED: ENDMDL
________________________________________________________________________________


	BEGINNING GENETIC ALGORITHM DOCKING 58 of 100
Run: 58 Seed: 1445975203 1449603596 [ Run 58 of 100 GA/GALS ]
Beginning LAMARCKIAN GENETIC ALGORITHM (LGA), with a maximum of 2500000 energy evaluations.

Final-Value: -10.275


	FINAL GENETIC ALGORITHM DOCKED STATE
	_______________________________________________


Detailed state:  trans 25.159 -18.152 0.084 quatxyzw 0.239502 0.081945 -0.879469 0.403062 center 0.534 -0.142 0.039 ntor 4 176.4665 -94.7764 -155.9964 175.8501
State:	 25.159 -18.152   0.084   0.262  0.090 -0.961 132.461    176.47  -94.78 -156.00  175.85

DOCKED: MODEL       58
DOCKED: USER    Run = 58
DOCKED: USER    DPF = ligand_dock.biased.dpf
DOCKED: USER  
DOCKED: USER    Estimated Free Energy of Binding    =   -8.93 kcal/mol  [=(1)+(2)+(3)-(4)]
DOCKED: USER    Estimated Inhibition Constant, Ki   =  282.77 nM (nanomolar)  [Temperature = 298.15 K]
DOCKED: USER    
DOCKED: USER    (1) Final Intermolecular Energy     =  -10.13 kcal/mol
DOCKED: USER        vdW + Hbond + desolv Energy     =  -10.13 kcal/mol
DOCKED: USER        Electrostatic Energy            =   +0.00 kcal/mol
DOCKED: USER    (2) Final Total Internal Energy     =   -0.15 kcal/mol
DOCKED: USER    (3) Torsional Free Energy           =   +1.19 kcal/mol
DOCKED: USER    (4) Unbound System's Energy  [=(2)] =   -0.15 kcal/mol
DOCKED: USER    
DOCKED: USER    
DOCKED: USER    NEWDPF move ligand.pdbqt
DOCKED: USER    NEWDPF about 0.534000 -0.142000 0.039000
DOCKED: USER    NEWDPF tran0 25.159420 -18.152394 0.084303
DOCKED: USER    NEWDPF quaternion0 0.239502 0.081945 -0.879469 0.403062
DOCKED: USER    NEWDPF axisangle0 0.261701 0.089540 -0.960987 132.460549
DOCKED: USER    NEWDPF quat0 0.261701 0.089540 -0.960987 132.460549
DOCKED: USER    NEWDPF dihe0 176.47 -94.78 -156.00 175.85 
DOCKED: USER  keepresnum = 1 
DOCKED: USER  
DOCKED: REMARK  Name = 
DOCKED: REMARK  4 active torsions:
DOCKED: REMARK  status: ('A' for Active; 'I' for Inactive)
DOCKED: REMARK    1  A    between atoms: C_3  and  C_4
DOCKED: REMARK    2  A    between atoms: C_4  and  C_5
DOCKED: REMARK    3  A    between atoms: C_5  and  C_6
DOCKED: REMARK    4  A    between atoms: C_6  and  C_7
DOCKED: REMARK                            x       y       z     vdW  Elec       q    Type
DOCKED: REMARK                         _______ _______ _______ _____ _____    ______ ____
DOCKED: USER                              x       y       z     vdW  Elec       q    Type
DOCKED: USER                           _______ _______ _______ _____ _____    ______ ____
DOCKED: ROOT
DOCKED: ATOM      1  C   UNL     1      24.152 -18.908  -0.475 -0.53 -0.00    +0.000 C 
DOCKED: ENDROOT
DOCKED: BRANCH   1   2
DOCKED: ATOM      2  C   UNL     1      23.186 -18.094  -1.347 -0.73 -0.00    +0.000 C 
DOCKED: BRANCH   2   5
DOCKED: ATOM      3  O   UNL     1      19.919 -19.979  -1.670 -2.16 -0.00    +0.000 OA
DOCKED: ATOM      4  N   UNL     1      21.209 -19.614  -1.852 -0.56 -0.00    +0.000 N 
DOCKED: ATOM      5  C   UNL     1      21.759 -18.509  -1.131 -0.72 -0.00    +0.000 C 
DOCKED: ATOM      6  O   UNL     1      21.036 -17.860  -0.329 -1.91 +0.00    +0.000 OA
DOCKED: ATOM      7  H   UNL     1      21.774 -20.114  -2.486 -0.62 -0.00    +0.000 HD
DOCKED: ENDBRANCH   2   5
DOCKED: ENDBRANCH   1   2
DOCKED: BRANCH   1   8
DOCKED: ATOM      8  C   UNL     1      25.535 -18.251  -0.370 -0.69 -0.00    +0.000 C 
DOCKED: BRANCH   8   9
DOCKED: ATOM      9  C   UNL     1      25.582 -16.986  -1.184 -0.54 -0.00    +0.000 A 
DOCKED: ATOM     10  C   UNL     1      25.488 -17.039  -2.585 -0.29 -0.00    +0.000 A 
DOCKED: ATOM     11  C   UNL     1      25.564 -15.865  -3.341 -0.47 -0.00    +0.000 A 
DOCKED: ATOM     12  C   UNL     1      25.744 -14.633  -2.706 -0.38 -0.00    +0.000 A 
DOCKED: ATOM     13  C   UNL     1      25.852 -14.573  -1.313 -0.25 -0.00    +0.000 A 
DOCKED: ATOM     14  C   UNL     1      25.777 -15.745  -0.553 -0.27 -0.00    +0.000 A 
DOCKED: ENDBRANCH   8   9
DOCKED: ENDBRANCH   1   8
DOCKED: TORSDOF 4
DOCKED: TER
DOCKED: ENDMDL
________________________________________________________________________________


	BEGINNING GENETIC ALGORITHM DOCKING 59 of 100
Run: 59 Seed: 1971994981 449520844 [ Run 59 of 100 GA/GALS ]
Beginning LAMARCKIAN GENETIC ALGORITHM (LGA), with a maximum of 2500000 energy evaluations.

Final-Value: -10.774


	FINAL GENETIC ALGORITHM DOCKED STATE
	_______________________________________________


Detailed state:  trans 25.324 -18.528 -0.286 quatxyzw 0.008254 -0.012278 0.838182 -0.545191 center 0.534 -0.142 0.039 ntor 4 -124.3436 -150.7400 -175.5532 -174.1221
State:	 25.324 -18.528  -0.286   0.010 -0.015  1.000 -113.925   -124.34 -150.74 -175.55 -174.12

DOCKED: MODEL       59
DOCKED: USER    Run = 59
DOCKED: USER    DPF = ligand_dock.biased.dpf
DOCKED: USER  
DOCKED: USER    Estimated Free Energy of Binding    =   -9.12 kcal/mol  [=(1)+(2)+(3)-(4)]
DOCKED: USER    Estimated Inhibition Constant, Ki   =  207.02 nM (nanomolar)  [Temperature = 298.15 K]
DOCKED: USER    
DOCKED: USER    (1) Final Intermolecular Energy     =  -10.31 kcal/mol
DOCKED: USER        vdW + Hbond + desolv Energy     =  -10.31 kcal/mol
DOCKED: USER        Electrostatic Energy            =   +0.00 kcal/mol
DOCKED: USER    (2) Final Total Internal Energy     =   -0.46 kcal/mol
DOCKED: USER    (3) Torsional Free Energy           =   +1.19 kcal/mol
DOCKED: USER    (4) Unbound System's Energy  [=(2)] =   -0.46 kcal/mol
DOCKED: USER    
DOCKED: USER    
DOCKED: USER    NEWDPF move ligand.pdbqt
DOCKED: USER    NEWDPF about 0.534000 -0.142000 0.039000
DOCKED: USER    NEWDPF tran0 25.323698 -18.527925 -0.286024
DOCKED: USER    NEWDPF quaternion0 0.008254 -0.012278 0.838182 -0.545191
DOCKED: USER    NEWDPF axisangle0 0.009846 -0.014646 0.999844 -113.924627
DOCKED: USER    NEWDPF quat0 0.009846 -0.014646 0.999844 -113.924627
DOCKED: USER    NEWDPF dihe0 -124.34 -150.74 -175.55 -174.12 
DOCKED: USER  keepresnum = 1 
DOCKED: USER  
DOCKED: REMARK  Name = 
DOCKED: REMARK  4 active torsions:
DOCKED: REMARK  status: ('A' for Active; 'I' for Inactive)
DOCKED: REMARK    1  A    between atoms: C_3  and  C_4
DOCKED: REMARK    2  A    between atoms: C_4  and  C_5
DOCKED: REMARK    3  A    between atoms: C_5  and  C_6
DOCKED: REMARK    4  A    between atoms: C_6  and  C_7
DOCKED: REMARK                            x       y       z     vdW  Elec       q    Type
DOCKED: REMARK                         _______ _______ _______ _____ _____    ______ ____
DOCKED: USER                              x       y       z     vdW  Elec       q    Type
DOCKED: USER                           _______ _______ _______ _____ _____    ______ ____
DOCKED: ROOT
DOCKED: ATOM      1  C   UNL     1      23.997 -18.898  -0.330 -0.52 -0.00    +0.000 C 
DOCKED: ENDROOT
DOCKED: BRANCH   1   2
DOCKED: ATOM      2  C   UNL     1      23.037 -17.720  -0.544 -0.78 -0.00    +0.000 C 
DOCKED: BRANCH   2   5
DOCKED: ATOM      3  O   UNL     1      20.253 -19.856  -1.962 -2.33 -0.00    +0.000 OA
DOCKED: ATOM      4  N   UNL     1      21.487 -19.443  -1.594 -0.66 -0.00    +0.000 N 
DOCKED: ATOM      5  C   UNL     1      21.665 -18.186  -0.936 -0.75 -0.00    +0.000 C 
DOCKED: ATOM      6  O   UNL     1      20.668 -17.450  -0.709 -2.03 +0.00    +0.000 OA
DOCKED: ATOM      7  H   UNL     1      22.270 -20.012  -1.780 -0.43 -0.00    +0.000 HD
DOCKED: ENDBRANCH   2   5
DOCKED: ENDBRANCH   1   2
DOCKED: BRANCH   1   8
DOCKED: ATOM      8  C   UNL     1      25.403 -18.610  -0.873 -0.45 -0.00    +0.000 C 
DOCKED: BRANCH   8   9
DOCKED: ATOM      9  C   UNL     1      25.526 -17.166  -1.280 -0.55 -0.00    +0.000 A 
DOCKED: ATOM     10  C   UNL     1      25.133 -16.755  -2.565 -0.45 -0.00    +0.000 A 
DOCKED: ATOM     11  C   UNL     1      25.277 -15.419  -2.952 -0.44 -0.00    +0.000 A 
DOCKED: ATOM     12  C   UNL     1      25.824 -14.488  -2.065 -0.27 -0.00    +0.000 A 
DOCKED: ATOM     13  C   UNL     1      26.230 -14.891  -0.790 -0.32 -0.00    +0.000 A 
DOCKED: ATOM     14  C   UNL     1      26.087 -16.226  -0.398 -0.34 -0.00    +0.000 A 
DOCKED: ENDBRANCH   8   9
DOCKED: ENDBRANCH   1   8
DOCKED: TORSDOF 4
DOCKED: TER
DOCKED: ENDMDL
________________________________________________________________________________


	BEGINNING GENETIC ALGORITHM DOCKING 60 of 100
Run: 60 Seed: 1747953837 440411841 [ Run 60 of 100 GA/GALS ]
Beginning LAMARCKIAN GENETIC ALGORITHM (LGA), with a maximum of 2500000 energy evaluations.

Final-Value: -10.635


	FINAL GENETIC ALGORITHM DOCKED STATE
	_______________________________________________


Detailed state:  trans 23.641 -16.763 -0.807 quatxyzw 0.240031 -0.134791 -0.921648 -0.273461 center 0.534 -0.142 0.039 ntor 4 66.1440 2.1400 69.8984 63.1984
State:	 23.641 -16.763  -0.807   0.250 -0.140 -0.958 -148.259     66.14    2.14   69.90   63.20

DOCKED: MODEL       60
DOCKED: USER    Run = 60
DOCKED: USER    DPF = ligand_dock.biased.dpf
DOCKED: USER  
DOCKED: USER    Estimated Free Energy of Binding    =   -9.04 kcal/mol  [=(1)+(2)+(3)-(4)]
DOCKED: USER    Estimated Inhibition Constant, Ki   =  234.61 nM (nanomolar)  [Temperature = 298.15 K]
DOCKED: USER    
DOCKED: USER    (1) Final Intermolecular Energy     =  -10.24 kcal/mol
DOCKED: USER        vdW + Hbond + desolv Energy     =  -10.24 kcal/mol
DOCKED: USER        Electrostatic Energy            =   +0.00 kcal/mol
DOCKED: USER    (2) Final Total Internal Energy     =   -0.40 kcal/mol
DOCKED: USER    (3) Torsional Free Energy           =   +1.19 kcal/mol
DOCKED: USER    (4) Unbound System's Energy  [=(2)] =   -0.40 kcal/mol
DOCKED: USER    
DOCKED: USER    
DOCKED: USER    NEWDPF move ligand.pdbqt
DOCKED: USER    NEWDPF about 0.534000 -0.142000 0.039000
DOCKED: USER    NEWDPF tran0 23.641460 -16.763354 -0.806735
DOCKED: USER    NEWDPF quaternion0 0.240031 -0.134791 -0.921648 -0.273461
DOCKED: USER    NEWDPF axisangle0 0.249543 -0.140132 -0.958171 -148.259309
DOCKED: USER    NEWDPF quat0 0.249543 -0.140132 -0.958171 -148.259309
DOCKED: USER    NEWDPF dihe0 66.14 2.14 69.90 63.20 
DOCKED: USER  keepresnum = 1 
DOCKED: USER  
DOCKED: REMARK  Name = 
DOCKED: REMARK  4 active torsions:
DOCKED: REMARK  status: ('A' for Active; 'I' for Inactive)
DOCKED: REMARK    1  A    between atoms: C_3  and  C_4
DOCKED: REMARK    2  A    between atoms: C_4  and  C_5
DOCKED: REMARK    3  A    between atoms: C_5  and  C_6
DOCKED: REMARK    4  A    between atoms: C_6  and  C_7
DOCKED: REMARK                            x       y       z     vdW  Elec       q    Type
DOCKED: REMARK                         _______ _______ _______ _____ _____    ______ ____
DOCKED: USER                              x       y       z     vdW  Elec       q    Type
DOCKED: USER                           _______ _______ _______ _____ _____    ______ ____
DOCKED: ROOT
DOCKED: ATOM      1  C   UNL     1      24.112 -17.990  -0.391 -0.75 -0.00    +0.000 C 
DOCKED: ENDROOT
DOCKED: BRANCH   1   2
DOCKED: ATOM      2  C   UNL     1      23.344 -19.177  -0.988 -0.76 -0.00    +0.000 C 
DOCKED: BRANCH   2   5
DOCKED: ATOM      3  O   UNL     1      19.670 -19.514  -1.828 -2.00 -0.00    +0.000 OA
DOCKED: ATOM      4  N   UNL     1      21.002 -19.746  -1.801 -0.67 -0.00    +0.000 N 
DOCKED: ATOM      5  C   UNL     1      21.864 -18.931  -1.003 -0.84 -0.00    +0.000 C 
DOCKED: ATOM      6  O   UNL     1      21.383 -17.980  -0.330 -1.66 -0.00    +0.000 OA
DOCKED: ATOM      7  H   UNL     1      21.382 -20.482  -2.335 -0.54 -0.00    +0.000 HD
DOCKED: ENDBRANCH   2   5
DOCKED: ENDBRANCH   1   2
DOCKED: BRANCH   1   8
DOCKED: ATOM      8  C   UNL     1      24.019 -16.735  -1.269 -0.59 -0.00    +0.000 C 
DOCKED: BRANCH   8   9
DOCKED: ATOM      9  C   UNL     1      25.370 -16.384  -1.833 -0.52 -0.00    +0.000 A 
DOCKED: ATOM     10  C   UNL     1      25.472 -15.571  -2.975 -0.49 -0.00    +0.000 A 
DOCKED: ATOM     11  C   UNL     1      26.727 -15.272  -3.516 -0.41 -0.00    +0.000 A 
DOCKED: ATOM     12  C   UNL     1      27.884 -15.790  -2.929 -0.26 -0.00    +0.000 A 
DOCKED: ATOM     13  C   UNL     1      27.790 -16.610  -1.800 -0.31 -0.00    +0.000 A 
DOCKED: ATOM     14  C   UNL     1      26.537 -16.912  -1.256 -0.45 -0.00    +0.000 A 
DOCKED: ENDBRANCH   8   9
DOCKED: ENDBRANCH   1   8
DOCKED: TORSDOF 4
DOCKED: TER
DOCKED: ENDMDL
________________________________________________________________________________


	BEGINNING GENETIC ALGORITHM DOCKING 61 of 100
Run: 61 Seed: 338812809 657052651 [ Run 61 of 100 GA/GALS ]
Beginning LAMARCKIAN GENETIC ALGORITHM (LGA), with a maximum of 2500000 energy evaluations.

Final-Value: -11.189


	FINAL GENETIC ALGORITHM DOCKED STATE
	_______________________________________________


Detailed state:  trans 24.360 -17.174 -0.988 quatxyzw 0.358147 0.052830 0.923503 -0.126813 center 0.534 -0.142 0.039 ntor 4 -32.8923 134.2848 74.1520 -33.5301
State:	 24.360 -17.174  -0.988   0.361  0.053  0.931 -165.429    -32.89  134.28   74.15  -33.53

DOCKED: MODEL       61
DOCKED: USER    Run = 61
DOCKED: USER    DPF = ligand_dock.biased.dpf
DOCKED: USER  
DOCKED: USER    Estimated Free Energy of Binding    =   -9.59 kcal/mol  [=(1)+(2)+(3)-(4)]
DOCKED: USER    Estimated Inhibition Constant, Ki   =   92.96 nM (nanomolar)  [Temperature = 298.15 K]
DOCKED: USER    
DOCKED: USER    (1) Final Intermolecular Energy     =  -10.79 kcal/mol
DOCKED: USER        vdW + Hbond + desolv Energy     =  -10.79 kcal/mol
DOCKED: USER        Electrostatic Energy            =   +0.00 kcal/mol
DOCKED: USER    (2) Final Total Internal Energy     =   -0.40 kcal/mol
DOCKED: USER    (3) Torsional Free Energy           =   +1.19 kcal/mol
DOCKED: USER    (4) Unbound System's Energy  [=(2)] =   -0.40 kcal/mol
DOCKED: USER    
DOCKED: USER    
DOCKED: USER    NEWDPF move ligand.pdbqt
DOCKED: USER    NEWDPF about 0.534000 -0.142000 0.039000
DOCKED: USER    NEWDPF tran0 24.360001 -17.173576 -0.987798
DOCKED: USER    NEWDPF quaternion0 0.358147 0.052830 0.923503 -0.126813
DOCKED: USER    NEWDPF axisangle0 0.361062 0.053260 0.931020 -165.429049
DOCKED: USER    NEWDPF quat0 0.361062 0.053260 0.931020 -165.429049
DOCKED: USER    NEWDPF dihe0 -32.89 134.28 74.15 -33.53 
DOCKED: USER  keepresnum = 1 
DOCKED: USER  
DOCKED: REMARK  Name = 
DOCKED: REMARK  4 active torsions:
DOCKED: REMARK  status: ('A' for Active; 'I' for Inactive)
DOCKED: REMARK    1  A    between atoms: C_3  and  C_4
DOCKED: REMARK    2  A    between atoms: C_4  and  C_5
DOCKED: REMARK    3  A    between atoms: C_5  and  C_6
DOCKED: REMARK    4  A    between atoms: C_6  and  C_7
DOCKED: REMARK                            x       y       z     vdW  Elec       q    Type
DOCKED: REMARK                         _______ _______ _______ _____ _____    ______ ____
DOCKED: USER                              x       y       z     vdW  Elec       q    Type
DOCKED: USER                           _______ _______ _______ _____ _____    ______ ____
DOCKED: ROOT
DOCKED: ATOM      1  C   UNL     1      23.929 -18.431  -0.628 -0.80 -0.00    +0.000 C 
DOCKED: ENDROOT
DOCKED: BRANCH   1   2
DOCKED: ATOM      2  C   UNL     1      22.643 -18.424   0.211 -0.66 -0.00    +0.000 C 
DOCKED: BRANCH   2   5
DOCKED: ATOM      3  O   UNL     1      20.054 -19.740  -2.216 -2.31 -0.00    +0.000 OA
DOCKED: ATOM      4  N   UNL     1      21.150 -19.675  -1.426 -0.71 -0.00    +0.000 N 
DOCKED: ATOM      5  C   UNL     1      21.417 -18.503  -0.651 -0.84 -0.00    +0.000 C 
DOCKED: ATOM      6  O   UNL     1      20.634 -17.518  -0.713 -2.11 +0.00    +0.000 OA
DOCKED: ATOM      7  H   UNL     1      21.770 -20.440  -1.384 -0.27 -0.00    +0.000 HD
DOCKED: ENDBRANCH   2   5
DOCKED: ENDBRANCH   1   2
DOCKED: BRANCH   1   8
DOCKED: ATOM      8  C   UNL     1      24.060 -17.179  -1.505 -0.66 -0.00    +0.000 C 
DOCKED: BRANCH   8   9
DOCKED: ATOM      9  C   UNL     1      25.509 -16.826  -1.707 -0.53 -0.00    +0.000 A 
DOCKED: ATOM     10  C   UNL     1      25.888 -15.945  -2.734 -0.47 -0.00    +0.000 A 
DOCKED: ATOM     11  C   UNL     1      27.238 -15.643  -2.940 -0.31 -0.00    +0.000 A 
DOCKED: ATOM     12  C   UNL     1      28.218 -16.226  -2.133 -0.26 -0.00    +0.000 A 
DOCKED: ATOM     13  C   UNL     1      27.850 -17.116  -1.118 -0.36 -0.00    +0.000 A 
DOCKED: ATOM     14  C   UNL     1      26.501 -17.419  -0.908 -0.50 -0.00    +0.000 A 
DOCKED: ENDBRANCH   8   9
DOCKED: ENDBRANCH   1   8
DOCKED: TORSDOF 4
DOCKED: TER
DOCKED: ENDMDL
________________________________________________________________________________


	BEGINNING GENETIC ALGORITHM DOCKING 62 of 100
Run: 62 Seed: 926901289 717246215 [ Run 62 of 100 GA/GALS ]
Beginning LAMARCKIAN GENETIC ALGORITHM (LGA), with a maximum of 2500000 energy evaluations.

Final-Value: -11.206


	FINAL GENETIC ALGORITHM DOCKED STATE
	_______________________________________________


Detailed state:  trans 25.003 -17.468 -0.404 quatxyzw -0.587824 0.596563 0.501287 -0.217455 center 0.534 -0.142 0.039 ntor 4 89.3629 -112.0345 -91.9554 -98.2278
State:	 25.003 -17.468  -0.404  -0.602  0.611  0.514 -154.881     89.36 -112.03  -91.96  -98.23

DOCKED: MODEL       62
DOCKED: USER    Run = 62
DOCKED: USER    DPF = ligand_dock.biased.dpf
DOCKED: USER  
DOCKED: USER    Estimated Free Energy of Binding    =   -9.63 kcal/mol  [=(1)+(2)+(3)-(4)]
DOCKED: USER    Estimated Inhibition Constant, Ki   =   87.30 nM (nanomolar)  [Temperature = 298.15 K]
DOCKED: USER    
DOCKED: USER    (1) Final Intermolecular Energy     =  -10.82 kcal/mol
DOCKED: USER        vdW + Hbond + desolv Energy     =  -10.82 kcal/mol
DOCKED: USER        Electrostatic Energy            =   +0.00 kcal/mol
DOCKED: USER    (2) Final Total Internal Energy     =   -0.38 kcal/mol
DOCKED: USER    (3) Torsional Free Energy           =   +1.19 kcal/mol
DOCKED: USER    (4) Unbound System's Energy  [=(2)] =   -0.38 kcal/mol
DOCKED: USER    
DOCKED: USER    
DOCKED: USER    NEWDPF move ligand.pdbqt
DOCKED: USER    NEWDPF about 0.534000 -0.142000 0.039000
DOCKED: USER    NEWDPF tran0 25.002930 -17.468467 -0.404032
DOCKED: USER    NEWDPF quaternion0 -0.587824 0.596563 0.501287 -0.217455
DOCKED: USER    NEWDPF axisangle0 -0.602236 0.611188 0.513577 -154.880758
DOCKED: USER    NEWDPF quat0 -0.602236 0.611188 0.513577 -154.880758
DOCKED: USER    NEWDPF dihe0 89.36 -112.03 -91.96 -98.23 
DOCKED: USER  keepresnum = 1 
DOCKED: USER  
DOCKED: REMARK  Name = 
DOCKED: REMARK  4 active torsions:
DOCKED: REMARK  status: ('A' for Active; 'I' for Inactive)
DOCKED: REMARK    1  A    between atoms: C_3  and  C_4
DOCKED: REMARK    2  A    between atoms: C_4  and  C_5
DOCKED: REMARK    3  A    between atoms: C_5  and  C_6
DOCKED: REMARK    4  A    between atoms: C_6  and  C_7
DOCKED: REMARK                            x       y       z     vdW  Elec       q    Type
DOCKED: REMARK                         _______ _______ _______ _____ _____    ______ ____
DOCKED: USER                              x       y       z     vdW  Elec       q    Type
DOCKED: USER                           _______ _______ _______ _____ _____    ______ ____
DOCKED: ROOT
DOCKED: ATOM      1  C   UNL     1      23.719 -17.857  -0.092 -0.68 -0.00    +0.000 C 
DOCKED: ENDROOT
DOCKED: BRANCH   1   2
DOCKED: ATOM      2  C   UNL     1      23.117 -18.853  -1.093 -0.81 -0.00    +0.000 C 
DOCKED: BRANCH   2   5
DOCKED: ATOM      3  O   UNL     1      19.510 -19.733  -1.826 -2.14 -0.00    +0.000 OA
DOCKED: ATOM      4  N   UNL     1      20.862 -19.778  -1.821 -0.67 -0.00    +0.000 N 
DOCKED: ATOM      5  C   UNL     1      21.617 -18.813  -1.084 -0.82 -0.00    +0.000 C 
DOCKED: ATOM      6  O   UNL     1      21.022 -17.905  -0.445 -1.99 -0.00    +0.000 OA
DOCKED: ATOM      7  H   UNL     1      21.330 -20.481  -2.328 -0.53 -0.00    +0.000 HD
DOCKED: ENDBRANCH   2   5
DOCKED: ENDBRANCH   1   2
DOCKED: BRANCH   1   8
DOCKED: ATOM      8  C   UNL     1      25.252 -17.901  -0.076 -0.64 -0.00    +0.000 C 
DOCKED: BRANCH   8   9
DOCKED: ATOM      9  C   UNL     1      25.817 -17.027  -1.163 -0.52 -0.00    +0.000 A 
DOCKED: ATOM     10  C   UNL     1      24.959 -16.354  -2.050 -0.50 -0.00    +0.000 A 
DOCKED: ATOM     11  C   UNL     1      25.486 -15.568  -3.079 -0.49 -0.00    +0.000 A 
DOCKED: ATOM     12  C   UNL     1      26.870 -15.456  -3.237 -0.37 -0.00    +0.000 A 
DOCKED: ATOM     13  C   UNL     1      27.730 -16.133  -2.367 -0.28 -0.00    +0.000 A 
DOCKED: ATOM     14  C   UNL     1      27.207 -16.920  -1.336 -0.39 -0.00    +0.000 A 
DOCKED: ENDBRANCH   8   9
DOCKED: ENDBRANCH   1   8
DOCKED: TORSDOF 4
DOCKED: TER
DOCKED: ENDMDL
________________________________________________________________________________


	BEGINNING GENETIC ALGORITHM DOCKING 63 of 100
Run: 63 Seed: 599543763 1056145199 [ Run 63 of 100 GA/GALS ]
Beginning LAMARCKIAN GENETIC ALGORITHM (LGA), with a maximum of 2500000 energy evaluations.

Final-Value: -11.102


	FINAL GENETIC ALGORITHM DOCKED STATE
	_______________________________________________


Detailed state:  trans 24.466 -17.068 -0.997 quatxyzw 0.402968 -0.145293 0.883911 -0.187637 center 0.534 -0.142 0.039 ntor 4 -52.4613 173.2343 -123.2375 -39.3603
State:	 24.466 -17.068  -0.997   0.410 -0.148  0.900 -158.370    -52.46  173.23 -123.24  -39.36

DOCKED: MODEL       63
DOCKED: USER    Run = 63
DOCKED: USER    DPF = ligand_dock.biased.dpf
DOCKED: USER  
DOCKED: USER    Estimated Free Energy of Binding    =   -9.55 kcal/mol  [=(1)+(2)+(3)-(4)]
DOCKED: USER    Estimated Inhibition Constant, Ki   =  100.60 nM (nanomolar)  [Temperature = 298.15 K]
DOCKED: USER    
DOCKED: USER    (1) Final Intermolecular Energy     =  -10.74 kcal/mol
DOCKED: USER        vdW + Hbond + desolv Energy     =  -10.74 kcal/mol
DOCKED: USER        Electrostatic Energy            =   +0.00 kcal/mol
DOCKED: USER    (2) Final Total Internal Energy     =   -0.36 kcal/mol
DOCKED: USER    (3) Torsional Free Energy           =   +1.19 kcal/mol
DOCKED: USER    (4) Unbound System's Energy  [=(2)] =   -0.36 kcal/mol
DOCKED: USER    
DOCKED: USER    
DOCKED: USER    NEWDPF move ligand.pdbqt
DOCKED: USER    NEWDPF about 0.534000 -0.142000 0.039000
DOCKED: USER    NEWDPF tran0 24.466391 -17.068125 -0.997015
DOCKED: USER    NEWDPF quaternion0 0.402968 -0.145293 0.883911 -0.187637
DOCKED: USER    NEWDPF axisangle0 0.410254 -0.147921 0.899895 -158.370217
DOCKED: USER    NEWDPF quat0 0.410254 -0.147921 0.899895 -158.370217
DOCKED: USER    NEWDPF dihe0 -52.46 173.23 -123.24 -39.36 
DOCKED: USER  keepresnum = 1 
DOCKED: USER  
DOCKED: REMARK  Name = 
DOCKED: REMARK  4 active torsions:
DOCKED: REMARK  status: ('A' for Active; 'I' for Inactive)
DOCKED: REMARK    1  A    between atoms: C_3  and  C_4
DOCKED: REMARK    2  A    between atoms: C_4  and  C_5
DOCKED: REMARK    3  A    between atoms: C_5  and  C_6
DOCKED: REMARK    4  A    between atoms: C_6  and  C_7
DOCKED: REMARK                            x       y       z     vdW  Elec       q    Type
DOCKED: REMARK                         _______ _______ _______ _____ _____    ______ ____
DOCKED: USER                              x       y       z     vdW  Elec       q    Type
DOCKED: USER                           _______ _______ _______ _____ _____    ______ ____
DOCKED: ROOT
DOCKED: ATOM      1  C   UNL     1      23.713 -18.221  -1.011 -0.80 -0.00    +0.000 C 
DOCKED: ENDROOT
DOCKED: BRANCH   1   2
DOCKED: ATOM      2  C   UNL     1      22.485 -18.164  -0.091 -0.79 -0.00    +0.000 C 
DOCKED: BRANCH   2   5
DOCKED: ATOM      3  O   UNL     1      20.093 -20.092  -2.301 -2.15 -0.00    +0.000 OA
DOCKED: ATOM      4  N   UNL     1      21.217 -19.735  -1.639 -0.61 -0.00    +0.000 N 
DOCKED: ATOM      5  C   UNL     1      21.232 -18.569  -0.811 -0.83 -0.00    +0.000 C 
DOCKED: ATOM      6  O   UNL     1      20.196 -17.860  -0.707 -2.15 +0.00    +0.000 OA
DOCKED: ATOM      7  H   UNL     1      22.032 -20.282  -1.727 -0.41 -0.00    +0.000 HD
DOCKED: ENDBRANCH   2   5
DOCKED: ENDBRANCH   1   2
DOCKED: BRANCH   1   8
DOCKED: ATOM      8  C   UNL     1      24.171 -16.827  -1.458 -0.62 -0.00    +0.000 C 
DOCKED: BRANCH   8   9
DOCKED: ATOM      9  C   UNL     1      25.673 -16.767  -1.542 -0.52 -0.00    +0.000 A 
DOCKED: ATOM     10  C   UNL     1      26.464 -17.506  -0.645 -0.52 -0.00    +0.000 A 
DOCKED: ATOM     11  C   UNL     1      27.859 -17.424  -0.705 -0.36 -0.00    +0.000 A 
DOCKED: ATOM     12  C   UNL     1      28.473 -16.598  -1.651 -0.28 -0.00    +0.000 A 
DOCKED: ATOM     13  C   UNL     1      27.692 -15.850  -2.537 -0.27 -0.00    +0.000 A 
DOCKED: ATOM     14  C   UNL     1      26.297 -15.929  -2.481 -0.42 -0.00    +0.000 A 
DOCKED: ENDBRANCH   8   9
DOCKED: ENDBRANCH   1   8
DOCKED: TORSDOF 4
DOCKED: TER
DOCKED: ENDMDL
________________________________________________________________________________


	BEGINNING GENETIC ALGORITHM DOCKING 64 of 100
Run: 64 Seed: 1485342893 1039996566 [ Run 64 of 100 GA/GALS ]
Beginning LAMARCKIAN GENETIC ALGORITHM (LGA), with a maximum of 2500000 energy evaluations.

Final-Value: -11.027


	FINAL GENETIC ALGORITHM DOCKED STATE
	_______________________________________________


Detailed state:  trans 25.134 -17.906 -0.314 quatxyzw 0.445782 -0.593470 0.644705 -0.182829 center 0.534 -0.142 0.039 ntor 4 -13.8789 -150.8970 -74.2675 28.0354
State:	 25.134 -17.906  -0.314   0.453 -0.604  0.656 -158.931    -13.88 -150.90  -74.27   28.04

DOCKED: MODEL       64
DOCKED: USER    Run = 64
DOCKED: USER    DPF = ligand_dock.biased.dpf
DOCKED: USER  
DOCKED: USER    Estimated Free Energy of Binding    =   -9.46 kcal/mol  [=(1)+(2)+(3)-(4)]
DOCKED: USER    Estimated Inhibition Constant, Ki   =  116.99 nM (nanomolar)  [Temperature = 298.15 K]
DOCKED: USER    
DOCKED: USER    (1) Final Intermolecular Energy     =  -10.65 kcal/mol
DOCKED: USER        vdW + Hbond + desolv Energy     =  -10.65 kcal/mol
DOCKED: USER        Electrostatic Energy            =   +0.00 kcal/mol
DOCKED: USER    (2) Final Total Internal Energy     =   -0.38 kcal/mol
DOCKED: USER    (3) Torsional Free Energy           =   +1.19 kcal/mol
DOCKED: USER    (4) Unbound System's Energy  [=(2)] =   -0.38 kcal/mol
DOCKED: USER    
DOCKED: USER    
DOCKED: USER    NEWDPF move ligand.pdbqt
DOCKED: USER    NEWDPF about 0.534000 -0.142000 0.039000
DOCKED: USER    NEWDPF tran0 25.133916 -17.905715 -0.313953
DOCKED: USER    NEWDPF quaternion0 0.445782 -0.593470 0.644705 -0.182829
DOCKED: USER    NEWDPF axisangle0 0.453425 -0.603644 0.655758 -158.930816
DOCKED: USER    NEWDPF quat0 0.453425 -0.603644 0.655758 -158.930816
DOCKED: USER    NEWDPF dihe0 -13.88 -150.90 -74.27 28.04 
DOCKED: USER  keepresnum = 1 
DOCKED: USER  
DOCKED: REMARK  Name = 
DOCKED: REMARK  4 active torsions:
DOCKED: REMARK  status: ('A' for Active; 'I' for Inactive)
DOCKED: REMARK    1  A    between atoms: C_3  and  C_4
DOCKED: REMARK    2  A    between atoms: C_4  and  C_5
DOCKED: REMARK    3  A    between atoms: C_5  and  C_6
DOCKED: REMARK    4  A    between atoms: C_6  and  C_7
DOCKED: REMARK                            x       y       z     vdW  Elec       q    Type
DOCKED: REMARK                         _______ _______ _______ _____ _____    ______ ____
DOCKED: USER                              x       y       z     vdW  Elec       q    Type
DOCKED: USER                           _______ _______ _______ _____ _____    ______ ____
DOCKED: ROOT
DOCKED: ATOM      1  C   UNL     1      23.973 -18.244  -0.975 -0.80 -0.00    +0.000 C 
DOCKED: ENDROOT
DOCKED: BRANCH   1   2
DOCKED: ATOM      2  C   UNL     1      22.794 -18.533  -0.036 -0.77 -0.00    +0.000 C 
DOCKED: BRANCH   2   5
DOCKED: ATOM      3  O   UNL     1      19.870 -19.735  -2.117 -2.33 -0.00    +0.000 OA
DOCKED: ATOM      4  N   UNL     1      21.040 -19.729  -1.438 -0.74 -0.00    +0.000 N 
DOCKED: ATOM      5  C   UNL     1      21.487 -18.544  -0.773 -0.85 -0.00    +0.000 C 
DOCKED: ATOM      6  O   UNL     1      20.793 -17.494  -0.829 -2.07 -0.00    +0.000 OA
DOCKED: ATOM      7  H   UNL     1      21.589 -20.546  -1.402 -0.19 -0.00    +0.000 HD
DOCKED: ENDBRANCH   2   5
DOCKED: ENDBRANCH   1   2
DOCKED: BRANCH   1   8
DOCKED: ATOM      8  C   UNL     1      25.016 -17.320  -0.332 -0.58 -0.00    +0.000 C 
DOCKED: BRANCH   8   9
DOCKED: ATOM      9  C   UNL     1      25.691 -16.477  -1.380 -0.50 -0.00    +0.000 A 
DOCKED: ATOM     10  C   UNL     1      25.134 -16.361  -2.665 -0.42 -0.00    +0.000 A 
DOCKED: ATOM     11  C   UNL     1      25.780 -15.603  -3.647 -0.51 -0.00    +0.000 A 
DOCKED: ATOM     12  C   UNL     1      26.989 -14.965  -3.357 -0.34 -0.00    +0.000 A 
DOCKED: ATOM     13  C   UNL     1      27.556 -15.086  -2.085 -0.23 -0.00    +0.000 A 
DOCKED: ATOM     14  C   UNL     1      26.914 -15.843  -1.100 -0.35 -0.00    +0.000 A 
DOCKED: ENDBRANCH   8   9
DOCKED: ENDBRANCH   1   8
DOCKED: TORSDOF 4
DOCKED: TER
DOCKED: ENDMDL
________________________________________________________________________________


	BEGINNING GENETIC ALGORITHM DOCKING 65 of 100
Run: 65 Seed: 141168472 878903359 [ Run 65 of 100 GA/GALS ]
Beginning LAMARCKIAN GENETIC ALGORITHM (LGA), with a maximum of 2500000 energy evaluations.

Final-Value: -11.172


	FINAL GENETIC ALGORITHM DOCKED STATE
	_______________________________________________


Detailed state:  trans 24.038 -17.528 -1.978 quatxyzw -0.335562 0.748484 0.508010 0.262861 center 0.534 -0.142 0.039 ntor 4 18.7313 -25.1904 169.8063 14.4470
State:	 24.038 -17.528  -1.978  -0.348  0.776  0.527 149.520     18.73  -25.19  169.81   14.45

DOCKED: MODEL       65
DOCKED: USER    Run = 65
DOCKED: USER    DPF = ligand_dock.biased.dpf
DOCKED: USER  
DOCKED: USER    Estimated Free Energy of Binding    =   -9.62 kcal/mol  [=(1)+(2)+(3)-(4)]
DOCKED: USER    Estimated Inhibition Constant, Ki   =   89.36 nM (nanomolar)  [Temperature = 298.15 K]
DOCKED: USER    
DOCKED: USER    (1) Final Intermolecular Energy     =  -10.81 kcal/mol
DOCKED: USER        vdW + Hbond + desolv Energy     =  -10.81 kcal/mol
DOCKED: USER        Electrostatic Energy            =   +0.00 kcal/mol
DOCKED: USER    (2) Final Total Internal Energy     =   -0.36 kcal/mol
DOCKED: USER    (3) Torsional Free Energy           =   +1.19 kcal/mol
DOCKED: USER    (4) Unbound System's Energy  [=(2)] =   -0.36 kcal/mol
DOCKED: USER    
DOCKED: USER    
DOCKED: USER    NEWDPF move ligand.pdbqt
DOCKED: USER    NEWDPF about 0.534000 -0.142000 0.039000
DOCKED: USER    NEWDPF tran0 24.038069 -17.528019 -1.977976
DOCKED: USER    NEWDPF quaternion0 -0.335562 0.748484 0.508010 0.262861
DOCKED: USER    NEWDPF axisangle0 -0.347792 0.775765 0.526526 149.520248
DOCKED: USER    NEWDPF quat0 -0.347792 0.775765 0.526526 149.520248
DOCKED: USER    NEWDPF dihe0 18.73 -25.19 169.81 14.45 
DOCKED: USER  keepresnum = 1 
DOCKED: USER  
DOCKED: REMARK  Name = 
DOCKED: REMARK  4 active torsions:
DOCKED: REMARK  status: ('A' for Active; 'I' for Inactive)
DOCKED: REMARK    1  A    between atoms: C_3  and  C_4
DOCKED: REMARK    2  A    between atoms: C_4  and  C_5
DOCKED: REMARK    3  A    between atoms: C_5  and  C_6
DOCKED: REMARK    4  A    between atoms: C_6  and  C_7
DOCKED: REMARK                            x       y       z     vdW  Elec       q    Type
DOCKED: REMARK                         _______ _______ _______ _____ _____    ______ ____
DOCKED: USER                              x       y       z     vdW  Elec       q    Type
DOCKED: USER                           _______ _______ _______ _____ _____    ______ ____
DOCKED: ROOT
DOCKED: ATOM      1  C   UNL     1      23.616 -17.348  -0.679 -0.73 -0.00    +0.000 C 
DOCKED: ENDROOT
DOCKED: BRANCH   1   2
DOCKED: ATOM      2  C   UNL     1      22.775 -18.512  -0.138 -0.79 -0.00    +0.000 C 
DOCKED: BRANCH   2   5
DOCKED: ATOM      3  O   UNL     1      19.877 -19.796  -2.207 -2.29 -0.00    +0.000 OA
DOCKED: ATOM      4  N   UNL     1      21.078 -19.734  -1.588 -0.69 -0.00    +0.000 N 
DOCKED: ATOM      5  C   UNL     1      21.435 -18.588  -0.810 -0.84 -0.00    +0.000 C 
DOCKED: ATOM      6  O   UNL     1      20.632 -17.622  -0.710 -2.18 +0.00    +0.000 OA
DOCKED: ATOM      7  H   UNL     1      21.712 -20.484  -1.673 -0.36 -0.00    +0.000 HD
DOCKED: ENDBRANCH   2   5
DOCKED: ENDBRANCH   1   2
DOCKED: BRANCH   1   8
DOCKED: ATOM      8  C   UNL     1      24.553 -17.783  -1.813 -0.64 -0.00    +0.000 C 
DOCKED: BRANCH   8   9
DOCKED: ATOM      9  C   UNL     1      25.636 -16.759  -2.026 -0.50 -0.00    +0.000 A 
DOCKED: ATOM     10  C   UNL     1      25.542 -15.835  -3.080 -0.49 -0.00    +0.000 A 
DOCKED: ATOM     11  C   UNL     1      26.564 -14.906  -3.296 -0.39 -0.00    +0.000 A 
DOCKED: ATOM     12  C   UNL     1      27.690 -14.899  -2.469 -0.21 -0.00    +0.000 A 
DOCKED: ATOM     13  C   UNL     1      27.798 -15.824  -1.426 -0.27 -0.00    +0.000 A 
DOCKED: ATOM     14  C   UNL     1      26.778 -16.755  -1.207 -0.43 -0.00    +0.000 A 
DOCKED: ENDBRANCH   8   9
DOCKED: ENDBRANCH   1   8
DOCKED: TORSDOF 4
DOCKED: TER
DOCKED: ENDMDL
________________________________________________________________________________


	BEGINNING GENETIC ALGORITHM DOCKING 66 of 100
Run: 66 Seed: 1130490937 973124497 [ Run 66 of 100 GA/GALS ]
Beginning LAMARCKIAN GENETIC ALGORITHM (LGA), with a maximum of 2500000 energy evaluations.

Final-Value: -10.843


	FINAL GENETIC ALGORITHM DOCKED STATE
	_______________________________________________


Detailed state:  trans 25.064 -17.098 -1.301 quatxyzw 0.687120 -0.690169 0.224589 -0.033044 center 0.534 -0.142 0.039 ntor 4 14.7073 -148.0898 -46.0374 -46.5594
State:	 25.064 -17.098  -1.301   0.687 -0.691  0.225 -176.213     14.71 -148.09  -46.04  -46.56

DOCKED: MODEL       66
DOCKED: USER    Run = 66
DOCKED: USER    DPF = ligand_dock.biased.dpf
DOCKED: USER  
DOCKED: USER    Estimated Free Energy of Binding    =   -9.32 kcal/mol  [=(1)+(2)+(3)-(4)]
DOCKED: USER    Estimated Inhibition Constant, Ki   =  146.15 nM (nanomolar)  [Temperature = 298.15 K]
DOCKED: USER    
DOCKED: USER    (1) Final Intermolecular Energy     =  -10.52 kcal/mol
DOCKED: USER        vdW + Hbond + desolv Energy     =  -10.52 kcal/mol
DOCKED: USER        Electrostatic Energy            =   +0.00 kcal/mol
DOCKED: USER    (2) Final Total Internal Energy     =   -0.32 kcal/mol
DOCKED: USER    (3) Torsional Free Energy           =   +1.19 kcal/mol
DOCKED: USER    (4) Unbound System's Energy  [=(2)] =   -0.32 kcal/mol
DOCKED: USER    
DOCKED: USER    
DOCKED: USER    NEWDPF move ligand.pdbqt
DOCKED: USER    NEWDPF about 0.534000 -0.142000 0.039000
DOCKED: USER    NEWDPF tran0 25.063709 -17.098415 -1.300656
DOCKED: USER    NEWDPF quaternion0 0.687120 -0.690169 0.224589 -0.033044
DOCKED: USER    NEWDPF axisangle0 0.687496 -0.690546 0.224712 -176.212771
DOCKED: USER    NEWDPF quat0 0.687496 -0.690546 0.224712 -176.212771
DOCKED: USER    NEWDPF dihe0 14.71 -148.09 -46.04 -46.56 
DOCKED: USER  keepresnum = 1 
DOCKED: USER  
DOCKED: REMARK  Name = 
DOCKED: REMARK  4 active torsions:
DOCKED: REMARK  status: ('A' for Active; 'I' for Inactive)
DOCKED: REMARK    1  A    between atoms: C_3  and  C_4
DOCKED: REMARK    2  A    between atoms: C_4  and  C_5
DOCKED: REMARK    3  A    between atoms: C_5  and  C_6
DOCKED: REMARK    4  A    between atoms: C_6  and  C_7
DOCKED: REMARK                            x       y       z     vdW  Elec       q    Type
DOCKED: REMARK                         _______ _______ _______ _____ _____    ______ ____
DOCKED: USER                              x       y       z     vdW  Elec       q    Type
DOCKED: USER                           _______ _______ _______ _____ _____    ______ ____
DOCKED: ROOT
DOCKED: ATOM      1  C   UNL     1      23.731 -17.333  -1.561 -0.57 -0.00    +0.000 C 
DOCKED: ENDROOT
DOCKED: BRANCH   1   2
DOCKED: ATOM      2  C   UNL     1      23.199 -18.626  -0.927 -0.82 -0.00    +0.000 C 
DOCKED: BRANCH   2   5
DOCKED: ATOM      3  O   UNL     1      19.704 -19.737  -1.862 -2.26 -0.00    +0.000 OA
DOCKED: ATOM      4  N   UNL     1      21.054 -19.682  -1.796 -0.66 -0.00    +0.000 N 
DOCKED: ATOM      5  C   UNL     1      21.701 -18.698  -0.985 -0.83 -0.00    +0.000 C 
DOCKED: ATOM      6  O   UNL     1      21.011 -17.866  -0.337 -1.94 +0.00    +0.000 OA
DOCKED: ATOM      7  H   UNL     1      21.596 -20.325  -2.310 -0.56 -0.00    +0.000 HD
DOCKED: ENDBRANCH   2   5
DOCKED: ENDBRANCH   1   2
DOCKED: BRANCH   1   8
DOCKED: ATOM      8  C   UNL     1      24.948 -16.775  -0.812 -0.60 -0.00    +0.000 C 
DOCKED: BRANCH   8   9
DOCKED: ATOM      9  C   UNL     1      26.008 -16.328  -1.784 -0.46 -0.00    +0.000 A 
DOCKED: ATOM     10  C   UNL     1      25.655 -15.601  -2.933 -0.49 -0.00    +0.000 A 
DOCKED: ATOM     11  C   UNL     1      26.637 -15.215  -3.851 -0.45 -0.00    +0.000 A 
DOCKED: ATOM     12  C   UNL     1      27.973 -15.562  -3.635 -0.28 -0.00    +0.000 A 
DOCKED: ATOM     13  C   UNL     1      28.330 -16.298  -2.501 -0.25 -0.00    +0.000 A 
DOCKED: ATOM     14  C   UNL     1      27.351 -16.685  -1.580 -0.36 -0.00    +0.000 A 
DOCKED: ENDBRANCH   8   9
DOCKED: ENDBRANCH   1   8
DOCKED: TORSDOF 4
DOCKED: TER
DOCKED: ENDMDL
________________________________________________________________________________


	BEGINNING GENETIC ALGORITHM DOCKING 67 of 100
Run: 67 Seed: 895373818 66675158 [ Run 67 of 100 GA/GALS ]
Beginning LAMARCKIAN GENETIC ALGORITHM (LGA), with a maximum of 2500000 energy evaluations.

Final-Value: -10.855


	FINAL GENETIC ALGORITHM DOCKED STATE
	_______________________________________________


Detailed state:  trans 24.950 -17.512 -0.773 quatxyzw 0.594436 -0.671783 -0.435227 0.077010 center 0.534 -0.142 0.039 ntor 4 77.7488 -93.3554 30.3903 -65.2423
State:	 24.950 -17.512  -0.773   0.596 -0.674 -0.437 171.167     77.75  -93.36   30.39  -65.24

DOCKED: MODEL       67
DOCKED: USER    Run = 67
DOCKED: USER    DPF = ligand_dock.biased.dpf
DOCKED: USER  
DOCKED: USER    Estimated Free Energy of Binding    =   -9.27 kcal/mol  [=(1)+(2)+(3)-(4)]
DOCKED: USER    Estimated Inhibition Constant, Ki   =  159.07 nM (nanomolar)  [Temperature = 298.15 K]
DOCKED: USER    
DOCKED: USER    (1) Final Intermolecular Energy     =  -10.47 kcal/mol
DOCKED: USER        vdW + Hbond + desolv Energy     =  -10.47 kcal/mol
DOCKED: USER        Electrostatic Energy            =   +0.00 kcal/mol
DOCKED: USER    (2) Final Total Internal Energy     =   -0.39 kcal/mol
DOCKED: USER    (3) Torsional Free Energy           =   +1.19 kcal/mol
DOCKED: USER    (4) Unbound System's Energy  [=(2)] =   -0.39 kcal/mol
DOCKED: USER    
DOCKED: USER    
DOCKED: USER    NEWDPF move ligand.pdbqt
DOCKED: USER    NEWDPF about 0.534000 -0.142000 0.039000
DOCKED: USER    NEWDPF tran0 24.950170 -17.511678 -0.772507
DOCKED: USER    NEWDPF quaternion0 0.594436 -0.671783 -0.435227 0.077010
DOCKED: USER    NEWDPF axisangle0 0.596206 -0.673784 -0.436524 171.166565
DOCKED: USER    NEWDPF quat0 0.596206 -0.673784 -0.436524 171.166565
DOCKED: USER    NEWDPF dihe0 77.75 -93.36 30.39 -65.24 
DOCKED: USER  keepresnum = 1 
DOCKED: USER  
DOCKED: REMARK  Name = 
DOCKED: REMARK  4 active torsions:
DOCKED: REMARK  status: ('A' for Active; 'I' for Inactive)
DOCKED: REMARK    1  A    between atoms: C_3  and  C_4
DOCKED: REMARK    2  A    between atoms: C_4  and  C_5
DOCKED: REMARK    3  A    between atoms: C_5  and  C_6
DOCKED: REMARK    4  A    between atoms: C_6  and  C_7
DOCKED: REMARK                            x       y       z     vdW  Elec       q    Type
DOCKED: REMARK                         _______ _______ _______ _____ _____    ______ ____
DOCKED: USER                              x       y       z     vdW  Elec       q    Type
DOCKED: USER                           _______ _______ _______ _____ _____    ______ ____
DOCKED: ROOT
DOCKED: ATOM      1  C   UNL     1      23.729 -17.796  -0.202 -0.69 -0.00    +0.000 C 
DOCKED: ENDROOT
DOCKED: BRANCH   1   2
DOCKED: ATOM      2  C   UNL     1      23.072 -19.067  -0.759 -0.80 -0.00    +0.000 C 
DOCKED: BRANCH   2   5
DOCKED: ATOM      3  O   UNL     1      19.504 -19.734  -1.831 -2.14 -0.00    +0.000 OA
DOCKED: ATOM      4  N   UNL     1      20.824 -19.915  -1.596 -0.58 -0.00    +0.000 N 
DOCKED: ATOM      5  C   UNL     1      21.604 -18.873  -1.002 -0.84 -0.00    +0.000 C 
DOCKED: ATOM      6  O   UNL     1      21.063 -17.774  -0.707 -2.09 -0.00    +0.000 OA
DOCKED: ATOM      7  H   UNL     1      21.252 -20.769  -1.836 -0.23 -0.00    +0.000 HD
DOCKED: ENDBRANCH   2   5
DOCKED: ENDBRANCH   1   2
DOCKED: BRANCH   1   8
DOCKED: ATOM      8  C   UNL     1      25.255 -17.814  -0.357 -0.69 -0.00    +0.000 C 
DOCKED: BRANCH   8   9
DOCKED: ATOM      9  C   UNL     1      25.709 -16.686  -1.245 -0.51 -0.00    +0.000 A 
DOCKED: ATOM     10  C   UNL     1      26.589 -15.707  -0.754 -0.36 -0.00    +0.000 A 
DOCKED: ATOM     11  C   UNL     1      26.984 -14.643  -1.571 -0.25 -0.00    +0.000 A 
DOCKED: ATOM     12  C   UNL     1      26.497 -14.543  -2.877 -0.33 -0.00    +0.000 A 
DOCKED: ATOM     13  C   UNL     1      25.610 -15.507  -3.368 -0.50 -0.00    +0.000 A 
DOCKED: ATOM     14  C   UNL     1      25.213 -16.573  -2.554 -0.46 -0.00    +0.000 A 
DOCKED: ENDBRANCH   8   9
DOCKED: ENDBRANCH   1   8
DOCKED: TORSDOF 4
DOCKED: TER
DOCKED: ENDMDL
________________________________________________________________________________


	BEGINNING GENETIC ALGORITHM DOCKING 68 of 100
Run: 68 Seed: 348765621 1221624849 [ Run 68 of 100 GA/GALS ]
Beginning LAMARCKIAN GENETIC ALGORITHM (LGA), with a maximum of 2500000 energy evaluations.

Final-Value: -10.989


	FINAL GENETIC ALGORITHM DOCKED STATE
	_______________________________________________


Detailed state:  trans 25.054 -17.281 -1.277 quatxyzw -0.658682 0.744261 0.103677 -0.038265 center 0.534 -0.142 0.039 ntor 4 45.2213 -132.0923 -81.9662 -53.6151
State:	 25.054 -17.281  -1.277  -0.659  0.745  0.104 -175.614     45.22 -132.09  -81.97  -53.62

DOCKED: MODEL       68
DOCKED: USER    Run = 68
DOCKED: USER    DPF = ligand_dock.biased.dpf
DOCKED: USER  
DOCKED: USER    Estimated Free Energy of Binding    =   -9.47 kcal/mol  [=(1)+(2)+(3)-(4)]
DOCKED: USER    Estimated Inhibition Constant, Ki   =  114.65 nM (nanomolar)  [Temperature = 298.15 K]
DOCKED: USER    
DOCKED: USER    (1) Final Intermolecular Energy     =  -10.66 kcal/mol
DOCKED: USER        vdW + Hbond + desolv Energy     =  -10.66 kcal/mol
DOCKED: USER        Electrostatic Energy            =   +0.00 kcal/mol
DOCKED: USER    (2) Final Total Internal Energy     =   -0.33 kcal/mol
DOCKED: USER    (3) Torsional Free Energy           =   +1.19 kcal/mol
DOCKED: USER    (4) Unbound System's Energy  [=(2)] =   -0.33 kcal/mol
DOCKED: USER    
DOCKED: USER    
DOCKED: USER    NEWDPF move ligand.pdbqt
DOCKED: USER    NEWDPF about 0.534000 -0.142000 0.039000
DOCKED: USER    NEWDPF tran0 25.053848 -17.280653 -1.276583
DOCKED: USER    NEWDPF quaternion0 -0.658682 0.744261 0.103677 -0.038265
DOCKED: USER    NEWDPF axisangle0 -0.659165 0.744807 0.103753 -175.614119
DOCKED: USER    NEWDPF quat0 -0.659165 0.744807 0.103753 -175.614119
DOCKED: USER    NEWDPF dihe0 45.22 -132.09 -81.97 -53.62 
DOCKED: USER  keepresnum = 1 
DOCKED: USER  
DOCKED: REMARK  Name = 
DOCKED: REMARK  4 active torsions:
DOCKED: REMARK  status: ('A' for Active; 'I' for Inactive)
DOCKED: REMARK    1  A    between atoms: C_3  and  C_4
DOCKED: REMARK    2  A    between atoms: C_4  and  C_5
DOCKED: REMARK    3  A    between atoms: C_5  and  C_6
DOCKED: REMARK    4  A    between atoms: C_6  and  C_7
DOCKED: REMARK                            x       y       z     vdW  Elec       q    Type
DOCKED: REMARK                         _______ _______ _______ _____ _____    ______ ____
DOCKED: USER                              x       y       z     vdW  Elec       q    Type
DOCKED: USER                           _______ _______ _______ _____ _____    ______ ____
DOCKED: ROOT
DOCKED: ATOM      1  C   UNL     1      23.684 -17.329  -1.140 -0.71 -0.00    +0.000 C 
DOCKED: ENDROOT
DOCKED: BRANCH   1   2
DOCKED: ATOM      2  C   UNL     1      23.116 -18.755  -1.138 -0.81 -0.00    +0.000 C 
DOCKED: BRANCH   2   5
DOCKED: ATOM      3  O   UNL     1      19.514 -19.733  -1.766 -2.14 -0.00    +0.000 OA
DOCKED: ATOM      4  N   UNL     1      20.867 -19.741  -1.801 -0.72 -0.00    +0.000 N 
DOCKED: ATOM      5  C   UNL     1      21.617 -18.757  -1.084 -0.82 -0.00    +0.000 C 
DOCKED: ATOM      6  O   UNL     1      21.016 -17.867  -0.426 -1.99 +0.00    +0.000 OA
DOCKED: ATOM      7  H   UNL     1      21.339 -20.430  -2.323 -0.53 -0.00    +0.000 HD
DOCKED: ENDBRANCH   2   5
DOCKED: ENDBRANCH   1   2
DOCKED: BRANCH   1   8
DOCKED: ATOM      8  C   UNL     1      25.149 -17.284  -0.686 -0.65 -0.00    +0.000 C 
DOCKED: BRANCH   8   9
DOCKED: ATOM      9  C   UNL     1      25.984 -16.513  -1.674 -0.48 -0.00    +0.000 A 
DOCKED: ATOM     10  C   UNL     1      25.372 -15.823  -2.734 -0.46 -0.00    +0.000 A 
DOCKED: ATOM     11  C   UNL     1      26.152 -15.134  -3.668 -0.49 -0.00    +0.000 A 
DOCKED: ATOM     12  C   UNL     1      27.544 -15.138  -3.558 -0.30 -0.00    +0.000 A 
DOCKED: ATOM     13  C   UNL     1      28.161 -15.834  -2.513 -0.24 -0.00    +0.000 A 
DOCKED: ATOM     14  C   UNL     1      27.385 -16.524  -1.576 -0.35 -0.00    +0.000 A 
DOCKED: ENDBRANCH   8   9
DOCKED: ENDBRANCH   1   8
DOCKED: TORSDOF 4
DOCKED: TER
DOCKED: ENDMDL
________________________________________________________________________________


	BEGINNING GENETIC ALGORITHM DOCKING 69 of 100
Run: 69 Seed: 1727684072 114469707 [ Run 69 of 100 GA/GALS ]
Beginning LAMARCKIAN GENETIC ALGORITHM (LGA), with a maximum of 2500000 energy evaluations.

Final-Value: -10.373


	FINAL GENETIC ALGORITHM DOCKED STATE
	_______________________________________________


Detailed state:  trans 23.354 -17.266 -0.203 quatxyzw 0.172640 0.050341 -0.976060 -0.122344 center 0.534 -0.142 0.039 ntor 4 171.2668 -8.1097 -133.7533 55.7297
State:	 23.354 -17.266  -0.203   0.174  0.051 -0.983 -165.945    171.27   -8.11 -133.75   55.73

DOCKED: MODEL       69
DOCKED: USER    Run = 69
DOCKED: USER    DPF = ligand_dock.biased.dpf
DOCKED: USER  
DOCKED: USER    Estimated Free Energy of Binding    =   -8.79 kcal/mol  [=(1)+(2)+(3)-(4)]
DOCKED: USER    Estimated Inhibition Constant, Ki   =  362.76 nM (nanomolar)  [Temperature = 298.15 K]
DOCKED: USER    
DOCKED: USER    (1) Final Intermolecular Energy     =   -9.98 kcal/mol
DOCKED: USER        vdW + Hbond + desolv Energy     =   -9.98 kcal/mol
DOCKED: USER        Electrostatic Energy            =   +0.00 kcal/mol
DOCKED: USER    (2) Final Total Internal Energy     =   -0.39 kcal/mol
DOCKED: USER    (3) Torsional Free Energy           =   +1.19 kcal/mol
DOCKED: USER    (4) Unbound System's Energy  [=(2)] =   -0.39 kcal/mol
DOCKED: USER    
DOCKED: USER    
DOCKED: USER    NEWDPF move ligand.pdbqt
DOCKED: USER    NEWDPF about 0.534000 -0.142000 0.039000
DOCKED: USER    NEWDPF tran0 23.353767 -17.265719 -0.202761
DOCKED: USER    NEWDPF quaternion0 0.172640 0.050341 -0.976060 -0.122344
DOCKED: USER    NEWDPF axisangle0 0.173947 0.050722 -0.983448 -165.945158
DOCKED: USER    NEWDPF quat0 0.173947 0.050722 -0.983448 -165.945158
DOCKED: USER    NEWDPF dihe0 171.27 -8.11 -133.75 55.73 
DOCKED: USER  keepresnum = 1 
DOCKED: USER  
DOCKED: REMARK  Name = 
DOCKED: REMARK  4 active torsions:
DOCKED: REMARK  status: ('A' for Active; 'I' for Inactive)
DOCKED: REMARK    1  A    between atoms: C_3  and  C_4
DOCKED: REMARK    2  A    between atoms: C_4  and  C_5
DOCKED: REMARK    3  A    between atoms: C_5  and  C_6
DOCKED: REMARK    4  A    between atoms: C_6  and  C_7
DOCKED: REMARK                            x       y       z     vdW  Elec       q    Type
DOCKED: REMARK                         _______ _______ _______ _____ _____    ______ ____
DOCKED: USER                              x       y       z     vdW  Elec       q    Type
DOCKED: USER                           _______ _______ _______ _____ _____    ______ ____
DOCKED: ROOT
DOCKED: ATOM      1  C   UNL     1      23.534 -18.620  -0.380 -0.79 -0.00    +0.000 C 
DOCKED: ENDROOT
DOCKED: BRANCH   1   2
DOCKED: ATOM      2  C   UNL     1      22.389 -19.297  -1.146 -0.71 -0.00    +0.000 C 
DOCKED: BRANCH   2   5
DOCKED: ATOM      3  O   UNL     1      19.289 -19.545   1.012 -0.76 -0.00    +0.000 OA
DOCKED: ATOM      4  N   UNL     1      20.501 -19.821   0.478 -0.70 -0.00    +0.000 N 
DOCKED: ATOM      5  C   UNL     1      21.052 -18.981  -0.540 -0.87 -0.00    +0.000 C 
DOCKED: ATOM      6  O   UNL     1      20.401 -17.985  -0.953 -2.19 -0.00    +0.000 OA
DOCKED: ATOM      7  H   UNL     1      21.008 -20.605   0.792 -0.59 -0.00    +0.000 HD
DOCKED: ENDBRANCH   2   5
DOCKED: ENDBRANCH   1   2
DOCKED: BRANCH   1   8
DOCKED: ATOM      8  C   UNL     1      23.647 -17.125  -0.704 -0.70 -0.00    +0.000 C 
DOCKED: BRANCH   8   9
DOCKED: ATOM      9  C   UNL     1      25.009 -16.807  -1.261 -0.56 -0.00    +0.000 A 
DOCKED: ATOM     10  C   UNL     1      26.162 -17.344  -0.664 -0.53 -0.00    +0.000 A 
DOCKED: ATOM     11  C   UNL     1      27.428 -17.021  -1.163 -0.39 -0.00    +0.000 A 
DOCKED: ATOM     12  C   UNL     1      27.553 -16.154  -2.251 -0.29 -0.00    +0.000 A 
DOCKED: ATOM     13  C   UNL     1      26.410 -15.605  -2.842 -0.41 -0.00    +0.000 A 
DOCKED: ATOM     14  C   UNL     1      25.142 -15.925  -2.346 -0.47 -0.00    +0.000 A 
DOCKED: ENDBRANCH   8   9
DOCKED: ENDBRANCH   1   8
DOCKED: TORSDOF 4
DOCKED: TER
DOCKED: ENDMDL
________________________________________________________________________________


	BEGINNING GENETIC ALGORITHM DOCKING 70 of 100
Run: 70 Seed: 2081609082 1172251108 [ Run 70 of 100 GA/GALS ]
Beginning LAMARCKIAN GENETIC ALGORITHM (LGA), with a maximum of 2500000 energy evaluations.

Final-Value: -11.129


	FINAL GENETIC ALGORITHM DOCKED STATE
	_______________________________________________


Detailed state:  trans 24.196 -17.336 -2.073 quatxyzw -0.428285 0.747550 0.432944 0.265143 center 0.534 -0.142 0.039 ntor 4 22.3523 -41.8259 163.9255 10.6103
State:	 24.196 -17.336  -2.073  -0.444  0.775  0.449 149.249     22.35  -41.83  163.93   10.61

DOCKED: MODEL       70
DOCKED: USER    Run = 70
DOCKED: USER    DPF = ligand_dock.biased.dpf
DOCKED: USER  
DOCKED: USER    Estimated Free Energy of Binding    =   -9.59 kcal/mol  [=(1)+(2)+(3)-(4)]
DOCKED: USER    Estimated Inhibition Constant, Ki   =   92.89 nM (nanomolar)  [Temperature = 298.15 K]
DOCKED: USER    
DOCKED: USER    (1) Final Intermolecular Energy     =  -10.79 kcal/mol
DOCKED: USER        vdW + Hbond + desolv Energy     =  -10.79 kcal/mol
DOCKED: USER        Electrostatic Energy            =   +0.00 kcal/mol
DOCKED: USER    (2) Final Total Internal Energy     =   -0.34 kcal/mol
DOCKED: USER    (3) Torsional Free Energy           =   +1.19 kcal/mol
DOCKED: USER    (4) Unbound System's Energy  [=(2)] =   -0.34 kcal/mol
DOCKED: USER    
DOCKED: USER    
DOCKED: USER    NEWDPF move ligand.pdbqt
DOCKED: USER    NEWDPF about 0.534000 -0.142000 0.039000
DOCKED: USER    NEWDPF tran0 24.196267 -17.336321 -2.072651
DOCKED: USER    NEWDPF quaternion0 -0.428285 0.747550 0.432944 0.265143
DOCKED: USER    NEWDPF axisangle0 -0.444183 0.775298 0.449014 149.249133
DOCKED: USER    NEWDPF quat0 -0.444183 0.775298 0.449014 149.249133
DOCKED: USER    NEWDPF dihe0 22.35 -41.83 163.93 10.61 
DOCKED: USER  keepresnum = 1 
DOCKED: USER  
DOCKED: REMARK  Name = 
DOCKED: REMARK  4 active torsions:
DOCKED: REMARK  status: ('A' for Active; 'I' for Inactive)
DOCKED: REMARK    1  A    between atoms: C_3  and  C_4
DOCKED: REMARK    2  A    between atoms: C_4  and  C_5
DOCKED: REMARK    3  A    between atoms: C_5  and  C_6
DOCKED: REMARK    4  A    between atoms: C_6  and  C_7
DOCKED: REMARK                            x       y       z     vdW  Elec       q    Type
DOCKED: REMARK                         _______ _______ _______ _____ _____    ______ ____
DOCKED: USER                              x       y       z     vdW  Elec       q    Type
DOCKED: USER                           _______ _______ _______ _____ _____    ______ ____
DOCKED: ROOT
DOCKED: ATOM      1  C   UNL     1      23.565 -17.171  -0.859 -0.70 -0.00    +0.000 C 
DOCKED: ENDROOT
DOCKED: BRANCH   1   2
DOCKED: ATOM      2  C   UNL     1      22.871 -18.441  -0.349 -0.83 -0.00    +0.000 C 
DOCKED: BRANCH   2   5
DOCKED: ATOM      3  O   UNL     1      19.882 -19.845  -2.197 -2.28 -0.00    +0.000 OA
DOCKED: ATOM      4  N   UNL     1      21.127 -19.728  -1.681 -0.64 -0.00    +0.000 N 
DOCKED: ATOM      5  C   UNL     1      21.485 -18.580  -0.906 -0.82 -0.00    +0.000 C 
DOCKED: ATOM      6  O   UNL     1      20.641 -17.664  -0.714 -2.21 +0.00    +0.000 OA
DOCKED: ATOM      7  H   UNL     1      21.791 -20.437  -1.839 -0.43 -0.00    +0.000 HD
DOCKED: ENDBRANCH   2   5
DOCKED: ENDBRANCH   1   2
DOCKED: BRANCH   1   8
DOCKED: ATOM      8  C   UNL     1      24.718 -17.483  -1.822 -0.67 -0.00    +0.000 C 
DOCKED: BRANCH   8   9
DOCKED: ATOM      9  C   UNL     1      25.571 -16.262  -2.038 -0.50 -0.00    +0.000 A 
DOCKED: ATOM     10  C   UNL     1      25.510 -15.559  -3.254 -0.50 -0.00    +0.000 A 
DOCKED: ATOM     11  C   UNL     1      26.326 -14.444  -3.464 -0.39 -0.00    +0.000 A 
DOCKED: ATOM     12  C   UNL     1      27.215 -14.028  -2.470 -0.21 -0.00    +0.000 A 
DOCKED: ATOM     13  C   UNL     1      27.292 -14.730  -1.262 -0.23 -0.00    +0.000 A 
DOCKED: ATOM     14  C   UNL     1      26.477 -15.846  -1.048 -0.38 -0.00    +0.000 A 
DOCKED: ENDBRANCH   8   9
DOCKED: ENDBRANCH   1   8
DOCKED: TORSDOF 4
DOCKED: TER
DOCKED: ENDMDL
________________________________________________________________________________


	BEGINNING GENETIC ALGORITHM DOCKING 71 of 100
Run: 71 Seed: 1730254908 1398821551 [ Run 71 of 100 GA/GALS ]
Beginning LAMARCKIAN GENETIC ALGORITHM (LGA), with a maximum of 2500000 energy evaluations.

Final-Value: -11.364


	FINAL GENETIC ALGORITHM DOCKED STATE
	_______________________________________________


Detailed state:  trans 25.196 -18.623 -0.242 quatxyzw 0.294669 -0.634074 0.635432 -0.327637 center 0.534 -0.142 0.039 ntor 4 -50.1176 -125.7672 122.4489 50.8702
State:	 25.196 -18.623  -0.242   0.312 -0.671  0.673 -141.749    -50.12 -125.77  122.45   50.87

DOCKED: MODEL       71
DOCKED: USER    Run = 71
DOCKED: USER    DPF = ligand_dock.biased.dpf
DOCKED: USER  
DOCKED: USER    Estimated Free Energy of Binding    =   -9.78 kcal/mol  [=(1)+(2)+(3)-(4)]
DOCKED: USER    Estimated Inhibition Constant, Ki   =   67.24 nM (nanomolar)  [Temperature = 298.15 K]
DOCKED: USER    
DOCKED: USER    (1) Final Intermolecular Energy     =  -10.98 kcal/mol
DOCKED: USER        vdW + Hbond + desolv Energy     =  -10.98 kcal/mol
DOCKED: USER        Electrostatic Energy            =   +0.00 kcal/mol
DOCKED: USER    (2) Final Total Internal Energy     =   -0.39 kcal/mol
DOCKED: USER    (3) Torsional Free Energy           =   +1.19 kcal/mol
DOCKED: USER    (4) Unbound System's Energy  [=(2)] =   -0.39 kcal/mol
DOCKED: USER    
DOCKED: USER    
DOCKED: USER    NEWDPF move ligand.pdbqt
DOCKED: USER    NEWDPF about 0.534000 -0.142000 0.039000
DOCKED: USER    NEWDPF tran0 25.195504 -18.622714 -0.242010
DOCKED: USER    NEWDPF quaternion0 0.294669 -0.634074 0.635432 -0.327637
DOCKED: USER    NEWDPF axisangle0 0.311884 -0.671117 0.672555 -141.749172
DOCKED: USER    NEWDPF quat0 0.311884 -0.671117 0.672555 -141.749172
DOCKED: USER    NEWDPF dihe0 -50.12 -125.77 122.45 50.87 
DOCKED: USER  keepresnum = 1 
DOCKED: USER  
DOCKED: REMARK  Name = 
DOCKED: REMARK  4 active torsions:
DOCKED: REMARK  status: ('A' for Active; 'I' for Inactive)
DOCKED: REMARK    1  A    between atoms: C_3  and  C_4
DOCKED: REMARK    2  A    between atoms: C_4  and  C_5
DOCKED: REMARK    3  A    between atoms: C_5  and  C_6
DOCKED: REMARK    4  A    between atoms: C_6  and  C_7
DOCKED: REMARK                            x       y       z     vdW  Elec       q    Type
DOCKED: REMARK                         _______ _______ _______ _____ _____    ______ ____
DOCKED: USER                              x       y       z     vdW  Elec       q    Type
DOCKED: USER                           _______ _______ _______ _____ _____    ______ ____
DOCKED: ROOT
DOCKED: ATOM      1  C   UNL     1      23.999 -18.555  -0.922 -0.79 -0.00    +0.000 C 
DOCKED: ENDROOT
DOCKED: BRANCH   1   2
DOCKED: ATOM      2  C   UNL     1      22.798 -18.236  -0.021 -0.78 -0.00    +0.000 C 
DOCKED: BRANCH   2   5
DOCKED: ATOM      3  O   UNL     1      20.079 -19.759  -2.168 -2.32 -0.00    +0.000 OA
DOCKED: ATOM      4  N   UNL     1      21.245 -19.604  -1.501 -0.68 -0.00    +0.000 N 
DOCKED: ATOM      5  C   UNL     1      21.496 -18.415  -0.746 -0.84 -0.00    +0.000 C 
DOCKED: ATOM      6  O   UNL     1      20.632 -17.499  -0.712 -2.09 +0.00    +0.000 OA
DOCKED: ATOM      7  H   UNL     1      21.927 -20.314  -1.535 -0.34 -0.00    +0.000 HD
DOCKED: ENDBRANCH   2   5
DOCKED: ENDBRANCH   1   2
DOCKED: BRANCH   1   8
DOCKED: ATOM      8  C   UNL     1      25.321 -18.045  -0.332 -0.70 -0.00    +0.000 C 
DOCKED: BRANCH   8   9
DOCKED: ATOM      9  C   UNL     1      26.044 -17.179  -1.328 -0.50 -0.00    +0.000 A 
DOCKED: ATOM     10  C   UNL     1      27.449 -17.144  -1.351 -0.37 -0.00    +0.000 A 
DOCKED: ATOM     11  C   UNL     1      28.118 -16.315  -2.256 -0.27 -0.00    +0.000 A 
DOCKED: ATOM     12  C   UNL     1      27.392 -15.507  -3.135 -0.30 -0.00    +0.000 A 
DOCKED: ATOM     13  C   UNL     1      25.994 -15.526  -3.110 -0.47 -0.00    +0.000 A 
DOCKED: ATOM     14  C   UNL     1      25.321 -16.354  -2.207 -0.51 -0.00    +0.000 A 
DOCKED: ENDBRANCH   8   9
DOCKED: ENDBRANCH   1   8
DOCKED: TORSDOF 4
DOCKED: TER
DOCKED: ENDMDL
________________________________________________________________________________


	BEGINNING GENETIC ALGORITHM DOCKING 72 of 100
Run: 72 Seed: 263670494 20252111 [ Run 72 of 100 GA/GALS ]
Beginning LAMARCKIAN GENETIC ALGORITHM (LGA), with a maximum of 2500000 energy evaluations.

Final-Value: -11.171


	FINAL GENETIC ALGORITHM DOCKED STATE
	_______________________________________________


Detailed state:  trans 25.045 -17.224 -0.948 quatxyzw 0.565457 -0.500571 0.647556 -0.101775 center 0.534 -0.142 0.039 ntor 4 -8.6181 -170.1338 173.1834 -6.2585
State:	 25.045 -17.224  -0.948   0.568 -0.503  0.651 -168.317     -8.62 -170.13  173.18   -6.26

DOCKED: MODEL       72
DOCKED: USER    Run = 72
DOCKED: USER    DPF = ligand_dock.biased.dpf
DOCKED: USER  
DOCKED: USER    Estimated Free Energy of Binding    =   -9.63 kcal/mol  [=(1)+(2)+(3)-(4)]
DOCKED: USER    Estimated Inhibition Constant, Ki   =   86.66 nM (nanomolar)  [Temperature = 298.15 K]
DOCKED: USER    
DOCKED: USER    (1) Final Intermolecular Energy     =  -10.83 kcal/mol
DOCKED: USER        vdW + Hbond + desolv Energy     =  -10.83 kcal/mol
DOCKED: USER        Electrostatic Energy            =   +0.00 kcal/mol
DOCKED: USER    (2) Final Total Internal Energy     =   -0.34 kcal/mol
DOCKED: USER    (3) Torsional Free Energy           =   +1.19 kcal/mol
DOCKED: USER    (4) Unbound System's Energy  [=(2)] =   -0.34 kcal/mol
DOCKED: USER    
DOCKED: USER    
DOCKED: USER    NEWDPF move ligand.pdbqt
DOCKED: USER    NEWDPF about 0.534000 -0.142000 0.039000
DOCKED: USER    NEWDPF tran0 25.045240 -17.223610 -0.947644
DOCKED: USER    NEWDPF quaternion0 0.565457 -0.500571 0.647556 -0.101775
DOCKED: USER    NEWDPF axisangle0 0.568408 -0.503184 0.650936 -168.317202
DOCKED: USER    NEWDPF quat0 0.568408 -0.503184 0.650936 -168.317202
DOCKED: USER    NEWDPF dihe0 -8.62 -170.13 173.18 -6.26 
DOCKED: USER  keepresnum = 1 
DOCKED: USER  
DOCKED: REMARK  Name = 
DOCKED: REMARK  4 active torsions:
DOCKED: REMARK  status: ('A' for Active; 'I' for Inactive)
DOCKED: REMARK    1  A    between atoms: C_3  and  C_4
DOCKED: REMARK    2  A    between atoms: C_4  and  C_5
DOCKED: REMARK    3  A    between atoms: C_5  and  C_6
DOCKED: REMARK    4  A    between atoms: C_6  and  C_7
DOCKED: REMARK                            x       y       z     vdW  Elec       q    Type
DOCKED: REMARK                         _______ _______ _______ _____ _____    ______ ____
DOCKED: USER                              x       y       z     vdW  Elec       q    Type
DOCKED: USER                           _______ _______ _______ _____ _____    ______ ____
DOCKED: ROOT
DOCKED: ATOM      1  C   UNL     1      24.005 -17.935  -1.504 -0.74 -0.00    +0.000 C 
DOCKED: ENDROOT
DOCKED: BRANCH   1   2
DOCKED: ATOM      2  C   UNL     1      23.071 -18.572  -0.466 -0.82 -0.00    +0.000 C 
DOCKED: BRANCH   2   5
DOCKED: ATOM      3  O   UNL     1      19.876 -19.738  -2.126 -2.33 -0.00    +0.000 OA
DOCKED: ATOM      4  N   UNL     1      21.154 -19.719  -1.683 -0.63 -0.00    +0.000 N 
DOCKED: ATOM      5  C   UNL     1      21.648 -18.600  -0.943 -0.82 -0.00    +0.000 C 
DOCKED: ATOM      6  O   UNL     1      20.894 -17.617  -0.712 -2.13 -0.00    +0.000 OA
DOCKED: ATOM      7  H   UNL     1      21.748 -20.482  -1.870 -0.43 -0.00    +0.000 HD
DOCKED: ENDBRANCH   2   5
DOCKED: ENDBRANCH   1   2
DOCKED: BRANCH   1   8
DOCKED: ATOM      8  C   UNL     1      24.742 -16.709  -0.951 -0.61 -0.00    +0.000 C 
DOCKED: BRANCH   8   9
DOCKED: ATOM      9  C   UNL     1      25.705 -16.166  -1.972 -0.48 -0.00    +0.000 A 
DOCKED: ATOM     10  C   UNL     1      27.066 -16.514  -1.919 -0.35 -0.00    +0.000 A 
DOCKED: ATOM     11  C   UNL     1      27.965 -15.983  -2.850 -0.26 -0.00    +0.000 A 
DOCKED: ATOM     12  C   UNL     1      27.515 -15.095  -3.830 -0.32 -0.00    +0.000 A 
DOCKED: ATOM     13  C   UNL     1      26.165 -14.733  -3.881 -0.47 -0.00    +0.000 A 
DOCKED: ATOM     14  C   UNL     1      25.263 -15.262  -2.952 -0.44 -0.00    +0.000 A 
DOCKED: ENDBRANCH   8   9
DOCKED: ENDBRANCH   1   8
DOCKED: TORSDOF 4
DOCKED: TER
DOCKED: ENDMDL
________________________________________________________________________________


	BEGINNING GENETIC ALGORITHM DOCKING 73 of 100
Run: 73 Seed: 1523264104 442858606 [ Run 73 of 100 GA/GALS ]
Beginning LAMARCKIAN GENETIC ALGORITHM (LGA), with a maximum of 2500000 energy evaluations.

Final-Value: -11.041


	FINAL GENETIC ALGORITHM DOCKED STATE
	_______________________________________________


Detailed state:  trans 25.092 -17.391 -1.147 quatxyzw 0.618075 -0.735104 -0.278537 0.004712 center 0.534 -0.142 0.039 ntor 4 49.0550 -106.2052 -92.1457 -58.4703
State:	 25.092 -17.391  -1.147   0.618 -0.735 -0.279 179.460     49.06 -106.21  -92.15  -58.47

DOCKED: MODEL       73
DOCKED: USER    Run = 73
DOCKED: USER    DPF = ligand_dock.biased.dpf
DOCKED: USER  
DOCKED: USER    Estimated Free Energy of Binding    =   -9.49 kcal/mol  [=(1)+(2)+(3)-(4)]
DOCKED: USER    Estimated Inhibition Constant, Ki   =  110.01 nM (nanomolar)  [Temperature = 298.15 K]
DOCKED: USER    
DOCKED: USER    (1) Final Intermolecular Energy     =  -10.69 kcal/mol
DOCKED: USER        vdW + Hbond + desolv Energy     =  -10.69 kcal/mol
DOCKED: USER        Electrostatic Energy            =   +0.00 kcal/mol
DOCKED: USER    (2) Final Total Internal Energy     =   -0.35 kcal/mol
DOCKED: USER    (3) Torsional Free Energy           =   +1.19 kcal/mol
DOCKED: USER    (4) Unbound System's Energy  [=(2)] =   -0.35 kcal/mol
DOCKED: USER    
DOCKED: USER    
DOCKED: USER    NEWDPF move ligand.pdbqt
DOCKED: USER    NEWDPF about 0.534000 -0.142000 0.039000
DOCKED: USER    NEWDPF tran0 25.092346 -17.390673 -1.146921
DOCKED: USER    NEWDPF quaternion0 0.618075 -0.735104 -0.278537 0.004712
DOCKED: USER    NEWDPF axisangle0 0.618082 -0.735112 -0.278540 179.460075
DOCKED: USER    NEWDPF quat0 0.618082 -0.735112 -0.278540 179.460075
DOCKED: USER    NEWDPF dihe0 49.06 -106.21 -92.15 -58.47 
DOCKED: USER  keepresnum = 1 
DOCKED: USER  
DOCKED: REMARK  Name = 
DOCKED: REMARK  4 active torsions:
DOCKED: REMARK  status: ('A' for Active; 'I' for Inactive)
DOCKED: REMARK    1  A    between atoms: C_3  and  C_4
DOCKED: REMARK    2  A    between atoms: C_4  and  C_5
DOCKED: REMARK    3  A    between atoms: C_5  and  C_6
DOCKED: REMARK    4  A    between atoms: C_6  and  C_7
DOCKED: REMARK                            x       y       z     vdW  Elec       q    Type
DOCKED: REMARK                         _______ _______ _______ _____ _____    ______ ____
DOCKED: USER                              x       y       z     vdW  Elec       q    Type
DOCKED: USER                           _______ _______ _______ _____ _____    ______ ____
DOCKED: ROOT
DOCKED: ATOM      1  C   UNL     1      23.815 -17.474  -0.638 -0.73 -0.00    +0.000 C 
DOCKED: ENDROOT
DOCKED: BRANCH   1   2
DOCKED: ATOM      2  C   UNL     1      23.187 -18.868  -0.777 -0.82 -0.00    +0.000 C 
DOCKED: BRANCH   2   5
DOCKED: ATOM      3  O   UNL     1      19.645 -19.681  -1.834 -2.17 -0.00    +0.000 OA
DOCKED: ATOM      4  N   UNL     1      20.989 -19.757  -1.700 -0.67 -0.00    +0.000 N 
DOCKED: ATOM      5  C   UNL     1      21.694 -18.794  -0.911 -0.84 -0.00    +0.000 C 
DOCKED: ATOM      6  O   UNL     1      21.063 -17.860  -0.348 -1.91 +0.00    +0.000 OA
DOCKED: ATOM      7  H   UNL     1      21.486 -20.480  -2.147 -0.50 -0.00    +0.000 HD
DOCKED: ENDBRANCH   2   5
DOCKED: ENDBRANCH   1   2
DOCKED: BRANCH   1   8
DOCKED: ATOM      8  C   UNL     1      25.348 -17.524  -0.624 -0.66 -0.00    +0.000 C 
DOCKED: BRANCH   8   9
DOCKED: ATOM      9  C   UNL     1      25.915 -16.639  -1.701 -0.49 -0.00    +0.000 A 
DOCKED: ATOM     10  C   UNL     1      25.060 -15.955  -2.581 -0.40 -0.00    +0.000 A 
DOCKED: ATOM     11  C   UNL     1      25.589 -15.158  -3.601 -0.51 -0.00    +0.000 A 
DOCKED: ATOM     12  C   UNL     1      26.973 -15.046  -3.756 -0.38 -0.00    +0.000 A 
DOCKED: ATOM     13  C   UNL     1      27.831 -15.735  -2.892 -0.26 -0.00    +0.000 A 
DOCKED: ATOM     14  C   UNL     1      27.306 -16.532  -1.871 -0.34 -0.00    +0.000 A 
DOCKED: ENDBRANCH   8   9
DOCKED: ENDBRANCH   1   8
DOCKED: TORSDOF 4
DOCKED: TER
DOCKED: ENDMDL
________________________________________________________________________________


	BEGINNING GENETIC ALGORITHM DOCKING 74 of 100
Run: 74 Seed: 1057930661 411972189 [ Run 74 of 100 GA/GALS ]
Beginning LAMARCKIAN GENETIC ALGORITHM (LGA), with a maximum of 2500000 energy evaluations.

Final-Value: -11.063


	FINAL GENETIC ALGORITHM DOCKED STATE
	_______________________________________________


Detailed state:  trans 25.091 -17.513 -0.389 quatxyzw 0.498915 -0.428426 -0.707465 0.258899 center 0.534 -0.142 0.039 ntor 4 112.6708 -101.8320 -161.6069 -109.2440
State:	 25.091 -17.513  -0.389   0.517 -0.444 -0.732 149.991    112.67 -101.83 -161.61 -109.24

DOCKED: MODEL       74
DOCKED: USER    Run = 74
DOCKED: USER    DPF = ligand_dock.biased.dpf
DOCKED: USER  
DOCKED: USER    Estimated Free Energy of Binding    =   -9.50 kcal/mol  [=(1)+(2)+(3)-(4)]
DOCKED: USER    Estimated Inhibition Constant, Ki   =  109.57 nM (nanomolar)  [Temperature = 298.15 K]
DOCKED: USER    
DOCKED: USER    (1) Final Intermolecular Energy     =  -10.69 kcal/mol
DOCKED: USER        vdW + Hbond + desolv Energy     =  -10.69 kcal/mol
DOCKED: USER        Electrostatic Energy            =   +0.00 kcal/mol
DOCKED: USER    (2) Final Total Internal Energy     =   -0.37 kcal/mol
DOCKED: USER    (3) Torsional Free Energy           =   +1.19 kcal/mol
DOCKED: USER    (4) Unbound System's Energy  [=(2)] =   -0.37 kcal/mol
DOCKED: USER    
DOCKED: USER    
DOCKED: USER    NEWDPF move ligand.pdbqt
DOCKED: USER    NEWDPF about 0.534000 -0.142000 0.039000
DOCKED: USER    NEWDPF tran0 25.091308 -17.513230 -0.388561
DOCKED: USER    NEWDPF quaternion0 0.498915 -0.428426 -0.707465 0.258899
DOCKED: USER    NEWDPF axisangle0 0.516526 -0.443549 -0.732438 149.990571
DOCKED: USER    NEWDPF quat0 0.516526 -0.443549 -0.732438 149.990571
DOCKED: USER    NEWDPF dihe0 112.67 -101.83 -161.61 -109.24 
DOCKED: USER  keepresnum = 1 
DOCKED: USER  
DOCKED: REMARK  Name = 
DOCKED: REMARK  4 active torsions:
DOCKED: REMARK  status: ('A' for Active; 'I' for Inactive)
DOCKED: REMARK    1  A    between atoms: C_3  and  C_4
DOCKED: REMARK    2  A    between atoms: C_4  and  C_5
DOCKED: REMARK    3  A    between atoms: C_5  and  C_6
DOCKED: REMARK    4  A    between atoms: C_6  and  C_7
DOCKED: REMARK                            x       y       z     vdW  Elec       q    Type
DOCKED: REMARK                         _______ _______ _______ _____ _____    ______ ____
DOCKED: USER                              x       y       z     vdW  Elec       q    Type
DOCKED: USER                           _______ _______ _______ _____ _____    ______ ____
DOCKED: ROOT
DOCKED: ATOM      1  C   UNL     1      23.953 -18.235  -0.103 -0.74 -0.00    +0.000 C 
DOCKED: ENDROOT
DOCKED: BRANCH   1   2
DOCKED: ATOM      2  C   UNL     1      23.216 -18.740  -1.351 -0.78 -0.00    +0.000 C 
DOCKED: BRANCH   2   5
DOCKED: ATOM      3  O   UNL     1      19.576 -19.734  -1.645 -2.16 -0.00    +0.000 OA
DOCKED: ATOM      4  N   UNL     1      20.918 -19.730  -1.813 -0.71 -0.00    +0.000 N 
DOCKED: ATOM      5  C   UNL     1      21.729 -18.755  -1.150 -0.76 -0.00    +0.000 C 
DOCKED: ATOM      6  O   UNL     1      21.190 -17.886  -0.415 -1.85 -0.00    +0.000 OA
DOCKED: ATOM      7  H   UNL     1      21.341 -20.402  -2.395 -0.54 -0.00    +0.000 HD
DOCKED: ENDBRANCH   2   5
DOCKED: ENDBRANCH   1   2
DOCKED: BRANCH   1   8
DOCKED: ATOM      8  C   UNL     1      25.445 -17.994  -0.365 -0.69 -0.00    +0.000 C 
DOCKED: BRANCH   8   9
DOCKED: ATOM      9  C   UNL     1      25.643 -16.750  -1.190 -0.52 -0.00    +0.000 A 
DOCKED: ATOM     10  C   UNL     1      25.300 -16.741  -2.552 -0.45 -0.00    +0.000 A 
DOCKED: ATOM     11  C   UNL     1      25.514 -15.594  -3.324 -0.50 -0.00    +0.000 A 
DOCKED: ATOM     12  C   UNL     1      26.080 -14.456  -2.746 -0.36 -0.00    +0.000 A 
DOCKED: ATOM     13  C   UNL     1      26.437 -14.462  -1.393 -0.28 -0.00    +0.000 A 
DOCKED: ATOM     14  C   UNL     1      26.225 -15.606  -0.618 -0.35 -0.00    +0.000 A 
DOCKED: ENDBRANCH   8   9
DOCKED: ENDBRANCH   1   8
DOCKED: TORSDOF 4
DOCKED: TER
DOCKED: ENDMDL
________________________________________________________________________________


	BEGINNING GENETIC ALGORITHM DOCKING 75 of 100
Run: 75 Seed: 1923316849 1227787444 [ Run 75 of 100 GA/GALS ]
Beginning LAMARCKIAN GENETIC ALGORITHM (LGA), with a maximum of 2500000 energy evaluations.

Final-Value: -10.712


	FINAL GENETIC ALGORITHM DOCKED STATE
	_______________________________________________


Detailed state:  trans 23.939 -18.312 -0.394 quatxyzw 0.273759 -0.588360 -0.635622 0.418178 center 0.534 -0.142 0.039 ntor 4 -72.4734 160.6475 40.9554 -91.5443
State:	 23.939 -18.312  -0.394   0.301 -0.648 -0.700 130.561    -72.47  160.65   40.96  -91.54

DOCKED: MODEL       75
DOCKED: USER    Run = 75
DOCKED: USER    DPF = ligand_dock.biased.dpf
DOCKED: USER  
DOCKED: USER    Estimated Free Energy of Binding    =   -9.11 kcal/mol  [=(1)+(2)+(3)-(4)]
DOCKED: USER    Estimated Inhibition Constant, Ki   =  209.67 nM (nanomolar)  [Temperature = 298.15 K]
DOCKED: USER    
DOCKED: USER    (1) Final Intermolecular Energy     =  -10.30 kcal/mol
DOCKED: USER        vdW + Hbond + desolv Energy     =  -10.30 kcal/mol
DOCKED: USER        Electrostatic Energy            =   +0.00 kcal/mol
DOCKED: USER    (2) Final Total Internal Energy     =   -0.41 kcal/mol
DOCKED: USER    (3) Torsional Free Energy           =   +1.19 kcal/mol
DOCKED: USER    (4) Unbound System's Energy  [=(2)] =   -0.41 kcal/mol
DOCKED: USER    
DOCKED: USER    
DOCKED: USER    NEWDPF move ligand.pdbqt
DOCKED: USER    NEWDPF about 0.534000 -0.142000 0.039000
DOCKED: USER    NEWDPF tran0 23.938709 -18.312412 -0.393997
DOCKED: USER    NEWDPF quaternion0 0.273759 -0.588360 -0.635622 0.418178
DOCKED: USER    NEWDPF axisangle0 0.301375 -0.647714 -0.699743 130.560814
DOCKED: USER    NEWDPF quat0 0.301375 -0.647714 -0.699743 130.560814
DOCKED: USER    NEWDPF dihe0 -72.47 160.65 40.96 -91.54 
DOCKED: USER  keepresnum = 1 
DOCKED: USER  
DOCKED: REMARK  Name = 
DOCKED: REMARK  4 active torsions:
DOCKED: REMARK  status: ('A' for Active; 'I' for Inactive)
DOCKED: REMARK    1  A    between atoms: C_3  and  C_4
DOCKED: REMARK    2  A    between atoms: C_4  and  C_5
DOCKED: REMARK    3  A    between atoms: C_5  and  C_6
DOCKED: REMARK    4  A    between atoms: C_6  and  C_7
DOCKED: REMARK                            x       y       z     vdW  Elec       q    Type
DOCKED: REMARK                         _______ _______ _______ _____ _____    ______ ____
DOCKED: USER                              x       y       z     vdW  Elec       q    Type
DOCKED: USER                           _______ _______ _______ _____ _____    ______ ____
DOCKED: ROOT
DOCKED: ATOM      1  C   UNL     1      22.671 -18.247   0.142 -0.72 -0.00    +0.000 C 
DOCKED: ENDROOT
DOCKED: BRANCH   1   2
DOCKED: ATOM      2  C   UNL     1      21.561 -18.167  -0.915 -0.73 -0.00    +0.000 C 
DOCKED: BRANCH   2   5
DOCKED: ATOM      3  O   UNL     1      19.694 -21.185   0.402 -0.86 -0.00    +0.000 OA
DOCKED: ATOM      4  N   UNL     1      20.497 -20.098   0.356 -0.69 -0.00    +0.000 N 
DOCKED: ATOM      5  C   UNL     1      20.655 -19.363  -0.861 -0.90 -0.00    +0.000 C 
DOCKED: ATOM      6  O   UNL     1      20.054 -19.737  -1.902 -2.38 -0.00    +0.000 OA
DOCKED: ATOM      7  H   UNL     1      20.977 -19.809   1.167 -0.48 -0.00    +0.000 HD
DOCKED: ENDBRANCH   2   5
DOCKED: ENDBRANCH   1   2
DOCKED: BRANCH   1   8
DOCKED: ATOM      8  C   UNL     1      23.944 -18.910  -0.400 -0.56 -0.00    +0.000 C 
DOCKED: BRANCH   8   9
DOCKED: ATOM      9  C   UNL     1      24.878 -17.875  -0.967 -0.64 -0.00    +0.000 A 
DOCKED: ATOM     10  C   UNL     1      26.233 -17.860  -0.593 -0.55 -0.00    +0.000 A 
DOCKED: ATOM     11  C   UNL     1      27.091 -16.878  -1.097 -0.42 -0.00    +0.000 A 
DOCKED: ATOM     12  C   UNL     1      26.604 -15.899  -1.966 -0.37 -0.00    +0.000 A 
DOCKED: ATOM     13  C   UNL     1      25.254 -15.899  -2.333 -0.47 -0.00    +0.000 A 
DOCKED: ATOM     14  C   UNL     1      24.392 -16.880  -1.832 -0.52 -0.00    +0.000 A 
DOCKED: ENDBRANCH   8   9
DOCKED: ENDBRANCH   1   8
DOCKED: TORSDOF 4
DOCKED: TER
DOCKED: ENDMDL
________________________________________________________________________________


	BEGINNING GENETIC ALGORITHM DOCKING 76 of 100
Run: 76 Seed: 521557894 1407006034 [ Run 76 of 100 GA/GALS ]
Beginning LAMARCKIAN GENETIC ALGORITHM (LGA), with a maximum of 2500000 energy evaluations.

Final-Value: -10.848


	FINAL GENETIC ALGORITHM DOCKED STATE
	_______________________________________________


Detailed state:  trans 24.862 -17.113 -1.191 quatxyzw 0.648599 -0.510187 0.563834 -0.033445 center 0.534 -0.142 0.039 ntor 4 -2.4857 179.5308 -14.6635 -37.3715
State:	 24.862 -17.113  -1.191   0.649 -0.510  0.564 -176.167     -2.49  179.53  -14.66  -37.37

DOCKED: MODEL       76
DOCKED: USER    Run = 76
DOCKED: USER    DPF = ligand_dock.biased.dpf
DOCKED: USER  
DOCKED: USER    Estimated Free Energy of Binding    =   -9.31 kcal/mol  [=(1)+(2)+(3)-(4)]
DOCKED: USER    Estimated Inhibition Constant, Ki   =  149.11 nM (nanomolar)  [Temperature = 298.15 K]
DOCKED: USER    
DOCKED: USER    (1) Final Intermolecular Energy     =  -10.51 kcal/mol
DOCKED: USER        vdW + Hbond + desolv Energy     =  -10.51 kcal/mol
DOCKED: USER        Electrostatic Energy            =   +0.00 kcal/mol
DOCKED: USER    (2) Final Total Internal Energy     =   -0.34 kcal/mol
DOCKED: USER    (3) Torsional Free Energy           =   +1.19 kcal/mol
DOCKED: USER    (4) Unbound System's Energy  [=(2)] =   -0.34 kcal/mol
DOCKED: USER    
DOCKED: USER    
DOCKED: USER    NEWDPF move ligand.pdbqt
DOCKED: USER    NEWDPF about 0.534000 -0.142000 0.039000
DOCKED: USER    NEWDPF tran0 24.861518 -17.113087 -1.191228
DOCKED: USER    NEWDPF quaternion0 0.648599 -0.510187 0.563834 -0.033445
DOCKED: USER    NEWDPF axisangle0 0.648962 -0.510473 0.564150 -176.166812
DOCKED: USER    NEWDPF quat0 0.648962 -0.510473 0.564150 -176.166812
DOCKED: USER    NEWDPF dihe0 -2.49 179.53 -14.66 -37.37 
DOCKED: USER  keepresnum = 1 
DOCKED: USER  
DOCKED: REMARK  Name = 
DOCKED: REMARK  4 active torsions:
DOCKED: REMARK  status: ('A' for Active; 'I' for Inactive)
DOCKED: REMARK    1  A    between atoms: C_3  and  C_4
DOCKED: REMARK    2  A    between atoms: C_4  and  C_5
DOCKED: REMARK    3  A    between atoms: C_5  and  C_6
DOCKED: REMARK    4  A    between atoms: C_6  and  C_7
DOCKED: REMARK                            x       y       z     vdW  Elec       q    Type
DOCKED: REMARK                         _______ _______ _______ _____ _____    ______ ____
DOCKED: USER                              x       y       z     vdW  Elec       q    Type
DOCKED: USER                           _______ _______ _______ _____ _____    ______ ____
DOCKED: ROOT
DOCKED: ATOM      1  C   UNL     1      23.853 -17.866  -1.752 -0.63 -0.00    +0.000 C 
DOCKED: ENDROOT
DOCKED: BRANCH   1   2
DOCKED: ATOM      2  C   UNL     1      23.170 -18.815  -0.759 -0.82 -0.00    +0.000 C 
DOCKED: BRANCH   2   5
DOCKED: ATOM      3  O   UNL     1      19.660 -19.731  -1.842 -2.24 -0.00    +0.000 OA
DOCKED: ATOM      4  N   UNL     1      21.005 -19.766  -1.700 -0.66 -0.00    +0.000 N 
DOCKED: ATOM      5  C   UNL     1      21.676 -18.787  -0.901 -0.84 -0.00    +0.000 C 
DOCKED: ATOM      6  O   UNL     1      21.013 -17.877  -0.336 -1.93 +0.00    +0.000 OA
DOCKED: ATOM      7  H   UNL     1      21.527 -20.470  -2.150 -0.51 -0.00    +0.000 HD
DOCKED: ENDBRANCH   2   5
DOCKED: ENDBRANCH   1   2
DOCKED: BRANCH   1   8
DOCKED: ATOM      8  C   UNL     1      24.497 -16.659  -1.056 -0.60 -0.00    +0.000 C 
DOCKED: BRANCH   8   9
DOCKED: ATOM      9  C   UNL     1      25.759 -16.250  -1.768 -0.48 -0.00    +0.000 A 
DOCKED: ATOM     10  C   UNL     1      25.692 -15.569  -2.995 -0.49 -0.00    +0.000 A 
DOCKED: ATOM     11  C   UNL     1      26.865 -15.219  -3.670 -0.40 -0.00    +0.000 A 
DOCKED: ATOM     12  C   UNL     1      28.110 -15.554  -3.132 -0.25 -0.00    +0.000 A 
DOCKED: ATOM     13  C   UNL     1      28.185 -16.244  -1.918 -0.26 -0.00    +0.000 A 
DOCKED: ATOM     14  C   UNL     1      27.014 -16.596  -1.240 -0.40 -0.00    +0.000 A 
DOCKED: ENDBRANCH   8   9
DOCKED: ENDBRANCH   1   8
DOCKED: TORSDOF 4
DOCKED: TER
DOCKED: ENDMDL
________________________________________________________________________________


	BEGINNING GENETIC ALGORITHM DOCKING 77 of 100
Run: 77 Seed: 12231515 1772934763 [ Run 77 of 100 GA/GALS ]
Beginning LAMARCKIAN GENETIC ALGORITHM (LGA), with a maximum of 2500000 energy evaluations.

Final-Value: -10.940


	FINAL GENETIC ALGORITHM DOCKED STATE
	_______________________________________________


Detailed state:  trans 24.697 -17.635 -0.205 quatxyzw -0.423015 0.473792 -0.757247 0.152172 center 0.534 -0.142 0.039 ntor 4 -37.4445 -163.4447 166.7269 10.5061
State:	 24.697 -17.635  -0.205  -0.428  0.479 -0.766 162.494    -37.44 -163.44  166.73   10.51

DOCKED: MODEL       77
DOCKED: USER    Run = 77
DOCKED: USER    DPF = ligand_dock.biased.dpf
DOCKED: USER  
DOCKED: USER    Estimated Free Energy of Binding    =   -9.38 kcal/mol  [=(1)+(2)+(3)-(4)]
DOCKED: USER    Estimated Inhibition Constant, Ki   =  132.90 nM (nanomolar)  [Temperature = 298.15 K]
DOCKED: USER    
DOCKED: USER    (1) Final Intermolecular Energy     =  -10.57 kcal/mol
DOCKED: USER        vdW + Hbond + desolv Energy     =  -10.57 kcal/mol
DOCKED: USER        Electrostatic Energy            =   +0.00 kcal/mol
DOCKED: USER    (2) Final Total Internal Energy     =   -0.37 kcal/mol
DOCKED: USER    (3) Torsional Free Energy           =   +1.19 kcal/mol
DOCKED: USER    (4) Unbound System's Energy  [=(2)] =   -0.37 kcal/mol
DOCKED: USER    
DOCKED: USER    
DOCKED: USER    NEWDPF move ligand.pdbqt
DOCKED: USER    NEWDPF about 0.534000 -0.142000 0.039000
DOCKED: USER    NEWDPF tran0 24.697490 -17.635105 -0.204926
DOCKED: USER    NEWDPF quaternion0 -0.423015 0.473792 -0.757247 0.152172
DOCKED: USER    NEWDPF axisangle0 -0.427999 0.479375 -0.766170 162.494317
DOCKED: USER    NEWDPF quat0 -0.427999 0.479375 -0.766170 162.494317
DOCKED: USER    NEWDPF dihe0 -37.44 -163.44 166.73 10.51 
DOCKED: USER  keepresnum = 1 
DOCKED: USER  
DOCKED: REMARK  Name = 
DOCKED: REMARK  4 active torsions:
DOCKED: REMARK  status: ('A' for Active; 'I' for Inactive)
DOCKED: REMARK    1  A    between atoms: C_3  and  C_4
DOCKED: REMARK    2  A    between atoms: C_4  and  C_5
DOCKED: REMARK    3  A    between atoms: C_5  and  C_6
DOCKED: REMARK    4  A    between atoms: C_6  and  C_7
DOCKED: REMARK                            x       y       z     vdW  Elec       q    Type
DOCKED: REMARK                         _______ _______ _______ _____ _____    ______ ____
DOCKED: USER                              x       y       z     vdW  Elec       q    Type
DOCKED: USER                           _______ _______ _______ _____ _____    ______ ____
DOCKED: ROOT
DOCKED: ATOM      1  C   UNL     1      23.702 -18.328  -0.859 -0.81 -0.00    +0.000 C 
DOCKED: ENDROOT
DOCKED: BRANCH   1   2
DOCKED: ATOM      2  C   UNL     1      22.454 -18.569   0.002 -0.78 -0.00    +0.000 C 
DOCKED: BRANCH   2   5
DOCKED: ATOM      3  O   UNL     1      19.996 -19.852  -2.575 -1.94 -0.00    +0.000 OA
DOCKED: ATOM      4  N   UNL     1      21.104 -19.744  -1.806 -0.60 -0.00    +0.000 N 
DOCKED: ATOM      5  C   UNL     1      21.217 -18.698  -0.838 -0.85 -0.00    +0.000 C 
DOCKED: ATOM      6  O   UNL     1      20.284 -17.862  -0.706 -2.22 +0.00    +0.000 OA
DOCKED: ATOM      7  H   UNL     1      21.839 -20.391  -1.914 -0.45 -0.00    +0.000 HD
DOCKED: ENDBRANCH   2   5
DOCKED: ENDBRANCH   1   2
DOCKED: BRANCH   1   8
DOCKED: ATOM      8  C   UNL     1      24.502 -17.103  -0.395 -0.52 -0.00    +0.000 C 
DOCKED: BRANCH   8   9
DOCKED: ATOM      9  C   UNL     1      25.513 -16.708  -1.437 -0.53 -0.00    +0.000 A 
DOCKED: ATOM     10  C   UNL     1      26.873 -17.012  -1.257 -0.43 -0.00    +0.000 A 
DOCKED: ATOM     11  C   UNL     1      27.816 -16.616  -2.211 -0.27 -0.00    +0.000 A 
DOCKED: ATOM     12  C   UNL     1      27.410 -15.905  -3.344 -0.24 -0.00    +0.000 A 
DOCKED: ATOM     13  C   UNL     1      26.060 -15.586  -3.523 -0.49 -0.00    +0.000 A 
DOCKED: ATOM     14  C   UNL     1      25.115 -15.981  -2.571 -0.45 -0.00    +0.000 A 
DOCKED: ENDBRANCH   8   9
DOCKED: ENDBRANCH   1   8
DOCKED: TORSDOF 4
DOCKED: TER
DOCKED: ENDMDL
________________________________________________________________________________


	BEGINNING GENETIC ALGORITHM DOCKING 78 of 100
Run: 78 Seed: 1985139158 157896589 [ Run 78 of 100 GA/GALS ]
Beginning LAMARCKIAN GENETIC ALGORITHM (LGA), with a maximum of 2500000 energy evaluations.

Final-Value: -10.909


	FINAL GENETIC ALGORITHM DOCKED STATE
	_______________________________________________


Detailed state:  trans 25.087 -17.299 -1.322 quatxyzw -0.641316 0.757747 -0.093683 0.075872 center 0.534 -0.142 0.039 ntor 4 21.9103 -120.5175 60.8650 -19.0619
State:	 25.087 -17.299  -1.322  -0.643  0.760 -0.094 171.297     21.91 -120.52   60.87  -19.06

DOCKED: MODEL       78
DOCKED: USER    Run = 78
DOCKED: USER    DPF = ligand_dock.biased.dpf
DOCKED: USER  
DOCKED: USER    Estimated Free Energy of Binding    =   -9.40 kcal/mol  [=(1)+(2)+(3)-(4)]
DOCKED: USER    Estimated Inhibition Constant, Ki   =  128.38 nM (nanomolar)  [Temperature = 298.15 K]
DOCKED: USER    
DOCKED: USER    (1) Final Intermolecular Energy     =  -10.59 kcal/mol
DOCKED: USER        vdW + Hbond + desolv Energy     =  -10.59 kcal/mol
DOCKED: USER        Electrostatic Energy            =   +0.00 kcal/mol
DOCKED: USER    (2) Final Total Internal Energy     =   -0.31 kcal/mol
DOCKED: USER    (3) Torsional Free Energy           =   +1.19 kcal/mol
DOCKED: USER    (4) Unbound System's Energy  [=(2)] =   -0.31 kcal/mol
DOCKED: USER    
DOCKED: USER    
DOCKED: USER    NEWDPF move ligand.pdbqt
DOCKED: USER    NEWDPF about 0.534000 -0.142000 0.039000
DOCKED: USER    NEWDPF tran0 25.086879 -17.299346 -1.322304
DOCKED: USER    NEWDPF quaternion0 -0.641316 0.757747 -0.093683 0.075872
DOCKED: USER    NEWDPF axisangle0 -0.643170 0.759938 -0.093954 171.297318
DOCKED: USER    NEWDPF quat0 -0.643170 0.759938 -0.093954 171.297318
DOCKED: USER    NEWDPF dihe0 21.91 -120.52 60.87 -19.06 
DOCKED: USER  keepresnum = 1 
DOCKED: USER  
DOCKED: REMARK  Name = 
DOCKED: REMARK  4 active torsions:
DOCKED: REMARK  status: ('A' for Active; 'I' for Inactive)
DOCKED: REMARK    1  A    between atoms: C_3  and  C_4
DOCKED: REMARK    2  A    between atoms: C_4  and  C_5
DOCKED: REMARK    3  A    between atoms: C_5  and  C_6
DOCKED: REMARK    4  A    between atoms: C_6  and  C_7
DOCKED: REMARK                            x       y       z     vdW  Elec       q    Type
DOCKED: REMARK                         _______ _______ _______ _____ _____    ______ ____
DOCKED: USER                              x       y       z     vdW  Elec       q    Type
DOCKED: USER                           _______ _______ _______ _____ _____    ______ ____
DOCKED: ROOT
DOCKED: ATOM      1  C   UNL     1      23.710 -17.263  -1.304 -0.67 -0.00    +0.000 C 
DOCKED: ENDROOT
DOCKED: BRANCH   1   2
DOCKED: ATOM      2  C   UNL     1      23.069 -18.537  -0.737 -0.83 -0.00    +0.000 C 
DOCKED: BRANCH   2   5
DOCKED: ATOM      3  O   UNL     1      19.787 -19.791  -2.145 -2.19 -0.00    +0.000 OA
DOCKED: ATOM      4  N   UNL     1      21.101 -19.723  -1.829 -0.62 -0.00    +0.000 N 
DOCKED: ATOM      5  C   UNL     1      21.608 -18.621  -1.071 -0.80 -0.00    +0.000 C 
DOCKED: ATOM      6  O   UNL     1      20.831 -17.699  -0.707 -2.18 -0.00    +0.000 OA
DOCKED: ATOM      7  H   UNL     1      21.712 -20.437  -2.122 -0.51 -0.00    +0.000 HD
DOCKED: ENDBRANCH   2   5
DOCKED: ENDBRANCH   1   2
DOCKED: BRANCH   1   8
DOCKED: ATOM      8  C   UNL     1      25.137 -17.047  -0.783 -0.63 -0.00    +0.000 C 
DOCKED: BRANCH   8   9
DOCKED: ATOM      9  C   UNL     1      25.864 -16.041  -1.635 -0.46 -0.00    +0.000 A 
DOCKED: ATOM     10  C   UNL     1      26.866 -15.230  -1.077 -0.30 -0.00    +0.000 A 
DOCKED: ATOM     11  C   UNL     1      27.517 -14.275  -1.863 -0.19 -0.00    +0.000 A 
DOCKED: ATOM     12  C   UNL     1      27.166 -14.115  -3.206 -0.25 -0.00    +0.000 A 
DOCKED: ATOM     13  C   UNL     1      26.160 -14.909  -3.766 -0.48 -0.00    +0.000 A 
DOCKED: ATOM     14  C   UNL     1      25.507 -15.866  -2.983 -0.49 -0.00    +0.000 A 
DOCKED: ENDBRANCH   8   9
DOCKED: ENDBRANCH   1   8
DOCKED: TORSDOF 4
DOCKED: TER
DOCKED: ENDMDL
________________________________________________________________________________


	BEGINNING GENETIC ALGORITHM DOCKING 79 of 100
Run: 79 Seed: 111025267 1472301877 [ Run 79 of 100 GA/GALS ]
Beginning LAMARCKIAN GENETIC ALGORITHM (LGA), with a maximum of 2500000 energy evaluations.

Final-Value: -10.789


	FINAL GENETIC ALGORITHM DOCKED STATE
	_______________________________________________


Detailed state:  trans 23.731 -18.332 -1.268 quatxyzw -0.066508 -0.291698 -0.870155 0.391559 center 0.534 -0.142 0.039 ntor 4 6.7845 -180.0000 147.0494 -72.6175
State:	 23.731 -18.332  -1.268  -0.072 -0.317 -0.946 133.897      6.78 -180.00  147.05  -72.62

DOCKED: MODEL       79
DOCKED: USER    Run = 79
DOCKED: USER    DPF = ligand_dock.biased.dpf
DOCKED: USER  
DOCKED: USER    Estimated Free Energy of Binding    =   -9.24 kcal/mol  [=(1)+(2)+(3)-(4)]
DOCKED: USER    Estimated Inhibition Constant, Ki   =  169.40 nM (nanomolar)  [Temperature = 298.15 K]
DOCKED: USER    
DOCKED: USER    (1) Final Intermolecular Energy     =  -10.43 kcal/mol
DOCKED: USER        vdW + Hbond + desolv Energy     =  -10.43 kcal/mol
DOCKED: USER        Electrostatic Energy            =   +0.00 kcal/mol
DOCKED: USER    (2) Final Total Internal Energy     =   -0.36 kcal/mol
DOCKED: USER    (3) Torsional Free Energy           =   +1.19 kcal/mol
DOCKED: USER    (4) Unbound System's Energy  [=(2)] =   -0.36 kcal/mol
DOCKED: USER    
DOCKED: USER    
DOCKED: USER    NEWDPF move ligand.pdbqt
DOCKED: USER    NEWDPF about 0.534000 -0.142000 0.039000
DOCKED: USER    NEWDPF tran0 23.731213 -18.331601 -1.268487
DOCKED: USER    NEWDPF quaternion0 -0.066508 -0.291698 -0.870155 0.391559
DOCKED: USER    NEWDPF axisangle0 -0.072280 -0.317010 -0.945664 133.896889
DOCKED: USER    NEWDPF quat0 -0.072280 -0.317010 -0.945664 133.896889
DOCKED: USER    NEWDPF dihe0 6.78 -180.00 147.05 -72.62 
DOCKED: USER  keepresnum = 1 
DOCKED: USER  
DOCKED: REMARK  Name = 
DOCKED: REMARK  4 active torsions:
DOCKED: REMARK  status: ('A' for Active; 'I' for Inactive)
DOCKED: REMARK    1  A    between atoms: C_3  and  C_4
DOCKED: REMARK    2  A    between atoms: C_4  and  C_5
DOCKED: REMARK    3  A    between atoms: C_5  and  C_6
DOCKED: REMARK    4  A    between atoms: C_6  and  C_7
DOCKED: REMARK                            x       y       z     vdW  Elec       q    Type
DOCKED: REMARK                         _______ _______ _______ _____ _____    ______ ____
DOCKED: USER                              x       y       z     vdW  Elec       q    Type
DOCKED: USER                           _______ _______ _______ _____ _____    ______ ____
DOCKED: ROOT
DOCKED: ATOM      1  C   UNL     1      22.708 -18.918  -0.556 -0.81 -0.00    +0.000 C 
DOCKED: ENDROOT
DOCKED: BRANCH   1   2
DOCKED: ATOM      2  C   UNL     1      21.364 -18.190  -0.699 -0.79 -0.00    +0.000 C 
DOCKED: BRANCH   2   5
DOCKED: ATOM      3  O   UNL     1      18.304 -20.314  -0.028 -0.92 -0.00    +0.000 OA
DOCKED: ATOM      4  N   UNL     1      19.315 -19.434   0.154 -0.75 -0.00    +0.000 N 
DOCKED: ATOM      5  C   UNL     1      20.231 -19.152  -0.908 -0.88 -0.00    +0.000 C 
DOCKED: ATOM      6  O   UNL     1      20.105 -19.736  -2.017 -2.35 -0.00    +0.000 OA
DOCKED: ATOM      7  H   UNL     1      19.423 -18.984   1.024 -0.28 -0.00    +0.000 HD
DOCKED: ENDBRANCH   2   5
DOCKED: ENDBRANCH   1   2
DOCKED: BRANCH   1   8
DOCKED: ATOM      8  C   UNL     1      23.636 -18.669  -1.753 -0.64 -0.00    +0.000 C 
DOCKED: BRANCH   8   9
DOCKED: ATOM      9  C   UNL     1      24.803 -17.810  -1.346 -0.62 -0.00    +0.000 A 
DOCKED: ATOM     10  C   UNL     1      25.062 -16.602  -2.016 -0.53 -0.00    +0.000 A 
DOCKED: ATOM     11  C   UNL     1      26.166 -15.821  -1.658 -0.41 -0.00    +0.000 A 
DOCKED: ATOM     12  C   UNL     1      27.022 -16.244  -0.639 -0.38 -0.00    +0.000 A 
DOCKED: ATOM     13  C   UNL     1      26.778 -17.451   0.024 -0.45 -0.00    +0.000 A 
DOCKED: ATOM     14  C   UNL     1      25.676 -18.235  -0.331 -0.61 -0.00    +0.000 A 
DOCKED: ENDBRANCH   8   9
DOCKED: ENDBRANCH   1   8
DOCKED: TORSDOF 4
DOCKED: TER
DOCKED: ENDMDL
________________________________________________________________________________


	BEGINNING GENETIC ALGORITHM DOCKING 80 of 100
Run: 80 Seed: 313155126 463383045 [ Run 80 of 100 GA/GALS ]
Beginning LAMARCKIAN GENETIC ALGORITHM (LGA), with a maximum of 2500000 energy evaluations.

Final-Value: -10.793


	FINAL GENETIC ALGORITHM DOCKED STATE
	_______________________________________________


Detailed state:  trans 23.599 -19.063 -0.070 quatxyzw 0.106213 -0.688778 0.660118 -0.280264 center 0.534 -0.142 0.039 ntor 4 31.9964 -70.1941 119.6112 58.2182
State:	 23.599 -19.063  -0.070   0.111 -0.718  0.688 -147.448     32.00  -70.19  119.61   58.22

DOCKED: MODEL       80
DOCKED: USER    Run = 80
DOCKED: USER    DPF = ligand_dock.biased.dpf
DOCKED: USER  
DOCKED: USER    Estimated Free Energy of Binding    =   -9.27 kcal/mol  [=(1)+(2)+(3)-(4)]
DOCKED: USER    Estimated Inhibition Constant, Ki   =  161.56 nM (nanomolar)  [Temperature = 298.15 K]
DOCKED: USER    
DOCKED: USER    (1) Final Intermolecular Energy     =  -10.46 kcal/mol
DOCKED: USER        vdW + Hbond + desolv Energy     =  -10.46 kcal/mol
DOCKED: USER        Electrostatic Energy            =   +0.00 kcal/mol
DOCKED: USER    (2) Final Total Internal Energy     =   -0.33 kcal/mol
DOCKED: USER    (3) Torsional Free Energy           =   +1.19 kcal/mol
DOCKED: USER    (4) Unbound System's Energy  [=(2)] =   -0.33 kcal/mol
DOCKED: USER    
DOCKED: USER    
DOCKED: USER    NEWDPF move ligand.pdbqt
DOCKED: USER    NEWDPF about 0.534000 -0.142000 0.039000
DOCKED: USER    NEWDPF tran0 23.598540 -19.063372 -0.070199
DOCKED: USER    NEWDPF quaternion0 0.106213 -0.688778 0.660118 -0.280264
DOCKED: USER    NEWDPF axisangle0 0.110647 -0.717535 0.687678 -147.448092
DOCKED: USER    NEWDPF quat0 0.110647 -0.717535 0.687678 -147.448092
DOCKED: USER    NEWDPF dihe0 32.00 -70.19 119.61 58.22 
DOCKED: USER  keepresnum = 1 
DOCKED: USER  
DOCKED: REMARK  Name = 
DOCKED: REMARK  4 active torsions:
DOCKED: REMARK  status: ('A' for Active; 'I' for Inactive)
DOCKED: REMARK    1  A    between atoms: C_3  and  C_4
DOCKED: REMARK    2  A    between atoms: C_4  and  C_5
DOCKED: REMARK    3  A    between atoms: C_5  and  C_6
DOCKED: REMARK    4  A    between atoms: C_6  and  C_7
DOCKED: REMARK                            x       y       z     vdW  Elec       q    Type
DOCKED: REMARK                         _______ _______ _______ _____ _____    ______ ____
DOCKED: USER                              x       y       z     vdW  Elec       q    Type
DOCKED: USER                           _______ _______ _______ _____ _____    ______ ____
DOCKED: ROOT
DOCKED: ATOM      1  C   UNL     1      22.741 -18.842  -1.125 -0.81 -0.00    +0.000 C 
DOCKED: ENDROOT
DOCKED: BRANCH   1   2
DOCKED: ATOM      2  C   UNL     1      21.396 -18.231  -0.706 -0.82 -0.00    +0.000 C 
DOCKED: BRANCH   2   5
DOCKED: ATOM      3  O   UNL     1      18.284 -20.308  -0.133 -0.92 -0.00    +0.000 OA
DOCKED: ATOM      4  N   UNL     1      19.303 -19.443   0.081 -0.76 -0.00    +0.000 N 
DOCKED: ATOM      5  C   UNL     1      20.256 -19.177  -0.950 -0.88 -0.00    +0.000 C 
DOCKED: ATOM      6  O   UNL     1      20.158 -19.760  -2.063 -2.34 -0.00    +0.000 OA
DOCKED: ATOM      7  H   UNL     1      19.388 -18.993   0.953 -0.26 -0.00    +0.000 HD
DOCKED: ENDBRANCH   2   5
DOCKED: ENDBRANCH   1   2
DOCKED: BRANCH   1   8
DOCKED: ATOM      8  C   UNL     1      23.860 -18.529  -0.124 -0.67 -0.00    +0.000 C 
DOCKED: BRANCH   8   9
DOCKED: ATOM      9  C   UNL     1      24.958 -17.742  -0.788 -0.63 -0.00    +0.000 A 
DOCKED: ATOM     10  C   UNL     1      26.283 -17.850  -0.334 -0.56 -0.00    +0.000 A 
DOCKED: ATOM     11  C   UNL     1      27.296 -17.093  -0.931 -0.42 -0.00    +0.000 A 
DOCKED: ATOM     12  C   UNL     1      26.993 -16.218  -1.977 -0.35 -0.00    +0.000 A 
DOCKED: ATOM     13  C   UNL     1      25.674 -16.095  -2.426 -0.48 -0.00    +0.000 A 
DOCKED: ATOM     14  C   UNL     1      24.658 -16.849  -1.831 -0.55 -0.00    +0.000 A 
DOCKED: ENDBRANCH   8   9
DOCKED: ENDBRANCH   1   8
DOCKED: TORSDOF 4
DOCKED: TER
DOCKED: ENDMDL
________________________________________________________________________________


	BEGINNING GENETIC ALGORITHM DOCKING 81 of 100
Run: 81 Seed: 1134893909 1172901538 [ Run 81 of 100 GA/GALS ]
Beginning LAMARCKIAN GENETIC ALGORITHM (LGA), with a maximum of 2500000 energy evaluations.

Final-Value: -11.267


	FINAL GENETIC ALGORITHM DOCKED STATE
	_______________________________________________


Detailed state:  trans 25.179 -18.186 -1.043 quatxyzw 0.483701 -0.750689 0.388760 -0.226638 center 0.534 -0.142 0.039 ntor 4 -17.8085 -118.2252 -73.0371 19.7237
State:	 25.179 -18.186  -1.043   0.497 -0.771  0.399 -153.802    -17.81 -118.23  -73.04   19.72

DOCKED: MODEL       81
DOCKED: USER    Run = 81
DOCKED: USER    DPF = ligand_dock.biased.dpf
DOCKED: USER  
DOCKED: USER    Estimated Free Energy of Binding    =   -9.74 kcal/mol  [=(1)+(2)+(3)-(4)]
DOCKED: USER    Estimated Inhibition Constant, Ki   =   72.39 nM (nanomolar)  [Temperature = 298.15 K]
DOCKED: USER    
DOCKED: USER    (1) Final Intermolecular Energy     =  -10.93 kcal/mol
DOCKED: USER        vdW + Hbond + desolv Energy     =  -10.93 kcal/mol
DOCKED: USER        Electrostatic Energy            =   +0.00 kcal/mol
DOCKED: USER    (2) Final Total Internal Energy     =   -0.33 kcal/mol
DOCKED: USER    (3) Torsional Free Energy           =   +1.19 kcal/mol
DOCKED: USER    (4) Unbound System's Energy  [=(2)] =   -0.33 kcal/mol
DOCKED: USER    
DOCKED: USER    
DOCKED: USER    NEWDPF move ligand.pdbqt
DOCKED: USER    NEWDPF about 0.534000 -0.142000 0.039000
DOCKED: USER    NEWDPF tran0 25.178502 -18.185733 -1.043334
DOCKED: USER    NEWDPF quaternion0 0.483701 -0.750689 0.388760 -0.226638
DOCKED: USER    NEWDPF axisangle0 0.496623 -0.770745 0.399146 -153.801553
DOCKED: USER    NEWDPF quat0 0.496623 -0.770745 0.399146 -153.801553
DOCKED: USER    NEWDPF dihe0 -17.81 -118.23 -73.04 19.72 
DOCKED: USER  keepresnum = 1 
DOCKED: USER  
DOCKED: REMARK  Name = 
DOCKED: REMARK  4 active torsions:
DOCKED: REMARK  status: ('A' for Active; 'I' for Inactive)
DOCKED: REMARK    1  A    between atoms: C_3  and  C_4
DOCKED: REMARK    2  A    between atoms: C_4  and  C_5
DOCKED: REMARK    3  A    between atoms: C_5  and  C_6
DOCKED: REMARK    4  A    between atoms: C_6  and  C_7
DOCKED: REMARK                            x       y       z     vdW  Elec       q    Type
DOCKED: REMARK                         _______ _______ _______ _____ _____    ______ ____
DOCKED: USER                              x       y       z     vdW  Elec       q    Type
DOCKED: USER                           _______ _______ _______ _____ _____    ______ ____
DOCKED: ROOT
DOCKED: ATOM      1  C   UNL     1      23.862 -17.954  -1.378 -0.76 -0.00    +0.000 C 
DOCKED: ENDROOT
DOCKED: BRANCH   1   2
DOCKED: ATOM      2  C   UNL     1      22.863 -18.465  -0.331 -0.83 -0.00    +0.000 C 
DOCKED: BRANCH   2   5
DOCKED: ATOM      3  O   UNL     1      19.876 -19.840  -2.205 -2.27 -0.00    +0.000 OA
DOCKED: ATOM      4  N   UNL     1      21.118 -19.733  -1.680 -0.65 -0.00    +0.000 N 
DOCKED: ATOM      5  C   UNL     1      21.479 -18.591  -0.898 -0.83 -0.00    +0.000 C 
DOCKED: ATOM      6  O   UNL     1      20.641 -17.670  -0.708 -2.21 +0.00    +0.000 OA
DOCKED: ATOM      7  H   UNL     1      21.779 -20.447  -1.836 -0.43 -0.00    +0.000 HD
DOCKED: ENDBRANCH   2   5
DOCKED: ENDBRANCH   1   2
DOCKED: BRANCH   1   8
DOCKED: ATOM      8  C   UNL     1      25.240 -17.657  -0.772 -0.68 -0.00    +0.000 C 
DOCKED: BRANCH   8   9
DOCKED: ATOM      9  C   UNL     1      25.996 -16.680  -1.633 -0.48 -0.00    +0.000 A 
DOCKED: ATOM     10  C   UNL     1      25.321 -15.917  -2.600 -0.47 -0.00    +0.000 A 
DOCKED: ATOM     11  C   UNL     1      26.029 -15.034  -3.421 -0.47 -0.00    +0.000 A 
DOCKED: ATOM     12  C   UNL     1      27.415 -14.914  -3.289 -0.27 -0.00    +0.000 A 
DOCKED: ATOM     13  C   UNL     1      28.096 -15.680  -2.338 -0.23 -0.00    +0.000 A 
DOCKED: ATOM     14  C   UNL     1      27.391 -16.564  -1.515 -0.35 -0.00    +0.000 A 
DOCKED: ENDBRANCH   8   9
DOCKED: ENDBRANCH   1   8
DOCKED: TORSDOF 4
DOCKED: TER
DOCKED: ENDMDL
________________________________________________________________________________


	BEGINNING GENETIC ALGORITHM DOCKING 82 of 100
Run: 82 Seed: 393501615 1903729692 [ Run 82 of 100 GA/GALS ]
Beginning LAMARCKIAN GENETIC ALGORITHM (LGA), with a maximum of 2500000 energy evaluations.

Final-Value: -10.680


	FINAL GENETIC ALGORITHM DOCKED STATE
	_______________________________________________


Detailed state:  trans 24.065 -17.238 -1.801 quatxyzw 0.410376 -0.667679 -0.578703 -0.225609 center 0.534 -0.142 0.039 ntor 4 47.5153 -37.6486 -178.0815 38.0262
State:	 24.065 -17.238  -1.801   0.421 -0.685 -0.594 -153.923     47.52  -37.65 -178.08   38.03

DOCKED: MODEL       82
DOCKED: USER    Run = 82
DOCKED: USER    DPF = ligand_dock.biased.dpf
DOCKED: USER  
DOCKED: USER    Estimated Free Energy of Binding    =   -9.15 kcal/mol  [=(1)+(2)+(3)-(4)]
DOCKED: USER    Estimated Inhibition Constant, Ki   =  197.21 nM (nanomolar)  [Temperature = 298.15 K]
DOCKED: USER    
DOCKED: USER    (1) Final Intermolecular Energy     =  -10.34 kcal/mol
DOCKED: USER        vdW + Hbond + desolv Energy     =  -10.34 kcal/mol
DOCKED: USER        Electrostatic Energy            =   +0.00 kcal/mol
DOCKED: USER    (2) Final Total Internal Energy     =   -0.34 kcal/mol
DOCKED: USER    (3) Torsional Free Energy           =   +1.19 kcal/mol
DOCKED: USER    (4) Unbound System's Energy  [=(2)] =   -0.34 kcal/mol
DOCKED: USER    
DOCKED: USER    
DOCKED: USER    NEWDPF move ligand.pdbqt
DOCKED: USER    NEWDPF about 0.534000 -0.142000 0.039000
DOCKED: USER    NEWDPF tran0 24.064728 -17.237847 -1.801146
DOCKED: USER    NEWDPF quaternion0 0.410376 -0.667679 -0.578703 -0.225609
DOCKED: USER    NEWDPF axisangle0 0.421236 -0.685348 -0.594018 -153.922642
DOCKED: USER    NEWDPF quat0 0.421236 -0.685348 -0.594018 -153.922642
DOCKED: USER    NEWDPF dihe0 47.52 -37.65 -178.08 38.03 
DOCKED: USER  keepresnum = 1 
DOCKED: USER  
DOCKED: REMARK  Name = 
DOCKED: REMARK  4 active torsions:
DOCKED: REMARK  status: ('A' for Active; 'I' for Inactive)
DOCKED: REMARK    1  A    between atoms: C_3  and  C_4
DOCKED: REMARK    2  A    between atoms: C_4  and  C_5
DOCKED: REMARK    3  A    between atoms: C_5  and  C_6
DOCKED: REMARK    4  A    between atoms: C_6  and  C_7
DOCKED: REMARK                            x       y       z     vdW  Elec       q    Type
DOCKED: REMARK                         _______ _______ _______ _____ _____    ______ ____
DOCKED: USER                              x       y       z     vdW  Elec       q    Type
DOCKED: USER                           _______ _______ _______ _____ _____    ______ ____
DOCKED: ROOT
DOCKED: ATOM      1  C   UNL     1      23.589 -17.427  -0.522 -0.71 -0.00    +0.000 C 
DOCKED: ENDROOT
DOCKED: BRANCH   1   2
DOCKED: ATOM      2  C   UNL     1      22.847 -18.757  -0.333 -0.81 -0.00    +0.000 C 
DOCKED: BRANCH   2   5
DOCKED: ATOM      3  O   UNL     1      19.520 -19.733  -1.852 -2.13 -0.00    +0.000 OA
DOCKED: ATOM      4  N   UNL     1      20.795 -19.811  -1.406 -0.73 -0.00    +0.000 N 
DOCKED: ATOM      5  C   UNL     1      21.427 -18.674  -0.811 -0.85 -0.00    +0.000 C 
DOCKED: ATOM      6  O   UNL     1      20.798 -17.587  -0.713 -2.13 +0.00    +0.000 OA
DOCKED: ATOM      7  H   UNL     1      21.292 -20.658  -1.491 -0.19 -0.00    +0.000 HD
DOCKED: ENDBRANCH   2   5
DOCKED: ENDBRANCH   1   2
DOCKED: BRANCH   1   8
DOCKED: ATOM      8  C   UNL     1      24.597 -17.481  -1.678 -0.68 -0.00    +0.000 C 
DOCKED: BRANCH   8   9
DOCKED: ATOM      9  C   UNL     1      25.869 -16.770  -1.303 -0.50 -0.00    +0.000 A 
DOCKED: ATOM     10  C   UNL     1      26.008 -15.392  -1.540 -0.39 -0.00    +0.000 A 
DOCKED: ATOM     11  C   UNL     1      27.202 -14.739  -1.221 -0.24 -0.00    +0.000 A 
DOCKED: ATOM     12  C   UNL     1      28.268 -15.457  -0.673 -0.22 -0.00    +0.000 A 
DOCKED: ATOM     13  C   UNL     1      28.143 -16.831  -0.446 -0.30 -0.00    +0.000 A 
DOCKED: ATOM     14  C   UNL     1      26.950 -17.488  -0.764 -0.47 -0.00    +0.000 A 
DOCKED: ENDBRANCH   8   9
DOCKED: ENDBRANCH   1   8
DOCKED: TORSDOF 4
DOCKED: TER
DOCKED: ENDMDL
________________________________________________________________________________


	BEGINNING GENETIC ALGORITHM DOCKING 83 of 100
Run: 83 Seed: 1530799546 2028206089 [ Run 83 of 100 GA/GALS ]
Beginning LAMARCKIAN GENETIC ALGORITHM (LGA), with a maximum of 2500000 energy evaluations.

Final-Value: -10.930


	FINAL GENETIC ALGORITHM DOCKED STATE
	_______________________________________________


Detailed state:  trans 25.022 -17.618 -0.258 quatxyzw -0.522644 0.472902 0.649096 -0.286150 center 0.534 -0.142 0.039 ntor 4 104.0977 -110.0152 -146.6597 -110.5239
State:	 25.022 -17.618  -0.258  -0.545  0.494  0.677 -146.745    104.10 -110.02 -146.66 -110.52

DOCKED: MODEL       83
DOCKED: USER    Run = 83
DOCKED: USER    DPF = ligand_dock.biased.dpf
DOCKED: USER  
DOCKED: USER    Estimated Free Energy of Binding    =   -9.48 kcal/mol  [=(1)+(2)+(3)-(4)]
DOCKED: USER    Estimated Inhibition Constant, Ki   =  112.96 nM (nanomolar)  [Temperature = 298.15 K]
DOCKED: USER    
DOCKED: USER    (1) Final Intermolecular Energy     =  -10.67 kcal/mol
DOCKED: USER        vdW + Hbond + desolv Energy     =  -10.67 kcal/mol
DOCKED: USER        Electrostatic Energy            =   +0.00 kcal/mol
DOCKED: USER    (2) Final Total Internal Energy     =   -0.26 kcal/mol
DOCKED: USER    (3) Torsional Free Energy           =   +1.19 kcal/mol
DOCKED: USER    (4) Unbound System's Energy  [=(2)] =   -0.26 kcal/mol
DOCKED: USER    
DOCKED: USER    
DOCKED: USER    NEWDPF move ligand.pdbqt
DOCKED: USER    NEWDPF about 0.534000 -0.142000 0.039000
DOCKED: USER    NEWDPF tran0 25.022363 -17.617722 -0.258415
DOCKED: USER    NEWDPF quaternion0 -0.522644 0.472902 0.649096 -0.286150
DOCKED: USER    NEWDPF axisangle0 -0.545452 0.493539 0.677422 -146.744742
DOCKED: USER    NEWDPF quat0 -0.545452 0.493539 0.677422 -146.744742
DOCKED: USER    NEWDPF dihe0 104.10 -110.02 -146.66 -110.52 
DOCKED: USER  keepresnum = 1 
DOCKED: USER  
DOCKED: REMARK  Name = 
DOCKED: REMARK  4 active torsions:
DOCKED: REMARK  status: ('A' for Active; 'I' for Inactive)
DOCKED: REMARK    1  A    between atoms: C_3  and  C_4
DOCKED: REMARK    2  A    between atoms: C_4  and  C_5
DOCKED: REMARK    3  A    between atoms: C_5  and  C_6
DOCKED: REMARK    4  A    between atoms: C_6  and  C_7
DOCKED: REMARK                            x       y       z     vdW  Elec       q    Type
DOCKED: REMARK                         _______ _______ _______ _____ _____    ______ ____
DOCKED: USER                              x       y       z     vdW  Elec       q    Type
DOCKED: USER                           _______ _______ _______ _____ _____    ______ ____
DOCKED: ROOT
DOCKED: ATOM      1  C   UNL     1      23.799 -18.203  -0.017 -0.72 -0.00    +0.000 C 
DOCKED: ENDROOT
DOCKED: BRANCH   1   2
DOCKED: ATOM      2  C   UNL     1      23.128 -18.767  -1.278 -0.79 -0.00    +0.000 C 
DOCKED: BRANCH   2   5
DOCKED: ATOM      3  O   UNL     1      19.511 -19.736  -1.830 -2.14 -0.00    +0.000 OA
DOCKED: ATOM      4  N   UNL     1      20.859 -19.706  -1.942 -0.65 -0.00    +0.000 N 
DOCKED: ATOM      5  C   UNL     1      21.634 -18.812  -1.140 -0.78 -0.00    +0.000 C 
DOCKED: ATOM      6  O   UNL     1      21.059 -18.036  -0.331 -1.88 -0.00    +0.000 OA
DOCKED: ATOM      7  H   UNL     1      21.310 -20.305  -2.581 -0.57 -0.00    +0.000 HD
DOCKED: ENDBRANCH   2   5
DOCKED: ENDBRANCH   1   2
DOCKED: BRANCH   1   8
DOCKED: ATOM      8  C   UNL     1      25.325 -18.123  -0.156 -0.68 -0.00    +0.000 C 
DOCKED: BRANCH   8   9
DOCKED: ATOM      9  C   UNL     1      25.712 -17.012  -1.095 -0.53 -0.00    +0.000 A 
DOCKED: ATOM     10  C   UNL     1      25.223 -16.993  -2.412 -0.44 -0.00    +0.000 A 
DOCKED: ATOM     11  C   UNL     1      25.609 -15.978  -3.292 -0.46 -0.00    +0.000 A 
DOCKED: ATOM     12  C   UNL     1      26.493 -14.982  -2.868 -0.37 -0.00    +0.000 A 
DOCKED: ATOM     13  C   UNL     1      26.995 -15.001  -1.563 -0.27 -0.00    +0.000 A 
DOCKED: ATOM     14  C   UNL     1      26.611 -16.015  -0.680 -0.38 -0.00    +0.000 A 
DOCKED: ENDBRANCH   8   9
DOCKED: ENDBRANCH   1   8
DOCKED: TORSDOF 4
DOCKED: TER
DOCKED: ENDMDL
________________________________________________________________________________


	BEGINNING GENETIC ALGORITHM DOCKING 84 of 100
Run: 84 Seed: 1516837011 1570566178 [ Run 84 of 100 GA/GALS ]
Beginning LAMARCKIAN GENETIC ALGORITHM (LGA), with a maximum of 2500000 energy evaluations.

Final-Value: -10.906


	FINAL GENETIC ALGORITHM DOCKED STATE
	_______________________________________________


Detailed state:  trans 25.043 -18.325 -0.255 quatxyzw -0.020868 0.190208 0.815302 -0.546506 center 0.534 -0.142 0.039 ntor 4 -116.2576 -175.6055 167.3452 -149.3313
State:	 25.043 -18.325  -0.255  -0.025  0.227  0.974 -113.745   -116.26 -175.61  167.35 -149.33

DOCKED: MODEL       84
DOCKED: USER    Run = 84
DOCKED: USER    DPF = ligand_dock.biased.dpf
DOCKED: USER  
DOCKED: USER    Estimated Free Energy of Binding    =   -9.18 kcal/mol  [=(1)+(2)+(3)-(4)]
DOCKED: USER    Estimated Inhibition Constant, Ki   =  185.58 nM (nanomolar)  [Temperature = 298.15 K]
DOCKED: USER    
DOCKED: USER    (1) Final Intermolecular Energy     =  -10.38 kcal/mol
DOCKED: USER        vdW + Hbond + desolv Energy     =  -10.38 kcal/mol
DOCKED: USER        Electrostatic Energy            =   +0.00 kcal/mol
DOCKED: USER    (2) Final Total Internal Energy     =   -0.53 kcal/mol
DOCKED: USER    (3) Torsional Free Energy           =   +1.19 kcal/mol
DOCKED: USER    (4) Unbound System's Energy  [=(2)] =   -0.53 kcal/mol
DOCKED: USER    
DOCKED: USER    
DOCKED: USER    NEWDPF move ligand.pdbqt
DOCKED: USER    NEWDPF about 0.534000 -0.142000 0.039000
DOCKED: USER    NEWDPF tran0 25.043398 -18.325473 -0.255069
DOCKED: USER    NEWDPF quaternion0 -0.020868 0.190208 0.815302 -0.546506
DOCKED: USER    NEWDPF axisangle0 -0.024918 0.227126 0.973547 -113.744769
DOCKED: USER    NEWDPF quat0 -0.024918 0.227126 0.973547 -113.744769
DOCKED: USER    NEWDPF dihe0 -116.26 -175.61 167.35 -149.33 
DOCKED: USER  keepresnum = 1 
DOCKED: USER  
DOCKED: REMARK  Name = 
DOCKED: REMARK  4 active torsions:
DOCKED: REMARK  status: ('A' for Active; 'I' for Inactive)
DOCKED: REMARK    1  A    between atoms: C_3  and  C_4
DOCKED: REMARK    2  A    between atoms: C_4  and  C_5
DOCKED: REMARK    3  A    between atoms: C_5  and  C_6
DOCKED: REMARK    4  A    between atoms: C_6  and  C_7
DOCKED: REMARK                            x       y       z     vdW  Elec       q    Type
DOCKED: REMARK                         _______ _______ _______ _____ _____    ______ ____
DOCKED: USER                              x       y       z     vdW  Elec       q    Type
DOCKED: USER                           _______ _______ _______ _____ _____    ______ ____
DOCKED: ROOT
DOCKED: ATOM      1  C   UNL     1      23.732 -18.612   0.057 -0.59 -0.00    +0.000 C 
DOCKED: ENDROOT
DOCKED: BRANCH   1   2
DOCKED: ATOM      2  C   UNL     1      22.740 -17.539  -0.411 -0.76 -0.00    +0.000 C 
DOCKED: BRANCH   2   5
DOCKED: ATOM      3  O   UNL     1      20.306 -20.067  -1.828 -2.28 -0.00    +0.000 OA
DOCKED: ATOM      4  N   UNL     1      21.440 -19.523  -1.330 -0.70 -0.00    +0.000 N 
DOCKED: ATOM      5  C   UNL     1      21.476 -18.146  -0.946 -0.70 -0.00    +0.000 C 
DOCKED: ATOM      6  O   UNL     1      20.449 -17.429  -1.082 -2.01 -0.00    +0.000 OA
DOCKED: ATOM      7  H   UNL     1      22.247 -20.079  -1.232 -0.27 -0.00    +0.000 HD
DOCKED: ENDBRANCH   2   5
DOCKED: ENDBRANCH   1   2
DOCKED: BRANCH   1   8
DOCKED: ATOM      8  C   UNL     1      25.021 -18.618  -0.776 -0.61 -0.00    +0.000 C 
DOCKED: BRANCH   8   9
DOCKED: ATOM      9  C   UNL     1      25.369 -17.222  -1.219 -0.57 -0.00    +0.000 A 
DOCKED: ATOM     10  C   UNL     1      25.121 -16.813  -2.540 -0.44 -0.00    +0.000 A 
DOCKED: ATOM     11  C   UNL     1      25.475 -15.527  -2.957 -0.49 -0.00    +0.000 A 
DOCKED: ATOM     12  C   UNL     1      26.088 -14.644  -2.065 -0.32 -0.00    +0.000 A 
DOCKED: ATOM     13  C   UNL     1      26.350 -15.047  -0.751 -0.33 -0.00    +0.000 A 
DOCKED: ATOM     14  C   UNL     1      25.998 -16.333  -0.330 -0.31 -0.00    +0.000 A 
DOCKED: ENDBRANCH   8   9
DOCKED: ENDBRANCH   1   8
DOCKED: TORSDOF 4
DOCKED: TER
DOCKED: ENDMDL
________________________________________________________________________________


	BEGINNING GENETIC ALGORITHM DOCKING 85 of 100
Run: 85 Seed: 1462304328 1666671887 [ Run 85 of 100 GA/GALS ]
Beginning LAMARCKIAN GENETIC ALGORITHM (LGA), with a maximum of 2500000 energy evaluations.

Final-Value: -11.145


	FINAL GENETIC ALGORITHM DOCKED STATE
	_______________________________________________


Detailed state:  trans 24.852 -17.250 -1.775 quatxyzw -0.570014 0.744415 0.318883 0.138726 center 0.534 -0.142 0.039 ntor 4 37.4965 -79.2046 -179.1684 -25.4539
State:	 24.852 -17.250  -1.775  -0.576  0.752  0.322 164.052     37.50  -79.20 -179.17  -25.45

DOCKED: MODEL       85
DOCKED: USER    Run = 85
DOCKED: USER    DPF = ligand_dock.biased.dpf
DOCKED: USER  
DOCKED: USER    Estimated Free Energy of Binding    =   -9.62 kcal/mol  [=(1)+(2)+(3)-(4)]
DOCKED: USER    Estimated Inhibition Constant, Ki   =   88.76 nM (nanomolar)  [Temperature = 298.15 K]
DOCKED: USER    
DOCKED: USER    (1) Final Intermolecular Energy     =  -10.81 kcal/mol
DOCKED: USER        vdW + Hbond + desolv Energy     =  -10.81 kcal/mol
DOCKED: USER        Electrostatic Energy            =   +0.00 kcal/mol
DOCKED: USER    (2) Final Total Internal Energy     =   -0.33 kcal/mol
DOCKED: USER    (3) Torsional Free Energy           =   +1.19 kcal/mol
DOCKED: USER    (4) Unbound System's Energy  [=(2)] =   -0.33 kcal/mol
DOCKED: USER    
DOCKED: USER    
DOCKED: USER    NEWDPF move ligand.pdbqt
DOCKED: USER    NEWDPF about 0.534000 -0.142000 0.039000
DOCKED: USER    NEWDPF tran0 24.851808 -17.250466 -1.775174
DOCKED: USER    NEWDPF quaternion0 -0.570014 0.744415 0.318883 0.138726
DOCKED: USER    NEWDPF axisangle0 -0.575579 0.751683 0.321996 164.051747
DOCKED: USER    NEWDPF quat0 -0.575579 0.751683 0.321996 164.051747
DOCKED: USER    NEWDPF dihe0 37.50 -79.20 -179.17 -25.45 
DOCKED: USER  keepresnum = 1 
DOCKED: USER  
DOCKED: REMARK  Name = 
DOCKED: REMARK  4 active torsions:
DOCKED: REMARK  status: ('A' for Active; 'I' for Inactive)
DOCKED: REMARK    1  A    between atoms: C_3  and  C_4
DOCKED: REMARK    2  A    between atoms: C_4  and  C_5
DOCKED: REMARK    3  A    between atoms: C_5  and  C_6
DOCKED: REMARK    4  A    between atoms: C_6  and  C_7
DOCKED: REMARK                            x       y       z     vdW  Elec       q    Type
DOCKED: REMARK                         _______ _______ _______ _____ _____    ______ ____
DOCKED: USER                              x       y       z     vdW  Elec       q    Type
DOCKED: USER                           _______ _______ _______ _____ _____    ______ ____
DOCKED: ROOT
DOCKED: ATOM      1  C   UNL     1      23.773 -17.247  -0.918 -0.71 -0.00    +0.000 C 
DOCKED: ENDROOT
DOCKED: BRANCH   1   2
DOCKED: ATOM      2  C   UNL     1      23.154 -18.635  -0.703 -0.83 -0.00    +0.000 C 
DOCKED: BRANCH   2   5
DOCKED: ATOM      3  O   UNL     1      19.838 -19.743  -2.153 -2.28 -0.00    +0.000 OA
DOCKED: ATOM      4  N   UNL     1      21.149 -19.734  -1.819 -0.59 -0.00    +0.000 N 
DOCKED: ATOM      5  C   UNL     1      21.696 -18.653  -1.058 -0.81 -0.00    +0.000 C 
DOCKED: ATOM      6  O   UNL     1      20.956 -17.695  -0.707 -2.14 -0.00    +0.000 OA
DOCKED: ATOM      7  H   UNL     1      21.731 -20.476  -2.101 -0.50 -0.00    +0.000 HD
DOCKED: ENDBRANCH   2   5
DOCKED: ENDBRANCH   1   2
DOCKED: BRANCH   1   8
DOCKED: ATOM      8  C   UNL     1      25.248 -17.325  -1.334 -0.65 -0.00    +0.000 C 
DOCKED: BRANCH   8   9
DOCKED: ATOM      9  C   UNL     1      25.662 -16.066  -2.049 -0.48 -0.00    +0.000 A 
DOCKED: ATOM     10  C   UNL     1      25.527 -15.965  -3.444 -0.44 -0.00    +0.000 A 
DOCKED: ATOM     11  C   UNL     1      25.942 -14.807  -4.109 -0.52 -0.00    +0.000 A 
DOCKED: ATOM     12  C   UNL     1      26.504 -13.749  -3.390 -0.30 -0.00    +0.000 A 
DOCKED: ATOM     13  C   UNL     1      26.655 -13.848  -2.003 -0.22 -0.00    +0.000 A 
DOCKED: ATOM     14  C   UNL     1      26.241 -15.004  -1.334 -0.33 -0.00    +0.000 A 
DOCKED: ENDBRANCH   8   9
DOCKED: ENDBRANCH   1   8
DOCKED: TORSDOF 4
DOCKED: TER
DOCKED: ENDMDL
________________________________________________________________________________


	BEGINNING GENETIC ALGORITHM DOCKING 86 of 100
Run: 86 Seed: 129820181 57525665 [ Run 86 of 100 GA/GALS ]
Beginning LAMARCKIAN GENETIC ALGORITHM (LGA), with a maximum of 2500000 energy evaluations.

Final-Value: -10.805


	FINAL GENETIC ALGORITHM DOCKED STATE
	_______________________________________________


Detailed state:  trans 25.060 -17.115 -0.963 quatxyzw 0.629031 -0.612151 0.478114 -0.031591 center 0.534 -0.142 0.039 ntor 4 6.0895 -160.5199 -20.3277 -53.8405
State:	 25.060 -17.115  -0.963   0.629 -0.612  0.478 -176.379      6.09 -160.52  -20.33  -53.84

DOCKED: MODEL       86
DOCKED: USER    Run = 86
DOCKED: USER    DPF = ligand_dock.biased.dpf
DOCKED: USER  
DOCKED: USER    Estimated Free Energy of Binding    =   -9.28 kcal/mol  [=(1)+(2)+(3)-(4)]
DOCKED: USER    Estimated Inhibition Constant, Ki   =  158.72 nM (nanomolar)  [Temperature = 298.15 K]
DOCKED: USER    
DOCKED: USER    (1) Final Intermolecular Energy     =  -10.47 kcal/mol
DOCKED: USER        vdW + Hbond + desolv Energy     =  -10.47 kcal/mol
DOCKED: USER        Electrostatic Energy            =   +0.00 kcal/mol
DOCKED: USER    (2) Final Total Internal Energy     =   -0.34 kcal/mol
DOCKED: USER    (3) Torsional Free Energy           =   +1.19 kcal/mol
DOCKED: USER    (4) Unbound System's Energy  [=(2)] =   -0.34 kcal/mol
DOCKED: USER    
DOCKED: USER    
DOCKED: USER    NEWDPF move ligand.pdbqt
DOCKED: USER    NEWDPF about 0.534000 -0.142000 0.039000
DOCKED: USER    NEWDPF tran0 25.059883 -17.115000 -0.962591
DOCKED: USER    NEWDPF quaternion0 0.629031 -0.612151 0.478114 -0.031591
DOCKED: USER    NEWDPF axisangle0 0.629345 -0.612457 0.478352 -176.379283
DOCKED: USER    NEWDPF quat0 0.629345 -0.612457 0.478352 -176.379283
DOCKED: USER    NEWDPF dihe0 6.09 -160.52 -20.33 -53.84 
DOCKED: USER  keepresnum = 1 
DOCKED: USER  
DOCKED: REMARK  Name = 
DOCKED: REMARK  4 active torsions:
DOCKED: REMARK  status: ('A' for Active; 'I' for Inactive)
DOCKED: REMARK    1  A    between atoms: C_3  and  C_4
DOCKED: REMARK    2  A    between atoms: C_4  and  C_5
DOCKED: REMARK    3  A    between atoms: C_5  and  C_6
DOCKED: REMARK    4  A    between atoms: C_6  and  C_7
DOCKED: REMARK                            x       y       z     vdW  Elec       q    Type
DOCKED: REMARK                         _______ _______ _______ _____ _____    ______ ____
DOCKED: USER                              x       y       z     vdW  Elec       q    Type
DOCKED: USER                           _______ _______ _______ _____ _____    ______ ____
DOCKED: ROOT
DOCKED: ATOM      1  C   UNL     1      23.909 -17.579  -1.561 -0.67 -0.00    +0.000 C 
DOCKED: ENDROOT
DOCKED: BRANCH   1   2
DOCKED: ATOM      2  C   UNL     1      23.145 -18.604  -0.712 -0.83 -0.00    +0.000 C 
DOCKED: BRANCH   2   5
DOCKED: ATOM      3  O   UNL     1      19.849 -19.753  -2.176 -2.28 -0.00    +0.000 OA
DOCKED: ATOM      4  N   UNL     1      21.160 -19.724  -1.842 -0.58 -0.00    +0.000 N 
DOCKED: ATOM      5  C   UNL     1      21.687 -18.644  -1.067 -0.81 -0.00    +0.000 C 
DOCKED: ATOM      6  O   UNL     1      20.931 -17.704  -0.705 -2.14 -0.00    +0.000 OA
DOCKED: ATOM      7  H   UNL     1      21.755 -20.453  -2.133 -0.52 -0.00    +0.000 HD
DOCKED: ENDBRANCH   2   5
DOCKED: ENDBRANCH   1   2
DOCKED: BRANCH   1   8
DOCKED: ATOM      8  C   UNL     1      24.783 -16.651  -0.707 -0.55 -0.00    +0.000 C 
DOCKED: BRANCH   8   9
DOCKED: ATOM      9  C   UNL     1      26.190 -16.611  -1.242 -0.46 -0.00    +0.000 A 
DOCKED: ATOM     10  C   UNL     1      26.464 -15.994  -2.474 -0.40 -0.00    +0.000 A 
DOCKED: ATOM     11  C   UNL     1      27.766 -15.986  -2.983 -0.26 -0.00    +0.000 A 
DOCKED: ATOM     12  C   UNL     1      28.800 -16.604  -2.274 -0.24 -0.00    +0.000 A 
DOCKED: ATOM     13  C   UNL     1      28.532 -17.232  -1.054 -0.29 -0.00    +0.000 A 
DOCKED: ATOM     14  C   UNL     1      27.232 -17.242  -0.541 -0.43 -0.00    +0.000 A 
DOCKED: ENDBRANCH   8   9
DOCKED: ENDBRANCH   1   8
DOCKED: TORSDOF 4
DOCKED: TER
DOCKED: ENDMDL
________________________________________________________________________________


	BEGINNING GENETIC ALGORITHM DOCKING 87 of 100
Run: 87 Seed: 433559940 1293243655 [ Run 87 of 100 GA/GALS ]
Beginning LAMARCKIAN GENETIC ALGORITHM (LGA), with a maximum of 2500000 energy evaluations.

Final-Value: -11.171


	FINAL GENETIC ALGORITHM DOCKED STATE
	_______________________________________________


Detailed state:  trans 24.844 -16.985 -1.214 quatxyzw -0.560965 0.357319 -0.740425 0.097016 center 0.534 -0.142 0.039 ntor 4 -14.6350 173.9843 -173.2219 -21.0846
State:	 24.844 -16.985  -1.214  -0.564  0.359 -0.744 168.865    -14.63  173.98 -173.22  -21.08

DOCKED: MODEL       87
DOCKED: USER    Run = 87
DOCKED: USER    DPF = ligand_dock.biased.dpf
DOCKED: USER  
DOCKED: USER    Estimated Free Energy of Binding    =   -9.63 kcal/mol  [=(1)+(2)+(3)-(4)]
DOCKED: USER    Estimated Inhibition Constant, Ki   =   87.39 nM (nanomolar)  [Temperature = 298.15 K]
DOCKED: USER    
DOCKED: USER    (1) Final Intermolecular Energy     =  -10.82 kcal/mol
DOCKED: USER        vdW + Hbond + desolv Energy     =  -10.82 kcal/mol
DOCKED: USER        Electrostatic Energy            =   +0.00 kcal/mol
DOCKED: USER    (2) Final Total Internal Energy     =   -0.35 kcal/mol
DOCKED: USER    (3) Torsional Free Energy           =   +1.19 kcal/mol
DOCKED: USER    (4) Unbound System's Energy  [=(2)] =   -0.35 kcal/mol
DOCKED: USER    
DOCKED: USER    
DOCKED: USER    NEWDPF move ligand.pdbqt
DOCKED: USER    NEWDPF about 0.534000 -0.142000 0.039000
DOCKED: USER    NEWDPF tran0 24.843769 -16.985469 -1.214256
DOCKED: USER    NEWDPF quaternion0 -0.560965 0.357319 -0.740425 0.097016
DOCKED: USER    NEWDPF axisangle0 -0.563624 0.359012 -0.743934 168.865311
DOCKED: USER    NEWDPF quat0 -0.563624 0.359012 -0.743934 168.865311
DOCKED: USER    NEWDPF dihe0 -14.63 173.98 -173.22 -21.08 
DOCKED: USER  keepresnum = 1 
DOCKED: USER  
DOCKED: REMARK  Name = 
DOCKED: REMARK  4 active torsions:
DOCKED: REMARK  status: ('A' for Active; 'I' for Inactive)
DOCKED: REMARK    1  A    between atoms: C_3  and  C_4
DOCKED: REMARK    2  A    between atoms: C_4  and  C_5
DOCKED: REMARK    3  A    between atoms: C_5  and  C_6
DOCKED: REMARK    4  A    between atoms: C_6  and  C_7
DOCKED: REMARK                            x       y       z     vdW  Elec       q    Type
DOCKED: REMARK                         _______ _______ _______ _____ _____    ______ ____
DOCKED: USER                              x       y       z     vdW  Elec       q    Type
DOCKED: USER                           _______ _______ _______ _____ _____    ______ ____
DOCKED: ROOT
DOCKED: ATOM      1  C   UNL     1      24.006 -18.004  -1.613 -0.71 -0.00    +0.000 C 
DOCKED: ENDROOT
DOCKED: BRANCH   1   2
DOCKED: ATOM      2  C   UNL     1      23.083 -18.513  -0.497 -0.82 -0.00    +0.000 C 
DOCKED: BRANCH   2   5
DOCKED: ATOM      3  O   UNL     1      19.880 -19.758  -2.082 -2.33 -0.00    +0.000 OA
DOCKED: ATOM      4  N   UNL     1      21.166 -19.710  -1.665 -0.63 -0.00    +0.000 N 
DOCKED: ATOM      5  C   UNL     1      21.652 -18.574  -0.944 -0.82 -0.00    +0.000 C 
DOCKED: ATOM      6  O   UNL     1      20.883 -17.605  -0.706 -2.12 +0.00    +0.000 OA
DOCKED: ATOM      7  H   UNL     1      21.772 -20.462  -1.858 -0.43 -0.00    +0.000 HD
DOCKED: ENDBRANCH   2   5
DOCKED: ENDBRANCH   1   2
DOCKED: BRANCH   1   8
DOCKED: ATOM      8  C   UNL     1      24.460 -16.557  -1.378 -0.57 -0.00    +0.000 C 
DOCKED: BRANCH   8   9
DOCKED: ATOM      9  C   UNL     1      25.674 -16.244  -2.212 -0.49 -0.00    +0.000 A 
DOCKED: ATOM     10  C   UNL     1      26.957 -16.588  -1.755 -0.38 -0.00    +0.000 A 
DOCKED: ATOM     11  C   UNL     1      28.086 -16.267  -2.516 -0.26 -0.00    +0.000 A 
DOCKED: ATOM     12  C   UNL     1      27.943 -15.592  -3.730 -0.29 -0.00    +0.000 A 
DOCKED: ATOM     13  C   UNL     1      26.670 -15.234  -4.186 -0.47 -0.00    +0.000 A 
DOCKED: ATOM     14  C   UNL     1      25.539 -15.553  -3.428 -0.50 -0.00    +0.000 A 
DOCKED: ENDBRANCH   8   9
DOCKED: ENDBRANCH   1   8
DOCKED: TORSDOF 4
DOCKED: TER
DOCKED: ENDMDL
________________________________________________________________________________


	BEGINNING GENETIC ALGORITHM DOCKING 88 of 100
Run: 88 Seed: 1825317228 1317907235 [ Run 88 of 100 GA/GALS ]
Beginning LAMARCKIAN GENETIC ALGORITHM (LGA), with a maximum of 2500000 energy evaluations.

Final-Value: -11.097


	FINAL GENETIC ALGORITHM DOCKED STATE
	_______________________________________________


Detailed state:  trans 25.242 -17.481 -1.533 quatxyzw 0.612051 -0.770230 0.114250 -0.138156 center 0.534 -0.142 0.039 ntor 4 21.5731 -118.4191 -72.5103 -24.4144
State:	 25.242 -17.481  -1.533   0.618 -0.778  0.115 -164.118     21.57 -118.42  -72.51  -24.41

DOCKED: MODEL       88
DOCKED: USER    Run = 88
DOCKED: USER    DPF = ligand_dock.biased.dpf
DOCKED: USER  
DOCKED: USER    Estimated Free Energy of Binding    =   -9.59 kcal/mol  [=(1)+(2)+(3)-(4)]
DOCKED: USER    Estimated Inhibition Constant, Ki   =   93.79 nM (nanomolar)  [Temperature = 298.15 K]
DOCKED: USER    
DOCKED: USER    (1) Final Intermolecular Energy     =  -10.78 kcal/mol
DOCKED: USER        vdW + Hbond + desolv Energy     =  -10.78 kcal/mol
DOCKED: USER        Electrostatic Energy            =   +0.00 kcal/mol
DOCKED: USER    (2) Final Total Internal Energy     =   -0.32 kcal/mol
DOCKED: USER    (3) Torsional Free Energy           =   +1.19 kcal/mol
DOCKED: USER    (4) Unbound System's Energy  [=(2)] =   -0.32 kcal/mol
DOCKED: USER    
DOCKED: USER    
DOCKED: USER    NEWDPF move ligand.pdbqt
DOCKED: USER    NEWDPF about 0.534000 -0.142000 0.039000
DOCKED: USER    NEWDPF tran0 25.241921 -17.481254 -1.533172
DOCKED: USER    NEWDPF quaternion0 0.612051 -0.770230 0.114250 -0.138156
DOCKED: USER    NEWDPF axisangle0 0.617977 -0.777687 0.115356 -164.117685
DOCKED: USER    NEWDPF quat0 0.617977 -0.777687 0.115356 -164.117685
DOCKED: USER    NEWDPF dihe0 21.57 -118.42 -72.51 -24.41 
DOCKED: USER  keepresnum = 1 
DOCKED: USER  
DOCKED: REMARK  Name = 
DOCKED: REMARK  4 active torsions:
DOCKED: REMARK  status: ('A' for Active; 'I' for Inactive)
DOCKED: REMARK    1  A    between atoms: C_3  and  C_4
DOCKED: REMARK    2  A    between atoms: C_4  and  C_5
DOCKED: REMARK    3  A    between atoms: C_5  and  C_6
DOCKED: REMARK    4  A    between atoms: C_6  and  C_7
DOCKED: REMARK                            x       y       z     vdW  Elec       q    Type
DOCKED: REMARK                         _______ _______ _______ _____ _____    ______ ____
DOCKED: USER                              x       y       z     vdW  Elec       q    Type
DOCKED: USER                           _______ _______ _______ _____ _____    ______ ____
DOCKED: ROOT
DOCKED: ATOM      1  C   UNL     1      23.874 -17.344  -1.441 -0.68 -0.00    +0.000 C 
DOCKED: ENDROOT
DOCKED: BRANCH   1   2
DOCKED: ATOM      2  C   UNL     1      23.189 -18.498  -0.696 -0.83 -0.00    +0.000 C 
DOCKED: BRANCH   2   5
DOCKED: ATOM      3  O   UNL     1      19.802 -19.735  -1.844 -2.34 -0.00    +0.000 OA
DOCKED: ATOM      4  N   UNL     1      21.127 -19.700  -1.576 -0.68 -0.00    +0.000 N 
DOCKED: ATOM      5  C   UNL     1      21.715 -18.543  -0.976 -0.81 -0.00    +0.000 C 
DOCKED: ATOM      6  O   UNL     1      20.999 -17.543  -0.706 -2.09 -0.00    +0.000 OA
DOCKED: ATOM      7  H   UNL     1      21.692 -20.477  -1.796 -0.41 -0.00    +0.000 HD
DOCKED: ENDBRANCH   2   5
DOCKED: ENDBRANCH   1   2
DOCKED: BRANCH   1   8
DOCKED: ATOM      8  C   UNL     1      25.343 -17.175  -1.030 -0.64 -0.00    +0.000 C 
DOCKED: BRANCH   8   9
DOCKED: ATOM      9  C   UNL     1      26.108 -16.436  -2.096 -0.45 -0.00    +0.000 A 
DOCKED: ATOM     10  C   UNL     1      25.424 -15.704  -3.081 -0.45 -0.00    +0.000 A 
DOCKED: ATOM     11  C   UNL     1      26.136 -15.045  -4.088 -0.51 -0.00    +0.000 A 
DOCKED: ATOM     12  C   UNL     1      27.530 -15.121  -4.126 -0.34 -0.00    +0.000 A 
DOCKED: ATOM     13  C   UNL     1      28.217 -15.860  -3.157 -0.24 -0.00    +0.000 A 
DOCKED: ATOM     14  C   UNL     1      27.509 -16.520  -2.148 -0.30 -0.00    +0.000 A 
DOCKED: ENDBRANCH   8   9
DOCKED: ENDBRANCH   1   8
DOCKED: TORSDOF 4
DOCKED: TER
DOCKED: ENDMDL
________________________________________________________________________________


	BEGINNING GENETIC ALGORITHM DOCKING 89 of 100
Run: 89 Seed: 1747821037 444975926 [ Run 89 of 100 GA/GALS ]
Beginning LAMARCKIAN GENETIC ALGORITHM (LGA), with a maximum of 2500000 energy evaluations.

Final-Value: -11.121


	FINAL GENETIC ALGORITHM DOCKED STATE
	_______________________________________________


Detailed state:  trans 25.369 -17.656 -0.777 quatxyzw 0.508092 -0.575372 0.608612 -0.200951 center 0.534 -0.142 0.039 ntor 4 -11.2587 -151.2678 -30.4242 16.7855
State:	 25.369 -17.656  -0.777   0.519 -0.587  0.621 -156.815    -11.26 -151.27  -30.42   16.79

DOCKED: MODEL       89
DOCKED: USER    Run = 89
DOCKED: USER    DPF = ligand_dock.biased.dpf
DOCKED: USER  
DOCKED: USER    Estimated Free Energy of Binding    =   -9.57 kcal/mol  [=(1)+(2)+(3)-(4)]
DOCKED: USER    Estimated Inhibition Constant, Ki   =   97.05 nM (nanomolar)  [Temperature = 298.15 K]
DOCKED: USER    
DOCKED: USER    (1) Final Intermolecular Energy     =  -10.76 kcal/mol
DOCKED: USER        vdW + Hbond + desolv Energy     =  -10.76 kcal/mol
DOCKED: USER        Electrostatic Energy            =   +0.00 kcal/mol
DOCKED: USER    (2) Final Total Internal Energy     =   -0.36 kcal/mol
DOCKED: USER    (3) Torsional Free Energy           =   +1.19 kcal/mol
DOCKED: USER    (4) Unbound System's Energy  [=(2)] =   -0.36 kcal/mol
DOCKED: USER    
DOCKED: USER    
DOCKED: USER    NEWDPF move ligand.pdbqt
DOCKED: USER    NEWDPF about 0.534000 -0.142000 0.039000
DOCKED: USER    NEWDPF tran0 25.368569 -17.656063 -0.777451
DOCKED: USER    NEWDPF quaternion0 0.508092 -0.575372 0.608612 -0.200951
DOCKED: USER    NEWDPF axisangle0 0.518672 -0.587353 0.621286 -156.814811
DOCKED: USER    NEWDPF quat0 0.518672 -0.587353 0.621286 -156.814811
DOCKED: USER    NEWDPF dihe0 -11.26 -151.27 -30.42 16.79 
DOCKED: USER  keepresnum = 1 
DOCKED: USER  
DOCKED: REMARK  Name = 
DOCKED: REMARK  4 active torsions:
DOCKED: REMARK  status: ('A' for Active; 'I' for Inactive)
DOCKED: REMARK    1  A    between atoms: C_3  and  C_4
DOCKED: REMARK    2  A    between atoms: C_4  and  C_5
DOCKED: REMARK    3  A    between atoms: C_5  and  C_6
DOCKED: REMARK    4  A    between atoms: C_6  and  C_7
DOCKED: REMARK                            x       y       z     vdW  Elec       q    Type
DOCKED: REMARK                         _______ _______ _______ _____ _____    ______ ____
DOCKED: USER                              x       y       z     vdW  Elec       q    Type
DOCKED: USER                           _______ _______ _______ _____ _____    ______ ____
DOCKED: ROOT
DOCKED: ATOM      1  C   UNL     1      24.145 -18.043  -1.279 -0.75 -0.00    +0.000 C 
DOCKED: ENDROOT
DOCKED: BRANCH   1   2
DOCKED: ATOM      2  C   UNL     1      23.126 -18.418  -0.194 -0.79 -0.00    +0.000 C 
DOCKED: BRANCH   2   5
DOCKED: ATOM      3  O   UNL     1      19.977 -19.730  -1.832 -2.39 -0.00    +0.000 OA
DOCKED: ATOM      4  N   UNL     1      21.230 -19.681  -1.326 -0.70 -0.00    +0.000 N 
DOCKED: ATOM      5  C   UNL     1      21.730 -18.476  -0.740 -0.85 -0.00    +0.000 C 
DOCKED: ATOM      6  O   UNL     1      21.004 -17.447  -0.707 -2.04 +0.00    +0.000 OA
DOCKED: ATOM      7  H   UNL     1      21.803 -20.482  -1.360 -0.25 -0.00    +0.000 HD
DOCKED: ENDBRANCH   2   5
DOCKED: ENDBRANCH   1   2
DOCKED: BRANCH   1   8
DOCKED: ATOM      8  C   UNL     1      25.219 -17.077  -0.761 -0.63 -0.00    +0.000 C 
DOCKED: BRANCH   8   9
DOCKED: ATOM      9  C   UNL     1      25.889 -16.368  -1.908 -0.48 -0.00    +0.000 A 
DOCKED: ATOM     10  C   UNL     1      25.133 -15.584  -2.796 -0.41 -0.00    +0.000 A 
DOCKED: ATOM     11  C   UNL     1      25.752 -14.953  -3.879 -0.52 -0.00    +0.000 A 
DOCKED: ATOM     12  C   UNL     1      27.125 -15.107  -4.090 -0.39 -0.00    +0.000 A 
DOCKED: ATOM     13  C   UNL     1      27.881 -15.897  -3.218 -0.25 -0.00    +0.000 A 
DOCKED: ATOM     14  C   UNL     1      27.266 -16.530  -2.134 -0.31 -0.00    +0.000 A 
DOCKED: ENDBRANCH   8   9
DOCKED: ENDBRANCH   1   8
DOCKED: TORSDOF 4
DOCKED: TER
DOCKED: ENDMDL
________________________________________________________________________________


	BEGINNING GENETIC ALGORITHM DOCKING 90 of 100
Run: 90 Seed: 1159477880 248042598 [ Run 90 of 100 GA/GALS ]
Beginning LAMARCKIAN GENETIC ALGORITHM (LGA), with a maximum of 2500000 energy evaluations.

Final-Value: -10.853


	FINAL GENETIC ALGORITHM DOCKED STATE
	_______________________________________________


Detailed state:  trans 24.709 -16.970 -1.474 quatxyzw -0.562673 0.330382 -0.746208 0.131987 center 0.534 -0.142 0.039 ntor 4 -27.2865 179.7021 53.2547 -69.1511
State:	 24.709 -16.970  -1.474  -0.568  0.333 -0.753 164.831    -27.29  179.70   53.25  -69.15

DOCKED: MODEL       90
DOCKED: USER    Run = 90
DOCKED: USER    DPF = ligand_dock.biased.dpf
DOCKED: USER  
DOCKED: USER    Estimated Free Energy of Binding    =   -9.29 kcal/mol  [=(1)+(2)+(3)-(4)]
DOCKED: USER    Estimated Inhibition Constant, Ki   =  153.88 nM (nanomolar)  [Temperature = 298.15 K]
DOCKED: USER    
DOCKED: USER    (1) Final Intermolecular Energy     =  -10.49 kcal/mol
DOCKED: USER        vdW + Hbond + desolv Energy     =  -10.49 kcal/mol
DOCKED: USER        Electrostatic Energy            =   +0.00 kcal/mol
DOCKED: USER    (2) Final Total Internal Energy     =   -0.37 kcal/mol
DOCKED: USER    (3) Torsional Free Energy           =   +1.19 kcal/mol
DOCKED: USER    (4) Unbound System's Energy  [=(2)] =   -0.37 kcal/mol
DOCKED: USER    
DOCKED: USER    
DOCKED: USER    NEWDPF move ligand.pdbqt
DOCKED: USER    NEWDPF about 0.534000 -0.142000 0.039000
DOCKED: USER    NEWDPF tran0 24.709465 -16.970187 -1.474283
DOCKED: USER    NEWDPF quaternion0 -0.562673 0.330382 -0.746208 0.131987
DOCKED: USER    NEWDPF axisangle0 -0.567639 0.333298 -0.752794 164.831159
DOCKED: USER    NEWDPF quat0 -0.567639 0.333298 -0.752794 164.831159
DOCKED: USER    NEWDPF dihe0 -27.29 179.70 53.25 -69.15 
DOCKED: USER  keepresnum = 1 
DOCKED: USER  
DOCKED: REMARK  Name = 
DOCKED: REMARK  4 active torsions:
DOCKED: REMARK  status: ('A' for Active; 'I' for Inactive)
DOCKED: REMARK    1  A    between atoms: C_3  and  C_4
DOCKED: REMARK    2  A    between atoms: C_4  and  C_5
DOCKED: REMARK    3  A    between atoms: C_5  and  C_6
DOCKED: REMARK    4  A    between atoms: C_6  and  C_7
DOCKED: REMARK                            x       y       z     vdW  Elec       q    Type
DOCKED: REMARK                         _______ _______ _______ _____ _____    ______ ____
DOCKED: USER                              x       y       z     vdW  Elec       q    Type
DOCKED: USER                           _______ _______ _______ _____ _____    ______ ____
DOCKED: ROOT
DOCKED: ATOM      1  C   UNL     1      23.843 -18.001  -1.765 -0.64 -0.00    +0.000 C 
DOCKED: ENDROOT
DOCKED: BRANCH   1   2
DOCKED: ATOM      2  C   UNL     1      22.942 -18.397  -0.588 -0.83 -0.00    +0.000 C 
DOCKED: BRANCH   2   5
DOCKED: ATOM      3  O   UNL     1      19.879 -19.911  -2.216 -2.24 -0.00    +0.000 OA
DOCKED: ATOM      4  N   UNL     1      21.158 -19.735  -1.812 -0.59 -0.00    +0.000 N 
DOCKED: ATOM      5  C   UNL     1      21.519 -18.600  -1.021 -0.81 -0.00    +0.000 C 
DOCKED: ATOM      6  O   UNL     1      20.645 -17.749  -0.708 -2.27 +0.00    +0.000 OA
DOCKED: ATOM      7  H   UNL     1      21.845 -20.394  -2.064 -0.48 -0.00    +0.000 HD
DOCKED: ENDBRANCH   2   5
DOCKED: ENDBRANCH   1   2
DOCKED: BRANCH   1   8
DOCKED: ATOM      8  C   UNL     1      24.330 -16.549  -1.664 -0.51 -0.00    +0.000 C 
DOCKED: BRANCH   8   9
DOCKED: ATOM      9  C   UNL     1      25.820 -16.506  -1.455 -0.49 -0.00    +0.000 A 
DOCKED: ATOM     10  C   UNL     1      26.593 -15.504  -2.065 -0.35 -0.00    +0.000 A 
DOCKED: ATOM     11  C   UNL     1      27.981 -15.484  -1.896 -0.22 -0.00    +0.000 A 
DOCKED: ATOM     12  C   UNL     1      28.607 -16.468  -1.127 -0.27 -0.00    +0.000 A 
DOCKED: ATOM     13  C   UNL     1      27.846 -17.476  -0.527 -0.29 -0.00    +0.000 A 
DOCKED: ATOM     14  C   UNL     1      26.458 -17.500  -0.694 -0.52 -0.00    +0.000 A 
DOCKED: ENDBRANCH   8   9
DOCKED: ENDBRANCH   1   8
DOCKED: TORSDOF 4
DOCKED: TER
DOCKED: ENDMDL
________________________________________________________________________________


	BEGINNING GENETIC ALGORITHM DOCKING 91 of 100
Run: 91 Seed: 1147449223 57027011 [ Run 91 of 100 GA/GALS ]
Beginning LAMARCKIAN GENETIC ALGORITHM (LGA), with a maximum of 2500000 energy evaluations.

Final-Value: -10.657


	FINAL GENETIC ALGORITHM DOCKED STATE
	_______________________________________________


Detailed state:  trans 23.363 -16.695 -1.006 quatxyzw -0.320588 0.245733 0.866399 0.293584 center 0.534 -0.142 0.039 ntor 4 54.0150 -6.5465 -97.1262 73.3992
State:	 23.363 -16.695  -1.006  -0.335  0.257  0.906 145.855     54.02   -6.55  -97.13   73.40

DOCKED: MODEL       91
DOCKED: USER    Run = 91
DOCKED: USER    DPF = ligand_dock.biased.dpf
DOCKED: USER  
DOCKED: USER    Estimated Free Energy of Binding    =   -9.05 kcal/mol  [=(1)+(2)+(3)-(4)]
DOCKED: USER    Estimated Inhibition Constant, Ki   =  231.36 nM (nanomolar)  [Temperature = 298.15 K]
DOCKED: USER    
DOCKED: USER    (1) Final Intermolecular Energy     =  -10.25 kcal/mol
DOCKED: USER        vdW + Hbond + desolv Energy     =  -10.25 kcal/mol
DOCKED: USER        Electrostatic Energy            =   +0.00 kcal/mol
DOCKED: USER    (2) Final Total Internal Energy     =   -0.41 kcal/mol
DOCKED: USER    (3) Torsional Free Energy           =   +1.19 kcal/mol
DOCKED: USER    (4) Unbound System's Energy  [=(2)] =   -0.41 kcal/mol
DOCKED: USER    
DOCKED: USER    
DOCKED: USER    NEWDPF move ligand.pdbqt
DOCKED: USER    NEWDPF about 0.534000 -0.142000 0.039000
DOCKED: USER    NEWDPF tran0 23.362545 -16.695353 -1.005761
DOCKED: USER    NEWDPF quaternion0 -0.320588 0.245733 0.866399 0.293584
DOCKED: USER    NEWDPF axisangle0 -0.335366 0.257061 0.906338 145.854685
DOCKED: USER    NEWDPF quat0 -0.335366 0.257061 0.906338 145.854685
DOCKED: USER    NEWDPF dihe0 54.02 -6.55 -97.13 73.40 
DOCKED: USER  keepresnum = 1 
DOCKED: USER  
DOCKED: REMARK  Name = 
DOCKED: REMARK  4 active torsions:
DOCKED: REMARK  status: ('A' for Active; 'I' for Inactive)
DOCKED: REMARK    1  A    between atoms: C_3  and  C_4
DOCKED: REMARK    2  A    between atoms: C_4  and  C_5
DOCKED: REMARK    3  A    between atoms: C_5  and  C_6
DOCKED: REMARK    4  A    between atoms: C_6  and  C_7
DOCKED: REMARK                            x       y       z     vdW  Elec       q    Type
DOCKED: REMARK                         _______ _______ _______ _____ _____    ______ ____
DOCKED: USER                              x       y       z     vdW  Elec       q    Type
DOCKED: USER                           _______ _______ _______ _____ _____    ______ ____
DOCKED: ROOT
DOCKED: ATOM      1  C   UNL     1      23.742 -17.799  -0.273 -0.72 -0.00    +0.000 C 
DOCKED: ENDROOT
DOCKED: BRANCH   1   2
DOCKED: ATOM      2  C   UNL     1      23.149 -19.116  -0.794 -0.78 -0.00    +0.000 C 
DOCKED: BRANCH   2   5
DOCKED: ATOM      3  O   UNL     1      19.671 -19.735  -2.150 -2.10 -0.00    +0.000 OA
DOCKED: ATOM      4  N   UNL     1      21.007 -19.834  -1.962 -0.41 -0.00    +0.000 N 
DOCKED: ATOM      5  C   UNL     1      21.664 -19.018  -0.989 -0.84 -0.00    +0.000 C 
DOCKED: ATOM      6  O   UNL     1      20.999 -18.191  -0.310 -1.86 -0.00    +0.000 OA
DOCKED: ATOM      7  H   UNL     1      21.530 -20.472  -2.499 -0.57 -0.00    +0.000 HD
DOCKED: ENDBRANCH   2   5
DOCKED: ENDBRANCH   1   2
DOCKED: BRANCH   1   8
DOCKED: ATOM      8  C   UNL     1      23.836 -16.729  -1.369 -0.51 -0.00    +0.000 C 
DOCKED: BRANCH   8   9
DOCKED: ATOM      9  C   UNL     1      25.257 -16.586  -1.846 -0.53 -0.00    +0.000 A 
DOCKED: ATOM     10  C   UNL     1      26.298 -17.258  -1.185 -0.49 -0.00    +0.000 A 
DOCKED: ATOM     11  C   UNL     1      27.621 -17.098  -1.610 -0.32 -0.00    +0.000 A 
DOCKED: ATOM     12  C   UNL     1      27.914 -16.261  -2.689 -0.24 -0.00    +0.000 A 
DOCKED: ATOM     13  C   UNL     1      26.884 -15.577  -3.344 -0.37 -0.00    +0.000 A 
DOCKED: ATOM     14  C   UNL     1      25.560 -15.734  -2.922 -0.49 -0.00    +0.000 A 
DOCKED: ENDBRANCH   8   9
DOCKED: ENDBRANCH   1   8
DOCKED: TORSDOF 4
DOCKED: TER
DOCKED: ENDMDL
________________________________________________________________________________


	BEGINNING GENETIC ALGORITHM DOCKING 92 of 100
Run: 92 Seed: 630973448 1054285497 [ Run 92 of 100 GA/GALS ]
Beginning LAMARCKIAN GENETIC ALGORITHM (LGA), with a maximum of 2500000 energy evaluations.

Final-Value: -11.170


	FINAL GENETIC ALGORITHM DOCKED STATE
	_______________________________________________


Detailed state:  trans 25.026 -18.293 -1.141 quatxyzw -0.457863 0.855490 -0.125496 0.206758 center 0.534 -0.142 0.039 ntor 4 -3.8999 -90.2769 -102.1653 3.8909
State:	 25.026 -18.293  -1.141  -0.468  0.874 -0.128 156.135     -3.90  -90.28 -102.17    3.89

DOCKED: MODEL       92
DOCKED: USER    Run = 92
DOCKED: USER    DPF = ligand_dock.biased.dpf
DOCKED: USER  
DOCKED: USER    Estimated Free Energy of Binding    =   -9.66 kcal/mol  [=(1)+(2)+(3)-(4)]
DOCKED: USER    Estimated Inhibition Constant, Ki   =   83.68 nM (nanomolar)  [Temperature = 298.15 K]
DOCKED: USER    
DOCKED: USER    (1) Final Intermolecular Energy     =  -10.85 kcal/mol
DOCKED: USER        vdW + Hbond + desolv Energy     =  -10.85 kcal/mol
DOCKED: USER        Electrostatic Energy            =   +0.00 kcal/mol
DOCKED: USER    (2) Final Total Internal Energy     =   -0.32 kcal/mol
DOCKED: USER    (3) Torsional Free Energy           =   +1.19 kcal/mol
DOCKED: USER    (4) Unbound System's Energy  [=(2)] =   -0.32 kcal/mol
DOCKED: USER    
DOCKED: USER    
DOCKED: USER    NEWDPF move ligand.pdbqt
DOCKED: USER    NEWDPF about 0.534000 -0.142000 0.039000
DOCKED: USER    NEWDPF tran0 25.025861 -18.292544 -1.140773
DOCKED: USER    NEWDPF quaternion0 -0.457863 0.855490 -0.125496 0.206758
DOCKED: USER    NEWDPF axisangle0 -0.467975 0.874384 -0.128268 156.135135
DOCKED: USER    NEWDPF quat0 -0.467975 0.874384 -0.128268 156.135135
DOCKED: USER    NEWDPF dihe0 -3.90 -90.28 -102.17 3.89 
DOCKED: USER  keepresnum = 1 
DOCKED: USER  
DOCKED: REMARK  Name = 
DOCKED: REMARK  4 active torsions:
DOCKED: REMARK  status: ('A' for Active; 'I' for Inactive)
DOCKED: REMARK    1  A    between atoms: C_3  and  C_4
DOCKED: REMARK    2  A    between atoms: C_4  and  C_5
DOCKED: REMARK    3  A    between atoms: C_5  and  C_6
DOCKED: REMARK    4  A    between atoms: C_6  and  C_7
DOCKED: REMARK                            x       y       z     vdW  Elec       q    Type
DOCKED: REMARK                         _______ _______ _______ _____ _____    ______ ____
DOCKED: USER                              x       y       z     vdW  Elec       q    Type
DOCKED: USER                           _______ _______ _______ _____ _____    ______ ____
DOCKED: ROOT
DOCKED: ATOM      1  C   UNL     1      23.797 -17.675  -1.053 -0.76 -0.00    +0.000 C 
DOCKED: ENDROOT
DOCKED: BRANCH   1   2
DOCKED: ATOM      2  C   UNL     1      22.797 -18.421  -0.159 -0.80 -0.00    +0.000 C 
DOCKED: BRANCH   2   5
DOCKED: ATOM      3  O   UNL     1      19.886 -19.788  -2.153 -2.31 -0.00    +0.000 OA
DOCKED: ATOM      4  N   UNL     1      21.096 -19.696  -1.556 -0.70 -0.00    +0.000 N 
DOCKED: ATOM      5  C   UNL     1      21.448 -18.530  -0.806 -0.84 -0.00    +0.000 C 
DOCKED: ATOM      6  O   UNL     1      20.631 -17.576  -0.710 -2.15 +0.00    +0.000 OA
DOCKED: ATOM      7  H   UNL     1      21.740 -20.437  -1.638 -0.36 -0.00    +0.000 HD
DOCKED: ENDBRANCH   2   5
DOCKED: ENDBRANCH   1   2
DOCKED: BRANCH   1   8
DOCKED: ATOM      8  C   UNL     1      25.254 -17.985  -0.682 -0.70 -0.00    +0.000 C 
DOCKED: BRANCH   8   9
DOCKED: ATOM      9  C   UNL     1      26.196 -17.111  -1.467 -0.48 -0.00    +0.000 A 
DOCKED: ATOM     10  C   UNL     1      25.727 -16.372  -2.566 -0.47 -0.00    +0.000 A 
DOCKED: ATOM     11  C   UNL     1      26.610 -15.587  -3.314 -0.41 -0.00    +0.000 A 
DOCKED: ATOM     12  C   UNL     1      27.966 -15.542  -2.978 -0.25 -0.00    +0.000 A 
DOCKED: ATOM     13  C   UNL     1      28.442 -16.286  -1.893 -0.25 -0.00    +0.000 A 
DOCKED: ATOM     14  C   UNL     1      27.562 -17.073  -1.143 -0.38 -0.00    +0.000 A 
DOCKED: ENDBRANCH   8   9
DOCKED: ENDBRANCH   1   8
DOCKED: TORSDOF 4
DOCKED: TER
DOCKED: ENDMDL
________________________________________________________________________________


	BEGINNING GENETIC ALGORITHM DOCKING 93 of 100
Run: 93 Seed: 1308077808 1761359860 [ Run 93 of 100 GA/GALS ]
Beginning LAMARCKIAN GENETIC ALGORITHM (LGA), with a maximum of 2500000 energy evaluations.

Final-Value: -10.453


	FINAL GENETIC ALGORITHM DOCKED STATE
	_______________________________________________


Detailed state:  trans 24.169 -17.229 -0.007 quatxyzw -0.337658 -0.158737 0.927787 0.001013 center 0.534 -0.142 0.039 ntor 4 134.2391 -28.5409 -177.4345 106.0547
State:	 24.169 -17.229  -0.007  -0.338 -0.159  0.928 179.884    134.24  -28.54 -177.43  106.05

DOCKED: MODEL       93
DOCKED: USER    Run = 93
DOCKED: USER    DPF = ligand_dock.biased.dpf
DOCKED: USER  
DOCKED: USER    Estimated Free Energy of Binding    =   -8.81 kcal/mol  [=(1)+(2)+(3)-(4)]
DOCKED: USER    Estimated Inhibition Constant, Ki   =  346.37 nM (nanomolar)  [Temperature = 298.15 K]
DOCKED: USER    
DOCKED: USER    (1) Final Intermolecular Energy     =  -10.01 kcal/mol
DOCKED: USER        vdW + Hbond + desolv Energy     =  -10.01 kcal/mol
DOCKED: USER        Electrostatic Energy            =   +0.00 kcal/mol
DOCKED: USER    (2) Final Total Internal Energy     =   -0.45 kcal/mol
DOCKED: USER    (3) Torsional Free Energy           =   +1.19 kcal/mol
DOCKED: USER    (4) Unbound System's Energy  [=(2)] =   -0.45 kcal/mol
DOCKED: USER    
DOCKED: USER    
DOCKED: USER    NEWDPF move ligand.pdbqt
DOCKED: USER    NEWDPF about 0.534000 -0.142000 0.039000
DOCKED: USER    NEWDPF tran0 24.169251 -17.229458 -0.007089
DOCKED: USER    NEWDPF quaternion0 -0.337658 -0.158737 0.927787 0.001013
DOCKED: USER    NEWDPF axisangle0 -0.337659 -0.158737 0.927787 179.883934
DOCKED: USER    NEWDPF quat0 -0.337659 -0.158737 0.927787 179.883934
DOCKED: USER    NEWDPF dihe0 134.24 -28.54 -177.43 106.05 
DOCKED: USER  keepresnum = 1 
DOCKED: USER  
DOCKED: REMARK  Name = 
DOCKED: REMARK  4 active torsions:
DOCKED: REMARK  status: ('A' for Active; 'I' for Inactive)
DOCKED: REMARK    1  A    between atoms: C_3  and  C_4
DOCKED: REMARK    2  A    between atoms: C_4  and  C_5
DOCKED: REMARK    3  A    between atoms: C_5  and  C_6
DOCKED: REMARK    4  A    between atoms: C_6  and  C_7
DOCKED: REMARK                            x       y       z     vdW  Elec       q    Type
DOCKED: REMARK                         _______ _______ _______ _____ _____    ______ ____
DOCKED: USER                              x       y       z     vdW  Elec       q    Type
DOCKED: USER                           _______ _______ _______ _____ _____    ______ ____
DOCKED: ROOT
DOCKED: ATOM      1  C   UNL     1      24.186 -18.493  -0.556 -0.76 -0.00    +0.000 C 
DOCKED: ENDROOT
DOCKED: BRANCH   1   2
DOCKED: ATOM      2  C   UNL     1      23.259 -18.648  -1.770 -0.62 -0.00    +0.000 C 
DOCKED: BRANCH   2   5
DOCKED: ATOM      3  O   UNL     1      19.649 -19.736  -1.442 -2.15 -0.00    +0.000 OA
DOCKED: ATOM      4  N   UNL     1      20.956 -19.728  -1.792 -0.70 -0.00    +0.000 N 
DOCKED: ATOM      5  C   UNL     1      21.814 -18.666  -1.366 -0.56 -0.00    +0.000 C 
DOCKED: ATOM      6  O   UNL     1      21.349 -17.724  -0.671 -1.81 -0.00    +0.000 OA
DOCKED: ATOM      7  H   UNL     1      21.319 -20.458  -2.344 -0.53 -0.00    +0.000 HD
DOCKED: ENDBRANCH   2   5
DOCKED: ENDBRANCH   1   2
DOCKED: BRANCH   1   8
DOCKED: ATOM      8  C   UNL     1      24.626 -17.039  -0.342 -0.45 -0.00    +0.000 C 
DOCKED: BRANCH   8   9
DOCKED: ATOM      9  C   UNL     1      25.592 -16.615  -1.416 -0.51 -0.00    +0.000 A 
DOCKED: ATOM     10  C   UNL     1      26.970 -16.836  -1.259 -0.41 -0.00    +0.000 A 
DOCKED: ATOM     11  C   UNL     1      27.868 -16.413  -2.244 -0.28 -0.00    +0.000 A 
DOCKED: ATOM     12  C   UNL     1      27.399 -15.758  -3.386 -0.27 -0.00    +0.000 A 
DOCKED: ATOM     13  C   UNL     1      26.029 -15.523  -3.543 -0.50 -0.00    +0.000 A 
DOCKED: ATOM     14  C   UNL     1      25.128 -15.945  -2.561 -0.46 -0.00    +0.000 A 
DOCKED: ENDBRANCH   8   9
DOCKED: ENDBRANCH   1   8
DOCKED: TORSDOF 4
DOCKED: TER
DOCKED: ENDMDL
________________________________________________________________________________


	BEGINNING GENETIC ALGORITHM DOCKING 94 of 100
Run: 94 Seed: 1718751614 810526474 [ Run 94 of 100 GA/GALS ]
Beginning LAMARCKIAN GENETIC ALGORITHM (LGA), with a maximum of 2500000 energy evaluations.

Final-Value: -11.122


	FINAL GENETIC ALGORITHM DOCKED STATE
	_______________________________________________


Detailed state:  trans 24.640 -18.120 -1.408 quatxyzw -0.469109 0.856926 -0.020839 0.212556 center 0.534 -0.142 0.039 ntor 4 -11.2795 -75.7271 -111.7314 6.8384
State:	 24.640 -18.120  -1.408  -0.480  0.877 -0.021 155.456    -11.28  -75.73 -111.73    6.84

DOCKED: MODEL       94
DOCKED: USER    Run = 94
DOCKED: USER    DPF = ligand_dock.biased.dpf
DOCKED: USER  
DOCKED: USER    Estimated Free Energy of Binding    =   -9.60 kcal/mol  [=(1)+(2)+(3)-(4)]
DOCKED: USER    Estimated Inhibition Constant, Ki   =   92.41 nM (nanomolar)  [Temperature = 298.15 K]
DOCKED: USER    
DOCKED: USER    (1) Final Intermolecular Energy     =  -10.79 kcal/mol
DOCKED: USER        vdW + Hbond + desolv Energy     =  -10.79 kcal/mol
DOCKED: USER        Electrostatic Energy            =   +0.00 kcal/mol
DOCKED: USER    (2) Final Total Internal Energy     =   -0.33 kcal/mol
DOCKED: USER    (3) Torsional Free Energy           =   +1.19 kcal/mol
DOCKED: USER    (4) Unbound System's Energy  [=(2)] =   -0.33 kcal/mol
DOCKED: USER    
DOCKED: USER    
DOCKED: USER    NEWDPF move ligand.pdbqt
DOCKED: USER    NEWDPF about 0.534000 -0.142000 0.039000
DOCKED: USER    NEWDPF tran0 24.640439 -18.119588 -1.407635
DOCKED: USER    NEWDPF quaternion0 -0.469109 0.856926 -0.020839 0.212556
DOCKED: USER    NEWDPF axisangle0 -0.480079 0.876966 -0.021327 155.455648
DOCKED: USER    NEWDPF quat0 -0.480079 0.876966 -0.021327 155.455648
DOCKED: USER    NEWDPF dihe0 -11.28 -75.73 -111.73 6.84 
DOCKED: USER  keepresnum = 1 
DOCKED: USER  
DOCKED: REMARK  Name = 
DOCKED: REMARK  4 active torsions:
DOCKED: REMARK  status: ('A' for Active; 'I' for Inactive)
DOCKED: REMARK    1  A    between atoms: C_3  and  C_4
DOCKED: REMARK    2  A    between atoms: C_4  and  C_5
DOCKED: REMARK    3  A    between atoms: C_5  and  C_6
DOCKED: REMARK    4  A    between atoms: C_6  and  C_7
DOCKED: REMARK                            x       y       z     vdW  Elec       q    Type
DOCKED: REMARK                         _______ _______ _______ _____ _____    ______ ____
DOCKED: USER                              x       y       z     vdW  Elec       q    Type
DOCKED: USER                           _______ _______ _______ _____ _____    ______ ____
DOCKED: ROOT
DOCKED: ATOM      1  C   UNL     1      23.451 -17.507  -1.078 -0.74 -0.00    +0.000 C 
DOCKED: ENDROOT
DOCKED: BRANCH   1   2
DOCKED: ATOM      2  C   UNL     1      22.524 -18.384  -0.225 -0.82 -0.00    +0.000 C 
DOCKED: BRANCH   2   5
DOCKED: ATOM      3  O   UNL     1      19.893 -19.955  -2.447 -2.05 -0.00    +0.000 OA
DOCKED: ATOM      4  N   UNL     1      21.070 -19.736  -1.816 -0.64 -0.00    +0.000 N 
DOCKED: ATOM      5  C   UNL     1      21.213 -18.638  -0.911 -0.83 -0.00    +0.000 C 
DOCKED: ATOM      6  O   UNL     1      20.243 -17.860  -0.708 -2.20 +0.00    +0.000 OA
DOCKED: ATOM      7  H   UNL     1      21.833 -20.336  -1.980 -0.47 -0.00    +0.000 HD
DOCKED: ENDBRANCH   2   5
DOCKED: ENDBRANCH   1   2
DOCKED: BRANCH   1   8
DOCKED: ATOM      8  C   UNL     1      24.926 -17.903  -0.930 -0.71 -0.00    +0.000 C 
DOCKED: BRANCH   8   9
DOCKED: ATOM      9  C   UNL     1      25.816 -16.881  -1.586 -0.51 -0.00    +0.000 A 
DOCKED: ATOM     10  C   UNL     1      25.308 -16.038  -2.589 -0.48 -0.00    +0.000 A 
DOCKED: ATOM     11  C   UNL     1      26.144 -15.111  -3.220 -0.45 -0.00    +0.000 A 
DOCKED: ATOM     12  C   UNL     1      27.492 -15.027  -2.862 -0.25 -0.00    +0.000 A 
DOCKED: ATOM     13  C   UNL     1      28.008 -15.871  -1.874 -0.25 -0.00    +0.000 A 
DOCKED: ATOM     14  C   UNL     1      27.175 -16.799  -1.241 -0.40 -0.00    +0.000 A 
DOCKED: ENDBRANCH   8   9
DOCKED: ENDBRANCH   1   8
DOCKED: TORSDOF 4
DOCKED: TER
DOCKED: ENDMDL
________________________________________________________________________________


	BEGINNING GENETIC ALGORITHM DOCKING 95 of 100
Run: 95 Seed: 1699090408 1052353432 [ Run 95 of 100 GA/GALS ]
Beginning LAMARCKIAN GENETIC ALGORITHM (LGA), with a maximum of 2500000 energy evaluations.

Final-Value: -11.047


	FINAL GENETIC ALGORITHM DOCKED STATE
	_______________________________________________


Detailed state:  trans 24.623 -16.843 -1.329 quatxyzw 0.528864 -0.193938 0.823140 -0.071636 center 0.534 -0.142 0.039 ntor 4 -14.4797 154.3031 -153.7710 -27.3010
State:	 24.623 -16.843  -1.329   0.530 -0.194  0.825 -171.784    -14.48  154.30 -153.77  -27.30

DOCKED: MODEL       95
DOCKED: USER    Run = 95
DOCKED: USER    DPF = ligand_dock.biased.dpf
DOCKED: USER  
DOCKED: USER    Estimated Free Energy of Binding    =   -9.49 kcal/mol  [=(1)+(2)+(3)-(4)]
DOCKED: USER    Estimated Inhibition Constant, Ki   =  111.26 nM (nanomolar)  [Temperature = 298.15 K]
DOCKED: USER    
DOCKED: USER    (1) Final Intermolecular Energy     =  -10.68 kcal/mol
DOCKED: USER        vdW + Hbond + desolv Energy     =  -10.68 kcal/mol
DOCKED: USER        Electrostatic Energy            =   +0.00 kcal/mol
DOCKED: USER    (2) Final Total Internal Energy     =   -0.37 kcal/mol
DOCKED: USER    (3) Torsional Free Energy           =   +1.19 kcal/mol
DOCKED: USER    (4) Unbound System's Energy  [=(2)] =   -0.37 kcal/mol
DOCKED: USER    
DOCKED: USER    
DOCKED: USER    NEWDPF move ligand.pdbqt
DOCKED: USER    NEWDPF about 0.534000 -0.142000 0.039000
DOCKED: USER    NEWDPF tran0 24.623036 -16.843135 -1.328938
DOCKED: USER    NEWDPF quaternion0 0.528864 -0.193938 0.823140 -0.071636
DOCKED: USER    NEWDPF axisangle0 0.530227 -0.194438 0.825260 -171.784102
DOCKED: USER    NEWDPF quat0 0.530227 -0.194438 0.825260 -171.784102
DOCKED: USER    NEWDPF dihe0 -14.48 154.30 -153.77 -27.30 
DOCKED: USER  keepresnum = 1 
DOCKED: USER  
DOCKED: REMARK  Name = 
DOCKED: REMARK  4 active torsions:
DOCKED: REMARK  status: ('A' for Active; 'I' for Inactive)
DOCKED: REMARK    1  A    between atoms: C_3  and  C_4
DOCKED: REMARK    2  A    between atoms: C_4  and  C_5
DOCKED: REMARK    3  A    between atoms: C_5  and  C_6
DOCKED: REMARK    4  A    between atoms: C_6  and  C_7
DOCKED: REMARK                            x       y       z     vdW  Elec       q    Type
DOCKED: REMARK                         _______ _______ _______ _____ _____    ______ ____
DOCKED: USER                              x       y       z     vdW  Elec       q    Type
DOCKED: USER                           _______ _______ _______ _____ _____    ______ ____
DOCKED: ROOT
DOCKED: ATOM      1  C   UNL     1      24.069 -18.093  -1.495 -0.73 -0.00    +0.000 C 
DOCKED: ENDROOT
DOCKED: BRANCH   1   2
DOCKED: ATOM      2  C   UNL     1      23.100 -18.491  -0.373 -0.82 -0.00    +0.000 C 
DOCKED: BRANCH   2   5
DOCKED: ATOM      3  O   UNL     1      19.893 -19.731  -1.953 -2.37 -0.00    +0.000 OA
DOCKED: ATOM      4  N   UNL     1      21.169 -19.699  -1.505 -0.68 -0.00    +0.000 N 
DOCKED: ATOM      5  C   UNL     1      21.679 -18.533  -0.854 -0.83 -0.00    +0.000 C 
DOCKED: ATOM      6  O   UNL     1      20.942 -17.522  -0.707 -2.09 +0.00    +0.000 OA
DOCKED: ATOM      7  H   UNL     1      21.751 -20.484  -1.628 -0.34 -0.00    +0.000 HD
DOCKED: ENDBRANCH   2   5
DOCKED: ENDBRANCH   1   2
DOCKED: BRANCH   1   8
DOCKED: ATOM      8  C   UNL     1      24.194 -16.572  -1.645 -0.44 -0.00    +0.000 C 
DOCKED: BRANCH   8   9
DOCKED: ATOM      9  C   UNL     1      25.511 -16.210  -2.280 -0.50 -0.00    +0.000 A 
DOCKED: ATOM     10  C   UNL     1      26.718 -16.491  -1.618 -0.40 -0.00    +0.000 A 
DOCKED: ATOM     11  C   UNL     1      27.938 -16.125  -2.195 -0.27 -0.00    +0.000 A 
DOCKED: ATOM     12  C   UNL     1      27.962 -15.469  -3.429 -0.26 -0.00    +0.000 A 
DOCKED: ATOM     13  C   UNL     1      26.764 -15.174  -4.087 -0.44 -0.00    +0.000 A 
DOCKED: ATOM     14  C   UNL     1      25.541 -15.538  -3.513 -0.50 -0.00    +0.000 A 
DOCKED: ENDBRANCH   8   9
DOCKED: ENDBRANCH   1   8
DOCKED: TORSDOF 4
DOCKED: TER
DOCKED: ENDMDL
________________________________________________________________________________


	BEGINNING GENETIC ALGORITHM DOCKING 96 of 100
Run: 96 Seed: 665823782 2132193353 [ Run 96 of 100 GA/GALS ]
Beginning LAMARCKIAN GENETIC ALGORITHM (LGA), with a maximum of 2500000 energy evaluations.

Final-Value: -11.109


	FINAL GENETIC ALGORITHM DOCKED STATE
	_______________________________________________


Detailed state:  trans 24.707 -17.109 -0.695 quatxyzw -0.450194 0.265059 -0.842206 0.133258 center 0.534 -0.142 0.039 ntor 4 -27.3958 170.2664 -143.2135 -28.7265
State:	 24.707 -17.109  -0.695  -0.454  0.267 -0.850 164.684    -27.40  170.27 -143.21  -28.73

DOCKED: MODEL       96
DOCKED: USER    Run = 96
DOCKED: USER    DPF = ligand_dock.biased.dpf
DOCKED: USER  
DOCKED: USER    Estimated Free Energy of Binding    =   -9.56 kcal/mol  [=(1)+(2)+(3)-(4)]
DOCKED: USER    Estimated Inhibition Constant, Ki   =   97.99 nM (nanomolar)  [Temperature = 298.15 K]
DOCKED: USER    
DOCKED: USER    (1) Final Intermolecular Energy     =  -10.75 kcal/mol
DOCKED: USER        vdW + Hbond + desolv Energy     =  -10.75 kcal/mol
DOCKED: USER        Electrostatic Energy            =   +0.00 kcal/mol
DOCKED: USER    (2) Final Total Internal Energy     =   -0.35 kcal/mol
DOCKED: USER    (3) Torsional Free Energy           =   +1.19 kcal/mol
DOCKED: USER    (4) Unbound System's Energy  [=(2)] =   -0.35 kcal/mol
DOCKED: USER    
DOCKED: USER    
DOCKED: USER    NEWDPF move ligand.pdbqt
DOCKED: USER    NEWDPF about 0.534000 -0.142000 0.039000
DOCKED: USER    NEWDPF tran0 24.706806 -17.109454 -0.694828
DOCKED: USER    NEWDPF quaternion0 -0.450194 0.265059 -0.842206 0.133258
DOCKED: USER    NEWDPF axisangle0 -0.454245 0.267444 -0.849785 164.684250
DOCKED: USER    NEWDPF quat0 -0.454245 0.267444 -0.849785 164.684250
DOCKED: USER    NEWDPF dihe0 -27.40 170.27 -143.21 -28.73 
DOCKED: USER  keepresnum = 1 
DOCKED: USER  
DOCKED: REMARK  Name = 
DOCKED: REMARK  4 active torsions:
DOCKED: REMARK  status: ('A' for Active; 'I' for Inactive)
DOCKED: REMARK    1  A    between atoms: C_3  and  C_4
DOCKED: REMARK    2  A    between atoms: C_4  and  C_5
DOCKED: REMARK    3  A    between atoms: C_5  and  C_6
DOCKED: REMARK    4  A    between atoms: C_6  and  C_7
DOCKED: REMARK                            x       y       z     vdW  Elec       q    Type
DOCKED: REMARK                         _______ _______ _______ _____ _____    ______ ____
DOCKED: USER                              x       y       z     vdW  Elec       q    Type
DOCKED: USER                           _______ _______ _______ _____ _____    ______ ____
DOCKED: ROOT
DOCKED: ATOM      1  C   UNL     1      23.941 -18.216  -0.991 -0.80 -0.00    +0.000 C 
DOCKED: ENDROOT
DOCKED: BRANCH   1   2
DOCKED: ATOM      2  C   UNL     1      22.767 -18.428  -0.026 -0.77 -0.00    +0.000 C 
DOCKED: BRANCH   2   5
DOCKED: ATOM      3  O   UNL     1      20.001 -19.819  -2.203 -2.29 -0.00    +0.000 OA
DOCKED: ATOM      4  N   UNL     1      21.171 -19.716  -1.531 -0.67 -0.00    +0.000 N 
DOCKED: ATOM      5  C   UNL     1      21.462 -18.549  -0.756 -0.85 -0.00    +0.000 C 
DOCKED: ATOM      6  O   UNL     1      20.631 -17.604  -0.709 -2.16 +0.00    +0.000 OA
DOCKED: ATOM      7  H   UNL     1      21.827 -20.449  -1.575 -0.33 -0.00    +0.000 HD
DOCKED: ENDBRANCH   2   5
DOCKED: ENDBRANCH   1   2
DOCKED: BRANCH   1   8
DOCKED: ATOM      8  C   UNL     1      24.389 -16.750  -1.051 -0.63 -0.00    +0.000 C 
DOCKED: BRANCH   8   9
DOCKED: ATOM      9  C   UNL     1      25.836 -16.656  -1.456 -0.50 -0.00    +0.000 A 
DOCKED: ATOM     10  C   UNL     1      26.819 -17.369  -0.749 -0.48 -0.00    +0.000 A 
DOCKED: ATOM     11  C   UNL     1      28.166 -17.255  -1.107 -0.32 -0.00    +0.000 A 
DOCKED: ATOM     12  C   UNL     1      28.542 -16.422  -2.164 -0.25 -0.00    +0.000 A 
DOCKED: ATOM     13  C   UNL     1      27.572 -15.698  -2.863 -0.28 -0.00    +0.000 A 
DOCKED: ATOM     14  C   UNL     1      26.223 -15.809  -2.509 -0.43 -0.00    +0.000 A 
DOCKED: ENDBRANCH   8   9
DOCKED: ENDBRANCH   1   8
DOCKED: TORSDOF 4
DOCKED: TER
DOCKED: ENDMDL
________________________________________________________________________________


	BEGINNING GENETIC ALGORITHM DOCKING 97 of 100
Run: 97 Seed: 2118554623 2074132081 [ Run 97 of 100 GA/GALS ]
Beginning LAMARCKIAN GENETIC ALGORITHM (LGA), with a maximum of 2500000 energy evaluations.

Final-Value: -10.869


	FINAL GENETIC ALGORITHM DOCKED STATE
	_______________________________________________


Detailed state:  trans 25.314 -17.616 -1.247 quatxyzw 0.621357 -0.739938 0.238957 -0.096473 center 0.534 -0.142 0.039 ntor 4 7.0308 -133.3654 63.5940 -2.5259
State:	 25.314 -17.616  -1.247   0.624 -0.743  0.240 -168.928      7.03 -133.37   63.59   -2.53

DOCKED: MODEL       97
DOCKED: USER    Run = 97
DOCKED: USER    DPF = ligand_dock.biased.dpf
DOCKED: USER  
DOCKED: USER    Estimated Free Energy of Binding    =   -9.36 kcal/mol  [=(1)+(2)+(3)-(4)]
DOCKED: USER    Estimated Inhibition Constant, Ki   =  138.57 nM (nanomolar)  [Temperature = 298.15 K]
DOCKED: USER    
DOCKED: USER    (1) Final Intermolecular Energy     =  -10.55 kcal/mol
DOCKED: USER        vdW + Hbond + desolv Energy     =  -10.55 kcal/mol
DOCKED: USER        Electrostatic Energy            =   +0.00 kcal/mol
DOCKED: USER    (2) Final Total Internal Energy     =   -0.32 kcal/mol
DOCKED: USER    (3) Torsional Free Energy           =   +1.19 kcal/mol
DOCKED: USER    (4) Unbound System's Energy  [=(2)] =   -0.32 kcal/mol
DOCKED: USER    
DOCKED: USER    
DOCKED: USER    NEWDPF move ligand.pdbqt
DOCKED: USER    NEWDPF about 0.534000 -0.142000 0.039000
DOCKED: USER    NEWDPF tran0 25.313919 -17.616358 -1.246559
DOCKED: USER    NEWDPF quaternion0 0.621357 -0.739938 0.238957 -0.096473
DOCKED: USER    NEWDPF axisangle0 0.624269 -0.743406 0.240076 -168.927831
DOCKED: USER    NEWDPF quat0 0.624269 -0.743406 0.240076 -168.927831
DOCKED: USER    NEWDPF dihe0 7.03 -133.37 63.59 -2.53 
DOCKED: USER  keepresnum = 1 
DOCKED: USER  
DOCKED: REMARK  Name = 
DOCKED: REMARK  4 active torsions:
DOCKED: REMARK  status: ('A' for Active; 'I' for Inactive)
DOCKED: REMARK    1  A    between atoms: C_3  and  C_4
DOCKED: REMARK    2  A    between atoms: C_4  and  C_5
DOCKED: REMARK    3  A    between atoms: C_5  and  C_6
DOCKED: REMARK    4  A    between atoms: C_6  and  C_7
DOCKED: REMARK                            x       y       z     vdW  Elec       q    Type
DOCKED: REMARK                         _______ _______ _______ _____ _____    ______ ____
DOCKED: USER                              x       y       z     vdW  Elec       q    Type
DOCKED: USER                           _______ _______ _______ _____ _____    ______ ____
DOCKED: ROOT
DOCKED: ATOM      1  C   UNL     1      23.951 -17.618  -1.449 -0.73 -0.00    +0.000 C 
DOCKED: ENDROOT
DOCKED: BRANCH   1   2
DOCKED: ATOM      2  C   UNL     1      23.218 -18.730  -0.685 -0.82 -0.00    +0.000 C 
DOCKED: BRANCH   2   5
DOCKED: ATOM      3  O   UNL     1      19.862 -19.734  -2.119 -2.32 -0.00    +0.000 OA
DOCKED: ATOM      4  N   UNL     1      21.185 -19.738  -1.834 -0.55 -0.00    +0.000 N 
DOCKED: ATOM      5  C   UNL     1      21.748 -18.734  -0.986 -0.83 -0.00    +0.000 C 
DOCKED: ATOM      6  O   UNL     1      21.011 -17.830  -0.510 -2.00 -0.00    +0.000 OA
DOCKED: ATOM      7  H   UNL     1      21.765 -20.439  -2.214 -0.54 -0.00    +0.000 HD
DOCKED: ENDBRANCH   2   5
DOCKED: ENDBRANCH   1   2
DOCKED: BRANCH   1   8
DOCKED: ATOM      8  C   UNL     1      25.281 -17.236  -0.786 -0.65 -0.00    +0.000 C 
DOCKED: BRANCH   8   9
DOCKED: ATOM      9  C   UNL     1      25.961 -16.139  -1.561 -0.45 -0.00    +0.000 A 
DOCKED: ATOM     10  C   UNL     1      26.839 -15.253  -0.915 -0.31 -0.00    +0.000 A 
DOCKED: ATOM     11  C   UNL     1      27.444 -14.215  -1.630 -0.19 -0.00    +0.000 A 
DOCKED: ATOM     12  C   UNL     1      27.169 -14.046  -2.990 -0.23 -0.00    +0.000 A 
DOCKED: ATOM     13  C   UNL     1      26.285 -14.916  -3.637 -0.45 -0.00    +0.000 A 
DOCKED: ATOM     14  C   UNL     1      25.678 -15.955  -2.925 -0.49 -0.00    +0.000 A 
DOCKED: ENDBRANCH   8   9
DOCKED: ENDBRANCH   1   8
DOCKED: TORSDOF 4
DOCKED: TER
DOCKED: ENDMDL
________________________________________________________________________________


	BEGINNING GENETIC ALGORITHM DOCKING 98 of 100
Run: 98 Seed: 1765819256 1300918094 [ Run 98 of 100 GA/GALS ]
Beginning LAMARCKIAN GENETIC ALGORITHM (LGA), with a maximum of 2500000 energy evaluations.

Final-Value: -10.726


	FINAL GENETIC ALGORITHM DOCKED STATE
	_______________________________________________


Detailed state:  trans 24.918 -18.156 -0.664 quatxyzw 0.069258 0.150358 0.852570 -0.495701 center 0.534 -0.142 0.039 ntor 4 -105.3643 -179.7802 179.5755 -113.8105
State:	 24.918 -18.156  -0.664   0.080  0.173  0.982 -120.568   -105.36 -179.78  179.58 -113.81

DOCKED: MODEL       98
DOCKED: USER    Run = 98
DOCKED: USER    DPF = ligand_dock.biased.dpf
DOCKED: USER  
DOCKED: USER    Estimated Free Energy of Binding    =   -9.10 kcal/mol  [=(1)+(2)+(3)-(4)]
DOCKED: USER    Estimated Inhibition Constant, Ki   =  214.70 nM (nanomolar)  [Temperature = 298.15 K]
DOCKED: USER    
DOCKED: USER    (1) Final Intermolecular Energy     =  -10.29 kcal/mol
DOCKED: USER        vdW + Hbond + desolv Energy     =  -10.29 kcal/mol
DOCKED: USER        Electrostatic Energy            =   +0.00 kcal/mol
DOCKED: USER    (2) Final Total Internal Energy     =   -0.44 kcal/mol
DOCKED: USER    (3) Torsional Free Energy           =   +1.19 kcal/mol
DOCKED: USER    (4) Unbound System's Energy  [=(2)] =   -0.44 kcal/mol
DOCKED: USER    
DOCKED: USER    
DOCKED: USER    NEWDPF move ligand.pdbqt
DOCKED: USER    NEWDPF about 0.534000 -0.142000 0.039000
DOCKED: USER    NEWDPF tran0 24.918134 -18.155591 -0.664281
DOCKED: USER    NEWDPF quaternion0 0.069258 0.150358 0.852570 -0.495701
DOCKED: USER    NEWDPF axisangle0 0.079745 0.173125 0.981666 -120.567966
DOCKED: USER    NEWDPF quat0 0.079745 0.173125 0.981666 -120.567966
DOCKED: USER    NEWDPF dihe0 -105.36 -179.78 179.58 -113.81 
DOCKED: USER  keepresnum = 1 
DOCKED: USER  
DOCKED: REMARK  Name = 
DOCKED: REMARK  4 active torsions:
DOCKED: REMARK  status: ('A' for Active; 'I' for Inactive)
DOCKED: REMARK    1  A    between atoms: C_3  and  C_4
DOCKED: REMARK    2  A    between atoms: C_4  and  C_5
DOCKED: REMARK    3  A    between atoms: C_5  and  C_6
DOCKED: REMARK    4  A    between atoms: C_6  and  C_7
DOCKED: REMARK                            x       y       z     vdW  Elec       q    Type
DOCKED: REMARK                         _______ _______ _______ _____ _____    ______ ____
DOCKED: USER                              x       y       z     vdW  Elec       q    Type
DOCKED: USER                           _______ _______ _______ _____ _____    ______ ____
DOCKED: ROOT
DOCKED: ATOM      1  C   UNL     1      23.687 -18.622  -0.260 -0.73 -0.00    +0.000 C 
DOCKED: ENDROOT
DOCKED: BRANCH   1   2
DOCKED: ATOM      2  C   UNL     1      22.559 -17.591  -0.409 -0.78 -0.00    +0.000 C 
DOCKED: BRANCH   2   5
DOCKED: ATOM      3  O   UNL     1      20.219 -20.101  -2.005 -2.26 -0.00    +0.000 OA
DOCKED: ATOM      4  N   UNL     1      21.332 -19.553  -1.467 -0.69 -0.00    +0.000 N 
DOCKED: ATOM      5  C   UNL     1      21.319 -18.205  -0.990 -0.69 -0.00    +0.000 C 
DOCKED: ATOM      6  O   UNL     1      20.267 -17.516  -1.082 -2.03 -0.00    +0.000 OA
DOCKED: ATOM      7  H   UNL     1      22.158 -20.085  -1.403 -0.34 -0.00    +0.000 HD
DOCKED: ENDBRANCH   2   5
DOCKED: ENDBRANCH   1   2
DOCKED: BRANCH   1   8
DOCKED: ATOM      8  C   UNL     1      24.851 -18.356  -1.223 -0.54 -0.00    +0.000 C 
DOCKED: BRANCH   8   9
DOCKED: ATOM      9  C   UNL     1      25.585 -17.102  -0.831 -0.55 -0.00    +0.000 A 
DOCKED: ATOM     10  C   UNL     1      25.208 -15.861  -1.370 -0.41 -0.00    +0.000 A 
DOCKED: ATOM     11  C   UNL     1      25.912 -14.702  -1.029 -0.30 -0.00    +0.000 A 
DOCKED: ATOM     12  C   UNL     1      27.002 -14.775  -0.158 -0.28 -0.00    +0.000 A 
DOCKED: ATOM     13  C   UNL     1      27.392 -16.009   0.373 -0.25 -0.00    +0.000 A 
DOCKED: ATOM     14  C   UNL     1      26.690 -17.170   0.034 -0.43 -0.00    +0.000 A 
DOCKED: ENDBRANCH   8   9
DOCKED: ENDBRANCH   1   8
DOCKED: TORSDOF 4
DOCKED: TER
DOCKED: ENDMDL
________________________________________________________________________________


	BEGINNING GENETIC ALGORITHM DOCKING 99 of 100
Run: 99 Seed: 1795937634 785757677 [ Run 99 of 100 GA/GALS ]
Beginning LAMARCKIAN GENETIC ALGORITHM (LGA), with a maximum of 2500000 energy evaluations.

Final-Value: -11.248


	FINAL GENETIC ALGORITHM DOCKED STATE
	_______________________________________________


Detailed state:  trans 24.791 -17.107 -0.758 quatxyzw 0.522535 -0.399401 0.748476 -0.084972 center 0.534 -0.142 0.039 ntor 4 -15.0414 178.0936 6.1008 -14.1090
State:	 24.791 -17.107  -0.758   0.524 -0.401  0.751 -170.251    -15.04  178.09    6.10  -14.11

DOCKED: MODEL       99
DOCKED: USER    Run = 99
DOCKED: USER    DPF = ligand_dock.biased.dpf
DOCKED: USER  
DOCKED: USER    Estimated Free Energy of Binding    =   -9.70 kcal/mol  [=(1)+(2)+(3)-(4)]
DOCKED: USER    Estimated Inhibition Constant, Ki   =   77.33 nM (nanomolar)  [Temperature = 298.15 K]
DOCKED: USER    
DOCKED: USER    (1) Final Intermolecular Energy     =  -10.90 kcal/mol
DOCKED: USER        vdW + Hbond + desolv Energy     =  -10.90 kcal/mol
DOCKED: USER        Electrostatic Energy            =   +0.00 kcal/mol
DOCKED: USER    (2) Final Total Internal Energy     =   -0.35 kcal/mol
DOCKED: USER    (3) Torsional Free Energy           =   +1.19 kcal/mol
DOCKED: USER    (4) Unbound System's Energy  [=(2)] =   -0.35 kcal/mol
DOCKED: USER    
DOCKED: USER    
DOCKED: USER    NEWDPF move ligand.pdbqt
DOCKED: USER    NEWDPF about 0.534000 -0.142000 0.039000
DOCKED: USER    NEWDPF tran0 24.790545 -17.106708 -0.758005
DOCKED: USER    NEWDPF quaternion0 0.522535 -0.399401 0.748476 -0.084972
DOCKED: USER    NEWDPF axisangle0 0.524431 -0.400851 0.751193 -170.251186
DOCKED: USER    NEWDPF quat0 0.524431 -0.400851 0.751193 -170.251186
DOCKED: USER    NEWDPF dihe0 -15.04 178.09 6.10 -14.11 
DOCKED: USER  keepresnum = 1 
DOCKED: USER  
DOCKED: REMARK  Name = 
DOCKED: REMARK  4 active torsions:
DOCKED: REMARK  status: ('A' for Active; 'I' for Inactive)
DOCKED: REMARK    1  A    between atoms: C_3  and  C_4
DOCKED: REMARK    2  A    between atoms: C_4  and  C_5
DOCKED: REMARK    3  A    between atoms: C_5  and  C_6
DOCKED: REMARK    4  A    between atoms: C_6  and  C_7
DOCKED: REMARK                            x       y       z     vdW  Elec       q    Type
DOCKED: REMARK                         _______ _______ _______ _____ _____    ______ ____
DOCKED: USER                              x       y       z     vdW  Elec       q    Type
DOCKED: USER                           _______ _______ _______ _____ _____    ______ ____
DOCKED: ROOT
DOCKED: ATOM      1  C   UNL     1      23.937 -18.049  -1.288 -0.77 -0.00    +0.000 C 
DOCKED: ENDROOT
DOCKED: BRANCH   1   2
DOCKED: ATOM      2  C   UNL     1      22.898 -18.571  -0.286 -0.82 -0.00    +0.000 C 
DOCKED: BRANCH   2   5
DOCKED: ATOM      3  O   UNL     1      19.879 -19.764  -2.232 -2.28 -0.00    +0.000 OA
DOCKED: ATOM      4  N   UNL     1      21.113 -19.731  -1.679 -0.65 -0.00    +0.000 N 
DOCKED: ATOM      5  C   UNL     1      21.522 -18.615  -0.884 -0.83 -0.00    +0.000 C 
DOCKED: ATOM      6  O   UNL     1      20.734 -17.648  -0.707 -2.18 +0.00    +0.000 OA
DOCKED: ATOM      7  H   UNL     1      21.735 -20.481  -1.825 -0.42 -0.00    +0.000 HD
DOCKED: ENDBRANCH   2   5
DOCKED: ENDBRANCH   1   2
DOCKED: BRANCH   1   8
DOCKED: ATOM      8  C   UNL     1      24.445 -16.648  -0.925 -0.57 -0.00    +0.000 C 
DOCKED: BRANCH   8   9
DOCKED: ATOM      9  C   UNL     1      25.644 -16.288  -1.761 -0.49 -0.00    +0.000 A 
DOCKED: ATOM     10  C   UNL     1      25.489 -15.534  -2.936 -0.49 -0.00    +0.000 A 
DOCKED: ATOM     11  C   UNL     1      26.600 -15.228  -3.728 -0.44 -0.00    +0.000 A 
DOCKED: ATOM     12  C   UNL     1      27.870 -15.681  -3.360 -0.27 -0.00    +0.000 A 
DOCKED: ATOM     13  C   UNL     1      28.030 -16.444  -2.199 -0.27 -0.00    +0.000 A 
DOCKED: ATOM     14  C   UNL     1      26.922 -16.752  -1.403 -0.41 -0.00    +0.000 A 
DOCKED: ENDBRANCH   8   9
DOCKED: ENDBRANCH   1   8
DOCKED: TORSDOF 4
DOCKED: TER
DOCKED: ENDMDL
________________________________________________________________________________


	BEGINNING GENETIC ALGORITHM DOCKING 100 of 100
Run: 100 Seed: 2138639830 555937534 [ Run 100 of 100 GA/GALS ]
Beginning LAMARCKIAN GENETIC ALGORITHM (LGA), with a maximum of 2500000 energy evaluations.

Final-Value: -10.902


	FINAL GENETIC ALGORITHM DOCKED STATE
	_______________________________________________


Detailed state:  trans 23.682 -18.448 -0.821 quatxyzw -0.121882 0.496413 0.756804 -0.407390 center 0.534 -0.142 0.039 ntor 4 -9.8021 167.6415 -173.9702 -72.8761
State:	 23.682 -18.448  -0.821  -0.133  0.544  0.829 -131.918     -9.80  167.64 -173.97  -72.88

DOCKED: MODEL      100
DOCKED: USER    Run = 100
DOCKED: USER    DPF = ligand_dock.biased.dpf
DOCKED: USER  
DOCKED: USER    Estimated Free Energy of Binding    =   -9.33 kcal/mol  [=(1)+(2)+(3)-(4)]
DOCKED: USER    Estimated Inhibition Constant, Ki   =  144.18 nM (nanomolar)  [Temperature = 298.15 K]
DOCKED: USER    
DOCKED: USER    (1) Final Intermolecular Energy     =  -10.53 kcal/mol
DOCKED: USER        vdW + Hbond + desolv Energy     =  -10.53 kcal/mol
DOCKED: USER        Electrostatic Energy            =   +0.00 kcal/mol
DOCKED: USER    (2) Final Total Internal Energy     =   -0.38 kcal/mol
DOCKED: USER    (3) Torsional Free Energy           =   +1.19 kcal/mol
DOCKED: USER    (4) Unbound System's Energy  [=(2)] =   -0.38 kcal/mol
DOCKED: USER    
DOCKED: USER    
DOCKED: USER    NEWDPF move ligand.pdbqt
DOCKED: USER    NEWDPF about 0.534000 -0.142000 0.039000
DOCKED: USER    NEWDPF tran0 23.681887 -18.448487 -0.820772
DOCKED: USER    NEWDPF quaternion0 -0.121882 0.496413 0.756804 -0.407390
DOCKED: USER    NEWDPF axisangle0 -0.133459 0.543565 0.828689 -131.918002
DOCKED: USER    NEWDPF quat0 -0.133459 0.543565 0.828689 -131.918002
DOCKED: USER    NEWDPF dihe0 -9.80 167.64 -173.97 -72.88 
DOCKED: USER  keepresnum = 1 
DOCKED: USER  
DOCKED: REMARK  Name = 
DOCKED: REMARK  4 active torsions:
DOCKED: REMARK  status: ('A' for Active; 'I' for Inactive)
DOCKED: REMARK    1  A    between atoms: C_3  and  C_4
DOCKED: REMARK    2  A    between atoms: C_4  and  C_5
DOCKED: REMARK    3  A    between atoms: C_5  and  C_6
DOCKED: REMARK    4  A    between atoms: C_6  and  C_7
DOCKED: REMARK                            x       y       z     vdW  Elec       q    Type
DOCKED: REMARK                         _______ _______ _______ _____ _____    ______ ____
DOCKED: USER                              x       y       z     vdW  Elec       q    Type
DOCKED: USER                           _______ _______ _______ _____ _____    ______ ____
DOCKED: ROOT
DOCKED: ATOM      1  C   UNL     1      22.543 -18.618  -0.065 -0.78 -0.00    +0.000 C 
DOCKED: ENDROOT
DOCKED: BRANCH   1   2
DOCKED: ATOM      2  C   UNL     1      21.259 -18.177  -0.781 -0.72 -0.00    +0.000 C 
DOCKED: BRANCH   2   5
DOCKED: ATOM      3  O   UNL     1      18.410 -20.487   0.155 -0.92 -0.00    +0.000 OA
DOCKED: ATOM      4  N   UNL     1      19.308 -19.477   0.208 -0.74 -0.00    +0.000 N 
DOCKED: ATOM      5  C   UNL     1      20.251 -19.287  -0.850 -0.89 -0.00    +0.000 C 
DOCKED: ATOM      6  O   UNL     1      20.257 -20.074  -1.834 -2.31 -0.00    +0.000 OA
DOCKED: ATOM      7  H   UNL     1      19.312 -18.866   0.982 -0.29 -0.00    +0.000 HD
DOCKED: ENDBRANCH   2   5
DOCKED: ENDBRANCH   1   2
DOCKED: BRANCH   1   8
DOCKED: ATOM      8  C   UNL     1      23.656 -19.000  -1.049 -0.78 -0.00    +0.000 C 
DOCKED: BRANCH   8   9
DOCKED: ATOM      9  C   UNL     1      24.763 -17.980  -1.016 -0.65 -0.00    +0.000 A 
DOCKED: ATOM     10  C   UNL     1      24.673 -16.811  -1.790 -0.55 -0.00    +0.000 A 
DOCKED: ATOM     11  C   UNL     1      25.716 -15.880  -1.783 -0.46 -0.00    +0.000 A 
DOCKED: ATOM     12  C   UNL     1      26.858 -16.113  -1.014 -0.38 -0.00    +0.000 A 
DOCKED: ATOM     13  C   UNL     1      26.961 -17.281  -0.251 -0.46 -0.00    +0.000 A 
DOCKED: ATOM     14  C   UNL     1      25.920 -18.215  -0.255 -0.60 -0.00    +0.000 A 
DOCKED: ENDBRANCH   8   9
DOCKED: ENDBRANCH   1   8
DOCKED: TORSDOF 4
DOCKED: TER
DOCKED: ENDMDL
________________________________________________________________________________

DPF>                           # do this many hybrid GA-LS runs

DPF> analysis                             # perform a ranked cluster analysis


		CLUSTER ANALYSIS OF CONFORMATIONS
		_________________________________

Number of conformations = 100

RMSD cluster analysis will be performed using the ligand atoms only (14 / 14 total atoms).

Outputting structurally similar clusters, ranked in order of increasing energy.


________________________________________________________________________________

Number of distinct conformational clusters found = 1,  out of 100 runs,
Using an rmsd-tolerance of 2.0 A


	CLUSTERING HISTOGRAM
	____________________

________________________________________________________________________________
     |           |     |           |     |                                    
Clus | Lowest    | Run | Mean      | Num | Histogram                          
-ter | Binding   |     | Binding   | in  |                                    
Rank | Energy    |     | Energy    | Clus|    5    10   15   20   25   30   35
_____|___________|_____|___________|_____|____:____|____:____|____:____|____:___
   1 |     -9.78 |  71 |     -9.39 | 100 |####################################################################################################
_____|___________|_____|___________|_____|______________________________________


Number of multi-member conformational clusters found = 1, out of 100 runs.

	RMSD TABLE
	__________

_____________________________________________________________________
     |      |      |           |         |                 |
Rank | Sub- | Run  | Binding   | Cluster | Reference       | Grep
     | Rank |      | Energy    | RMSD    | RMSD            | Pattern
_____|______|______|___________|_________|_________________|___________
   1      1     71       -9.78      0.00     29.04           RANKING
   1      2     55       -9.77      0.83     28.75           RANKING
   1      3     81       -9.74      0.51     28.89           RANKING
   1      4     50       -9.70      0.73     28.89           RANKING
   1      5     99       -9.70      0.67     28.89           RANKING
   1      6      5       -9.69      0.61     29.09           RANKING
   1      7     25       -9.66      0.71     29.00           RANKING
   1      8     92       -9.66      0.43     29.14           RANKING
   1      9     48       -9.64      1.07     28.44           RANKING
   1     10     11       -9.64      0.68     28.83           RANKING
   1     11     72       -9.63      0.77     28.79           RANKING
   1     12     62       -9.63      0.63     28.86           RANKING
   1     13     87       -9.63      0.81     28.92           RANKING
   1     14      1       -9.63      0.80     28.72           RANKING
   1     15     12       -9.62      0.76     28.92           RANKING
   1     16     85       -9.62      1.15     28.44           RANKING
   1     17     65       -9.62      0.74     28.79           RANKING
   1     18     44       -9.62      0.70     29.04           RANKING
   1     19     31       -9.61      0.98     28.91           RANKING
   1     20     21       -9.61      0.78     28.75           RANKING
   1     21     26       -9.60      0.85     28.43           RANKING
   1     22     15       -9.60      0.90     28.70           RANKING
   1     23     94       -9.60      0.57     28.82           RANKING
   1     24     45       -9.60      0.61     29.10           RANKING
   1     25     70       -9.59      1.06     28.53           RANKING
   1     26     61       -9.59      0.55     29.02           RANKING
   1     27     88       -9.59      0.80     28.94           RANKING
   1     28     89       -9.57      0.69     28.83           RANKING
   1     29     96       -9.56      0.65     29.17           RANKING
   1     30     63       -9.55      0.74     29.11           RANKING
   1     31     13       -9.54      1.13     28.53           RANKING
   1     32     35       -9.54      0.80     28.84           RANKING
   1     33     54       -9.53      0.81     29.00           RANKING
   1     34     51       -9.53      1.03     28.50           RANKING
   1     35     32       -9.53      0.97     28.59           RANKING
   1     36     10       -9.53      1.09     28.42           RANKING
   1     37     30       -9.52      0.73     28.76           RANKING
   1     38      9       -9.51      1.09     28.45           RANKING
   1     39      6       -9.50      0.91     28.55           RANKING
   1     40     74       -9.50      0.99     28.56           RANKING
   1     41     73       -9.49      0.72     28.82           RANKING
   1     42     38       -9.49      0.89     28.95           RANKING
   1     43     95       -9.49      0.80     28.86           RANKING
   1     44     83       -9.48      0.92     28.73           RANKING
   1     45     68       -9.47      0.77     28.88           RANKING
   1     46      8       -9.46      0.69     29.21           RANKING
   1     47     64       -9.46      0.67     28.69           RANKING
   1     48      7       -9.45      0.95     28.49           RANKING
   1     49     23       -9.45      1.14     28.58           RANKING
   1     50     17       -9.42      1.04     28.66           RANKING
   1     51     37       -9.42      1.11     28.53           RANKING
   1     52     78       -9.40      1.06     28.60           RANKING
   1     53     33       -9.40      0.73     28.94           RANKING
   1     54     14       -9.40      0.81     29.25           RANKING
   1     55     77       -9.38      0.57     28.83           RANKING
   1     56     29       -9.38      1.16     28.97           RANKING
   1     57     42       -9.37      1.10     28.95           RANKING
   1     58     43       -9.37      0.71     28.81           RANKING
   1     59     40       -9.37      0.83     28.87           RANKING
   1     60     22       -9.36      1.20     28.80           RANKING
   1     61     97       -9.36      1.07     28.71           RANKING
   1     62     47       -9.35      1.25     28.98           RANKING
   1     63     49       -9.34      1.08     28.68           RANKING
   1     64    100       -9.33      1.75     28.43           RANKING
   1     65     66       -9.32      0.81     28.99           RANKING
   1     66     16       -9.32      0.99     28.74           RANKING
   1     67     34       -9.31      1.05     29.00           RANKING
   1     68     76       -9.31      0.80     28.97           RANKING
   1     69     57       -9.30      0.78     28.88           RANKING
   1     70     90       -9.29      0.95     29.16           RANKING
   1     71     86       -9.28      0.82     29.35           RANKING
   1     72     67       -9.27      0.95     28.62           RANKING
   1     73      3       -9.27      0.80     29.14           RANKING
   1     74     80       -9.27      1.66     28.47           RANKING
   1     75     27       -9.26      1.71     28.36           RANKING
   1     76     36       -9.25      0.78     28.98           RANKING
   1     77     79       -9.24      1.74     28.45           RANKING
   1     78     46       -9.23      1.56     28.78           RANKING
   1     79     53       -9.20      1.77     28.48           RANKING
   1     80     28       -9.20      0.84     29.22           RANKING
   1     81     84       -9.18      0.95     28.50           RANKING
   1     82     20       -9.17      0.92     28.97           RANKING
   1     83     52       -9.16      1.07     29.17           RANKING
   1     84      2       -9.15      1.08     28.42           RANKING
   1     85     82       -9.15      1.10     28.98           RANKING
   1     86     41       -9.14      1.01     29.05           RANKING
   1     87      4       -9.13      1.78     28.46           RANKING
   1     88     59       -9.12      0.94     28.53           RANKING
   1     89     75       -9.11      1.47     28.64           RANKING
   1     90     98       -9.10      1.26     28.67           RANKING
   1     91     19       -9.10      1.53     28.87           RANKING
   1     92     18       -9.09      1.21     28.72           RANKING
   1     93     24       -9.06      0.99     28.94           RANKING
   1     94     56       -9.06      1.78     28.45           RANKING
   1     95     91       -9.05      0.83     28.94           RANKING
   1     96     60       -9.04      0.84     28.92           RANKING
   1     97     58       -8.93      0.95     28.58           RANKING
   1     98     93       -8.81      0.74     28.91           RANKING
   1     99     69       -8.79      1.41     28.69           RANKING
   1    100     39       -8.58      0.87     29.18           RANKING
_______________________________________________________________________



	INFORMATION ENTROPY ANALYSIS FOR THIS CLUSTERING
	________________________________________________


Information entropy for this clustering = 0.00  (rmstol = 2.00 Angstrom)

_______________________________________________________________________


	STATISTICAL MECHANICAL ANALYSIS
	_______________________________


Partition function, Q =   101.60            at Temperature, T = 298.15 K
Free energy,        A ~ -2737.87 kcal/mol   at Temperature, T = 298.15 K
Internal energy,    U =    -9.39 kcal/mol   at Temperature, T = 298.15 K
Entropy,            S =     9.15 kcal/mol/K at Temperature, T = 298.15 K

_______________________________________________________________________


	LOWEST ENERGY DOCKED CONFORMATION from EACH CLUSTER
	___________________________________________________



Keeping original residue number (specified in the input PDBQ file) for outputting.

MODEL       71
USER    Run = 71
USER    Cluster Rank = 1
USER    Number of conformations in this cluster = 100
USER  
USER    RMSD from reference structure       = 29.038 A
USER  
USER    Estimated Free Energy of Binding    =   -9.78 kcal/mol  [=(1)+(2)+(3)-(4)]
USER    Estimated Inhibition Constant, Ki   =   67.24 nM (nanomolar)  [Temperature = 298.15 K]
USER    
USER    (1) Final Intermolecular Energy     =  -10.98 kcal/mol
USER        vdW + Hbond + desolv Energy     =  -10.98 kcal/mol
USER        Electrostatic Energy            =   +0.00 kcal/mol
USER    (2) Final Total Internal Energy     =   -0.39 kcal/mol
USER    (3) Torsional Free Energy           =   +1.19 kcal/mol
USER    (4) Unbound System's Energy  [=(2)] =   -0.39 kcal/mol
USER    
USER    
USER  
USER    DPF = ligand_dock.biased.dpf
USER    NEWDPF move	ligand.pdbqt
USER    NEWDPF about	0.534000 -0.142000 0.039000
USER    NEWDPF tran0	25.195504 -18.622714 -0.242010
USER    NEWDPF axisangle0	0.311884 -0.671117 0.672555 -141.749172
USER    NEWDPF quaternion0	0.294669 -0.634074 0.635432 -0.327637
USER    NEWDPF dihe0	-50.12 -125.77 122.45 50.87 
USER  
USER                              x       y       z    vdW   Elec        q     RMS 
ATOM      1  C   UNL     1      23.999 -18.555  -0.922 -0.79 -0.00    +0.000    29.038
ATOM      2  C   UNL     1      22.798 -18.236  -0.021 -0.78 -0.00    +0.000    29.038
ATOM      3  O   UNL     1      20.079 -19.759  -2.168 -2.32 -0.00    +0.000    29.038
ATOM      4  N   UNL     1      21.245 -19.604  -1.501 -0.68 -0.00    +0.000    29.038
ATOM      5  C   UNL     1      21.496 -18.415  -0.746 -0.84 -0.00    +0.000    29.038
ATOM      6  O   UNL     1      20.632 -17.499  -0.712 -2.09 +0.00    +0.000    29.038
ATOM      7  H   UNL     1      21.927 -20.314  -1.535 -0.34 -0.00    +0.000    29.038
ATOM      8  C   UNL     1      25.321 -18.045  -0.332 -0.70 -0.00    +0.000    29.038
ATOM      9  C   UNL     1      26.044 -17.179  -1.328 -0.50 -0.00    +0.000    29.038
ATOM     10  C   UNL     1      27.449 -17.144  -1.351 -0.37 -0.00    +0.000    29.038
ATOM     11  C   UNL     1      28.118 -16.315  -2.256 -0.27 -0.00    +0.000    29.038
ATOM     12  C   UNL     1      27.392 -15.507  -3.135 -0.30 -0.00    +0.000    29.038
ATOM     13  C   UNL     1      25.994 -15.526  -3.110 -0.47 -0.00    +0.000    29.038
ATOM     14  C   UNL     1      25.321 -16.354  -2.207 -0.51 -0.00    +0.000    29.038
TER
ENDMDL


AVSFLD: # AVS field file
AVSFLD: #
AVSFLD: # Created by AutoDock
AVSFLD: #
AVSFLD: ndim=2           # number of dimensions in the field
AVSFLD: nspace=1         # number of physical coordinates
AVSFLD: veclen=7         # vector size
AVSFLD: dim1=14          # atoms
AVSFLD: dim2=1           # conformations
AVSFLD: data=Real       # data type (byte,integer,Real,double)
AVSFLD: field=uniform    # field coordinate layout
AVSFLD: label= x y z vdW Elec q RMS
AVSFLD: variable 1 file = ligand_dock.biased.dlg.pdb filetype = ascii offset = 5 stride = 12
AVSFLD: variable 2 file = ligand_dock.biased.dlg.pdb filetype = ascii offset = 6 stride = 12
AVSFLD: variable 3 file = ligand_dock.biased.dlg.pdb filetype = ascii offset = 7 stride = 12
AVSFLD: variable 4 file = ligand_dock.biased.dlg.pdb filetype = ascii offset = 8 stride = 12
AVSFLD: variable 5 file = ligand_dock.biased.dlg.pdb filetype = ascii offset = 9 stride = 12
AVSFLD: variable 6 file = ligand_dock.biased.dlg.pdb filetype = ascii offset = 10 stride = 12
AVSFLD: variable 7 file = ligand_dock.biased.dlg.pdb filetype = ascii offset = 11 stride = 12
AVSFLD: # end of file

>>> Closing the docking parameter file (DPF)...
This docking finished at:			11:12 24" a.m., 11/08/2024


________________________________________________________________________________

autodock4: Successful Completion on "ThinkStation-P620"

Real= 7m 06.01s,  CPU= 7m 05.75s,  System= 0.22s
________________________________________________________________________________

