REMARK  Name = 
REMARK  8 active torsions:
REMARK  status: ('A' for Active; 'I' for Inactive)
REMARK    1  A    between atoms: C_2  and  C_5
REMARK    2  A    between atoms: C_5  and  C_6
REMARK    3  A    between atoms: C_6  and  C_7
REMARK    4  A    between atoms: C_7  and  C_8
REMARK    5  A    between atoms: C_8  and  C_9
REMARK    6  A    between atoms: C_9  and  C_10
REMARK    7  A    between atoms: C_10  and  C_11
REMARK    8  A    between atoms: N_12  and  C_13
REMARK                            x       y       z     vdW  Elec       q    Type
REMARK                         _______ _______ _______ _____ _____    ______ ____
ROOT
ATOM      1  C   UNL     1      -0.457   1.642  -0.355  0.00  0.00    +0.000 C 
ENDROOT
BRANCH   1   2
ATOM      2  C   UNL     1      -1.907   1.414  -0.047  0.00  0.00    +0.000 C 
ATOM      3  N   UNL     1      -2.452   0.087  -0.108  0.00  0.00    +0.000 N 
ATOM      4  O   UNL     1      -2.636   2.397   0.258  0.00  0.00    +0.000 OA
ATOM      5  H   UNL     1      -1.896  -0.622  -0.504  0.00  0.00    +0.000 HD
BRANCH   3   6
ATOM      6  C   UNL     1      -3.759  -0.272   0.371  0.00  0.00    +0.000 A 
ATOM      7  C   UNL     1      -4.476  -1.292  -0.269  0.00  0.00    +0.000 A 
ATOM      8  C   UNL     1      -5.737  -1.664   0.200  0.00  0.00    +0.000 A 
ATOM      9  C   UNL     1      -6.265  -1.024   1.321  0.00  0.00    +0.000 A 
ATOM     10  N   UNL     1      -5.550  -0.055   1.951  0.00  0.00    +0.000 NA
ATOM     11  C   UNL     1      -4.322   0.330   1.510  0.00  0.00    +0.000 A 
ENDBRANCH   3   6
ENDBRANCH   1   2
BRANCH   1  12
ATOM     12  C   UNL     1       0.411   1.246   0.847  0.00  0.00    +0.000 C 
BRANCH  12  13
ATOM     13  C   UNL     1       1.899   1.581   0.641  0.00  0.00    +0.000 C 
BRANCH  13  14
ATOM     14  C   UNL     1       2.620   0.674  -0.373  0.00  0.00    +0.000 C 
BRANCH  14  15
ATOM     15  C   UNL     1       2.914  -0.727   0.190  0.00  0.00    +0.000 C 
BRANCH  15  16
ATOM     16  C   UNL     1       3.631  -1.625  -0.827  0.00  0.00    +0.000 C 
BRANCH  16  18
ATOM     17  O   UNL     1       5.949  -1.335  -0.316  0.00  0.00    +0.000 OA
ATOM     18  C   UNL     1       5.014  -1.129  -1.136  0.00  0.00    +0.000 C 
ATOM     19  N   UNL     1       5.269  -0.402  -2.340  0.00  0.00    +0.000 N 
ATOM     20  O   UNL     1       6.516   0.047  -2.619  0.00  0.00    +0.000 OA
ATOM     21  H   UNL     1       4.534  -0.226  -2.971  0.00  0.00    +0.000 HD
ENDBRANCH  16  18
ENDBRANCH  15  16
ENDBRANCH  14  15
ENDBRANCH  13  14
ENDBRANCH  12  13
ENDBRANCH   1  12
TORSDOF 8
