          AutoDock 4.2 Release 4.2.6   
         (C) 1989-2012 The Scripps Research Institute
        AutoDock comes with ABSOLUTELY NO WARRANTY.
        AutoDock is free software, and you are welcome
        to redistribute it under certain conditions;
        for details type 'autodock4 -C'

                     main.cc  $Revision: 1.213 $

                   Compiled on Feb 20 2022 at 09:48:33


This file was created at:			11:05 18" a.m., 11/08/2024
                   on host:		"ThinkStation-P620"
Current Working Directory = "/home/antonio/Documenti/buccheri/IDROSSAMICO HDAC/HDAC 2/DP/Ligand_8"

      ________________________________________________________________

                   SETTING UP DEFAULT PARAMETER LIBRARY
      ________________________________________________________________


Random number generator was seeded with values 333848, 1731060318.
Docking parameter file (DPF) used for this docking:		ligand_dock.biased.dpf
DPF> autodock_parameter_version 4.2       # used by autodock to validate parameter set

	Autodock parameter version 4.2.
DPF> outlev 1                             # diagnostic output level

Output Level = 1  ADT-COMPATIBLE OUTPUT DURING DOCKING.
DPF> intelec                              # calculate internal electrostatics

Electrostatic energies will be calculated for all non-bonds between moving atoms.
DPF> seed pid time                        # seeds for random generator

Random number generator was seeded with values 333848, 1731060318.
DPF> ligand_types A C NA OA N HD          # atoms types in ligand

DPF> fld receptor.maps.fld                # grid_data_file

Opening Grid Map Dimensions file:		receptor.maps.fld
Grid Point Spacing =				0.375 Angstroms

Even Number of User-specified Grid Points =	70 x-points
						70 y-points
						70 z-points

Coordinates of Central Grid Point of Maps =	(24.757, -16.735, 0.794)
Macromolecule file used to create Grid Maps =	receptor.pdbqt
Grid Parameter file used to create Grid Maps =	receptor.gpf
Minimum coordinates in grid = (11.632, -29.860, -12.331)
Maximum coordinates in grid = (37.882, -3.610, 13.919)

DPF> map receptor.A.map                   # atom-specific affinity map

DPF> map receptor.C.map                   # atom-specific affinity map

DPF> map receptor.NA.biased.map

DPF> map receptor.OA.biased.map

DPF> map receptor.N.map                   # atom-specific affinity map

DPF> map receptor.HD.biased.map

DPF> elecmap receptor.e.map               # electrostatics map

DPF> desolvmap receptor.d.map             # desolvation map

DPF> move ligand.pdbqt                    # small molecule

1,4-interactions will be _ignored_ in the non-bonded internal energy calculation.

Ligand PDBQT file = "ligand.pdbqt"

INPUT LIGAND PDBQT FILE:
________________________

INPUT-LIGAND-PDBQT: REMARK  Name = 
INPUT-LIGAND-PDBQT: REMARK  8 active torsions:
INPUT-LIGAND-PDBQT: REMARK  status: ('A' for Active; 'I' for Inactive)
INPUT-LIGAND-PDBQT: REMARK    1  A    between atoms: C_2  and  C_5
INPUT-LIGAND-PDBQT: REMARK    2  A    between atoms: C_5  and  C_6
INPUT-LIGAND-PDBQT: REMARK    3  A    between atoms: C_6  and  C_7
INPUT-LIGAND-PDBQT: REMARK    4  A    between atoms: C_7  and  C_8
INPUT-LIGAND-PDBQT: REMARK    5  A    between atoms: C_8  and  C_9
INPUT-LIGAND-PDBQT: REMARK    6  A    between atoms: C_9  and  C_10
INPUT-LIGAND-PDBQT: REMARK    7  A    between atoms: C_10  and  C_11
INPUT-LIGAND-PDBQT: REMARK    8  A    between atoms: N_12  and  C_13
INPUT-LIGAND-PDBQT: REMARK                            x       y       z     vdW  Elec       q    Type
INPUT-LIGAND-PDBQT: REMARK                         _______ _______ _______ _____ _____    ______ ____
INPUT-LIGAND-PDBQT: ROOT
INPUT-LIGAND-PDBQT: ATOM      1  C   UNL     1      -0.457   1.642  -0.355  0.00  0.00    +0.000 C 
INPUT-LIGAND-PDBQT: ENDROOT
INPUT-LIGAND-PDBQT: BRANCH   1   2
INPUT-LIGAND-PDBQT: ATOM      2  C   UNL     1      -1.907   1.414  -0.047  0.00  0.00    +0.000 C 
INPUT-LIGAND-PDBQT: ATOM      3  N   UNL     1      -2.452   0.087  -0.108  0.00  0.00    +0.000 N 
INPUT-LIGAND-PDBQT: ATOM      4  O   UNL     1      -2.636   2.397   0.258  0.00  0.00    +0.000 OA
INPUT-LIGAND-PDBQT: ATOM      5  H   UNL     1      -1.896  -0.622  -0.504  0.00  0.00    +0.000 HD
INPUT-LIGAND-PDBQT: BRANCH   3   6
INPUT-LIGAND-PDBQT: ATOM      6  C   UNL     1      -3.759  -0.272   0.371  0.00  0.00    +0.000 A 
INPUT-LIGAND-PDBQT: ATOM      7  C   UNL     1      -4.476  -1.292  -0.269  0.00  0.00    +0.000 A 
INPUT-LIGAND-PDBQT: ATOM      8  C   UNL     1      -5.737  -1.664   0.200  0.00  0.00    +0.000 A 
INPUT-LIGAND-PDBQT: ATOM      9  C   UNL     1      -6.265  -1.024   1.321  0.00  0.00    +0.000 A 
INPUT-LIGAND-PDBQT: ATOM     10  N   UNL     1      -5.550  -0.055   1.951  0.00  0.00    +0.000 NA
INPUT-LIGAND-PDBQT: ATOM     11  C   UNL     1      -4.322   0.330   1.510  0.00  0.00    +0.000 A 
INPUT-LIGAND-PDBQT: ENDBRANCH   3   6
INPUT-LIGAND-PDBQT: ENDBRANCH   1   2
INPUT-LIGAND-PDBQT: BRANCH   1  12
INPUT-LIGAND-PDBQT: ATOM     12  C   UNL     1       0.411   1.246   0.847  0.00  0.00    +0.000 C 
INPUT-LIGAND-PDBQT: BRANCH  12  13
INPUT-LIGAND-PDBQT: ATOM     13  C   UNL     1       1.899   1.581   0.641  0.00  0.00    +0.000 C 
INPUT-LIGAND-PDBQT: BRANCH  13  14
INPUT-LIGAND-PDBQT: ATOM     14  C   UNL     1       2.620   0.674  -0.373  0.00  0.00    +0.000 C 
INPUT-LIGAND-PDBQT: BRANCH  14  15
INPUT-LIGAND-PDBQT: ATOM     15  C   UNL     1       2.914  -0.727   0.190  0.00  0.00    +0.000 C 
INPUT-LIGAND-PDBQT: BRANCH  15  16
INPUT-LIGAND-PDBQT: ATOM     16  C   UNL     1       3.631  -1.625  -0.827  0.00  0.00    +0.000 C 
INPUT-LIGAND-PDBQT: BRANCH  16  18
INPUT-LIGAND-PDBQT: ATOM     17  O   UNL     1       5.949  -1.335  -0.316  0.00  0.00    +0.000 OA
INPUT-LIGAND-PDBQT: ATOM     18  C   UNL     1       5.014  -1.129  -1.136  0.00  0.00    +0.000 C 
INPUT-LIGAND-PDBQT: ATOM     19  N   UNL     1       5.269  -0.402  -2.340  0.00  0.00    +0.000 N 
INPUT-LIGAND-PDBQT: ATOM     20  O   UNL     1       6.516   0.047  -2.619  0.00  0.00    +0.000 OA
INPUT-LIGAND-PDBQT: ATOM     21  H   UNL     1       4.534  -0.226  -2.971  0.00  0.00    +0.000 HD
INPUT-LIGAND-PDBQT: ENDBRANCH  16  18
INPUT-LIGAND-PDBQT: ENDBRANCH  15  16
INPUT-LIGAND-PDBQT: ENDBRANCH  14  15
INPUT-LIGAND-PDBQT: ENDBRANCH  13  14
INPUT-LIGAND-PDBQT: ENDBRANCH  12  13
INPUT-LIGAND-PDBQT: ENDBRANCH   1  12
INPUT-LIGAND-PDBQT: TORSDOF 8
________________________________________________________________________________

Total charge on ligand                               =	+0.000 e
REMARK  Name = 
REMARK  8 active torsions:
REMARK  status: ('A' for Active; 'I' for Inactive)
REMARK    1  A    between atoms: C_2  and  C_5
REMARK    2  A    between atoms: C_5  and  C_6
REMARK    3  A    between atoms: C_6  and  C_7
REMARK    4  A    between atoms: C_7  and  C_8
REMARK    5  A    between atoms: C_8  and  C_9
REMARK    6  A    between atoms: C_9  and  C_10
REMARK    7  A    between atoms: C_10  and  C_11
REMARK    8  A    between atoms: N_12  and  C_13
REMARK                            x       y       z     vdW  Elec       q    Type
REMARK                         _______ _______ _______ _____ _____    ______ ____


Number of Rotatable Bonds in Small Molecule =	8 torsions
Number of atoms in ligand:  21

Number of non-hydrogen atoms in ligand:  19

Number of vibrational degrees of freedom of ligand:  57


Number of torsional degrees of freedom = 8
Estimated loss of torsional free energy upon binding = +2.3864 kcal/mol


DPF> about -0.033 -0.045 -0.218            # small molecule center

Small molecule center of rotation =	(-0.033, -0.045, -0.218)

DPF> tran0 random                         # initial coordinates/A or random

Initial translation =			(35.073, -27.388, 10.596) Angstroms
DPF> quaternion0 random                   # initial orientation

Each run will begin with a new, random initial orientation.
Initial quaternion,  (x,y,z,w) =	( -0.106, 0.623, -0.773, 0.053 ),
DPF> dihe0 random                         # initial dihedrals (relative) or random

DPF> torsdof 8                            # torsional degrees of freedom

Number of torsional degrees of freedom = 8
Free energy coefficient for torsional degrees of freedom = 0.2983, the factory default value.

Estimated loss of torsional free energy upon binding = +2.3864 kcal/mol

DPF> rmstol 2.0                           # cluster_tolerance/A

Maximum RMS tolerance for conformational cluster analysis = 2.00 Angstroms
DPF> extnrg 1000.0                        # external grid energy

External grid energy (beyond grid map walls) = 1000.00

DPF> e0max 0.0 10000                      # max initial energy; max number of retries

Using user-specified maximum number of retries for simanneal initialization, 10000 retries.
If the simanneal initial energy is greater than e0max, 0.000,
then a new, random initial state will be created.

DPF> ga_pop_size 150                      # number of individuals in population

A population of 150 individuals will be used
DPF> ga_num_evals 2500000                 # maximum number of energy evaluations

There will be at most 2500000 function evaluations used.
DPF> ga_num_generations 27000             # maximum number of generations

The GA will run for at most 27000 generations.
DPF> ga_elitism 1                         # number of top individuals to survive to next generation

The 1 best will be preserved each GA generation.
DPF> ga_mutation_rate 0.02                # rate of gene mutation

The mutation rate is 0.020000.
DPF> ga_crossover_rate 0.8                # rate of crossover

The crossover rate is 0.800000.
DPF> ga_window_size 10                    # 

The GA's selection window is 10 generations.
DPF> ga_cauchy_alpha 0.0                  # Alpha parameter of Cauchy distribution

The alpha parameter (for the Cauchy distribution) is being set to 0.000000.
DPF> ga_cauchy_beta 1.0                   # Beta parameter Cauchy distribution

The beta parameter (for the Cauchy distribution) is being set to 1.000000.
DPF> set_ga                               # set the above parameters for GA or LGA

DPF> sw_max_its 300                       # iterations of Solis & Wets local search

Solis & Wets algorithms will perform at most 300 iterations.
DPF> sw_max_succ 4                        # consecutive successes before changing rho

Solis & Wets algorithms expand rho every 4 in a row successes.
DPF> sw_max_fail 4                        # consecutive failures before changing rho

Solis & Wets algorithms contract rho every 4 in a row failures.
DPF> sw_rho 1.0                           # size of local search space to sample

rho is set to 1.000000.
DPF> sw_lb_rho 0.01                       # lower bound on rho

rho will never get smaller than 0.010000.
DPF> ls_search_freq 0.06                  # probability of performing local search on individual

Local search will be performed with frequency 0.060000.
DPF> set_psw1                             # set the above pseudo-Solis & Wets parameters

Creating a new Local Search object using the pseudo-Solis-Wets algorithm (pSW1) with the current settings.

DPF> unbound_model bound                  # state of unbound ligand

DPF> ga_run 100

centering ligand on specified point: -0.033 -0.045 -0.218
Furthest true ligand atom from "about" center is 6.976 Angstroms (maxrad).
Number of requested GA dockings = 100 runs
Unbound model to be used is 'same as bound' [AutoDock 4.2 default].

	BEGINNING GENETIC ALGORITHM DOCKING 1 of 100
Run: 1 Seed: 1378640460 53894576 [ Run 1 of 100 GA/GALS ]
Beginning LAMARCKIAN GENETIC ALGORITHM (LGA), with a maximum of 2500000 energy evaluations.

Final-Value: -13.559


	FINAL GENETIC ALGORITHM DOCKED STATE
	_______________________________________________


Detailed state:  trans 24.385 -15.810 -1.482 quatxyzw 0.512188 -0.094518 0.765413 0.377984 center -0.033 -0.045 -0.218 ntor 8 149.0836 -105.3803 46.9774 -44.4619 -61.9876 72.5154 151.3872 -21.9480
State:	 24.385 -15.810  -1.482   0.553 -0.102  0.827 135.582    149.08 -105.38   46.98  -44.46  -61.99   72.52  151.39  -21.95

DOCKED: MODEL        1
DOCKED: USER    Run = 1
DOCKED: USER    DPF = ligand_dock.biased.dpf
DOCKED: USER  
DOCKED: USER    Estimated Free Energy of Binding    =  -10.43 kcal/mol  [=(1)+(2)+(3)-(4)]
DOCKED: USER    Estimated Inhibition Constant, Ki   =   22.75 nM (nanomolar)  [Temperature = 298.15 K]
DOCKED: USER    
DOCKED: USER    (1) Final Intermolecular Energy     =  -12.81 kcal/mol
DOCKED: USER        vdW + Hbond + desolv Energy     =  -12.81 kcal/mol
DOCKED: USER        Electrostatic Energy            =   +0.00 kcal/mol
DOCKED: USER    (2) Final Total Internal Energy     =   -0.75 kcal/mol
DOCKED: USER    (3) Torsional Free Energy           =   +2.39 kcal/mol
DOCKED: USER    (4) Unbound System's Energy  [=(2)] =   -0.75 kcal/mol
DOCKED: USER    
DOCKED: USER    
DOCKED: USER    NEWDPF move ligand.pdbqt
DOCKED: USER    NEWDPF about -0.033000 -0.045000 -0.218000
DOCKED: USER    NEWDPF tran0 24.385390 -15.810159 -1.482209
DOCKED: USER    NEWDPF quaternion0 0.512188 -0.094518 0.765413 0.377984
DOCKED: USER    NEWDPF axisangle0 0.553232 -0.102092 0.826748 135.582213
DOCKED: USER    NEWDPF quat0 0.553232 -0.102092 0.826748 135.582213
DOCKED: USER    NEWDPF dihe0 149.08 -105.38 46.98 -44.46 -61.99 72.52 151.39 -21.95 
DOCKED: USER  keepresnum = 1 
DOCKED: USER  
DOCKED: REMARK  Name = 
DOCKED: REMARK  8 active torsions:
DOCKED: REMARK  status: ('A' for Active; 'I' for Inactive)
DOCKED: REMARK    1  A    between atoms: C_2  and  C_5
DOCKED: REMARK    2  A    between atoms: C_5  and  C_6
DOCKED: REMARK    3  A    between atoms: C_6  and  C_7
DOCKED: REMARK    4  A    between atoms: C_7  and  C_8
DOCKED: REMARK    5  A    between atoms: C_8  and  C_9
DOCKED: REMARK    6  A    between atoms: C_9  and  C_10
DOCKED: REMARK    7  A    between atoms: C_10  and  C_11
DOCKED: REMARK    8  A    between atoms: N_12  and  C_13
DOCKED: REMARK                            x       y       z     vdW  Elec       q    Type
DOCKED: REMARK                         _______ _______ _______ _____ _____    ______ ____
DOCKED: USER                              x       y       z     vdW  Elec       q    Type
DOCKED: USER                           _______ _______ _______ _____ _____    ______ ____
DOCKED: ROOT
DOCKED: ATOM      1  C   UNL     1      25.161 -16.732  -2.744 -0.41 -0.00    +0.000 C 
DOCKED: ENDROOT
DOCKED: BRANCH   1   2
DOCKED: ATOM      2  C   UNL     1      25.590 -15.519  -3.515 -0.56 -0.00    +0.000 C 
DOCKED: ATOM      3  N   UNL     1      26.917 -15.448  -4.058 -0.43 -0.00    +0.000 N 
DOCKED: ATOM      4  O   UNL     1      24.777 -14.568  -3.674 -0.91 -0.00    +0.000 OA
DOCKED: ATOM      5  H   UNL     1      27.568 -16.131  -3.777 -0.02 -0.00    +0.000 HD
DOCKED: BRANCH   3   6
DOCKED: ATOM      6  C   UNL     1      27.358 -14.441  -4.985 -0.36 -0.00    +0.000 A 
DOCKED: ATOM      7  C   UNL     1      26.983 -13.105  -4.787 -0.26 -0.00    +0.000 A 
DOCKED: ATOM      8  C   UNL     1      27.422 -12.115  -5.668 -0.18 -0.00    +0.000 A 
DOCKED: ATOM      9  C   UNL     1      28.251 -12.468  -6.734 -0.20 -0.00    +0.000 A 
DOCKED: ATOM     10  N   UNL     1      28.630 -13.762  -6.901 -0.32 -0.00    +0.000 NA
DOCKED: ATOM     11  C   UNL     1      28.211 -14.746  -6.060 -0.35 -0.00    +0.000 A 
DOCKED: ENDBRANCH   3   6
DOCKED: ENDBRANCH   1   2
DOCKED: BRANCH   1  12
DOCKED: ATOM     12  C   UNL     1      25.834 -16.751  -1.365 -0.57 -0.00    +0.000 C 
DOCKED: BRANCH  12  13
DOCKED: ATOM     13  C   UNL     1      25.149 -17.717  -0.383 -0.67 -0.00    +0.000 C 
DOCKED: BRANCH  13  14
DOCKED: ATOM     14  C   UNL     1      23.944 -18.473  -0.973 -0.80 -0.00    +0.000 C 
DOCKED: BRANCH  14  15
DOCKED: ATOM     15  C   UNL     1      22.750 -18.531  -0.005 -0.77 -0.00    +0.000 C 
DOCKED: BRANCH  15  16
DOCKED: ATOM     16  C   UNL     1      21.418 -18.224  -0.703 -0.82 -0.00    +0.000 C 
DOCKED: BRANCH  16  18
DOCKED: ATOM     17  O   UNL     1      19.931 -19.734  -1.809 -2.39 -0.00    +0.000 OA
DOCKED: ATOM     18  C   UNL     1      20.513 -19.421  -0.736 -0.89 -0.00    +0.000 C 
DOCKED: ATOM     19  N   UNL     1      20.288 -20.190   0.448 -0.71 -0.00    +0.000 N 
DOCKED: ATOM     20  O   UNL     1      19.470 -21.270   0.419 -0.82 -0.00    +0.000 OA
DOCKED: ATOM     21  H   UNL     1      20.729 -19.934   1.290 -0.39 -0.00    +0.000 HD
DOCKED: ENDBRANCH  16  18
DOCKED: ENDBRANCH  15  16
DOCKED: ENDBRANCH  14  15
DOCKED: ENDBRANCH  13  14
DOCKED: ENDBRANCH  12  13
DOCKED: ENDBRANCH   1  12
DOCKED: TORSDOF 8
DOCKED: TER
DOCKED: ENDMDL
________________________________________________________________________________


	BEGINNING GENETIC ALGORITHM DOCKING 2 of 100
Run: 2 Seed: 1917686599 202252304 [ Run 2 of 100 GA/GALS ]
Beginning LAMARCKIAN GENETIC ALGORITHM (LGA), with a maximum of 2500000 energy evaluations.

Final-Value: -14.362


	FINAL GENETIC ALGORITHM DOCKED STATE
	_______________________________________________


Detailed state:  trans 27.026 -14.839 -2.077 quatxyzw 0.125704 -0.693189 0.540555 -0.459878 center -0.033 -0.045 -0.218 ntor 8 -162.1181 -69.1033 103.9673 10.1305 125.9073 -110.2910 -28.7066 -147.1349
State:	 27.026 -14.839  -2.077   0.142 -0.781  0.609 -125.242   -162.12  -69.10  103.97   10.13  125.91 -110.29  -28.71 -147.13

DOCKED: MODEL        2
DOCKED: USER    Run = 2
DOCKED: USER    DPF = ligand_dock.biased.dpf
DOCKED: USER  
DOCKED: USER    Estimated Free Energy of Binding    =  -11.06 kcal/mol  [=(1)+(2)+(3)-(4)]
DOCKED: USER    Estimated Inhibition Constant, Ki   =    7.80 nM (nanomolar)  [Temperature = 298.15 K]
DOCKED: USER    
DOCKED: USER    (1) Final Intermolecular Energy     =  -13.45 kcal/mol
DOCKED: USER        vdW + Hbond + desolv Energy     =  -13.45 kcal/mol
DOCKED: USER        Electrostatic Energy            =   +0.00 kcal/mol
DOCKED: USER    (2) Final Total Internal Energy     =   -0.92 kcal/mol
DOCKED: USER    (3) Torsional Free Energy           =   +2.39 kcal/mol
DOCKED: USER    (4) Unbound System's Energy  [=(2)] =   -0.92 kcal/mol
DOCKED: USER    
DOCKED: USER    
DOCKED: USER    NEWDPF move ligand.pdbqt
DOCKED: USER    NEWDPF about -0.033000 -0.045000 -0.218000
DOCKED: USER    NEWDPF tran0 27.025639 -14.838638 -2.077321
DOCKED: USER    NEWDPF quaternion0 0.125704 -0.693189 0.540555 -0.459878
DOCKED: USER    NEWDPF axisangle0 0.141562 -0.780634 0.608745 -125.241552
DOCKED: USER    NEWDPF quat0 0.141562 -0.780634 0.608745 -125.241552
DOCKED: USER    NEWDPF dihe0 -162.12 -69.10 103.97 10.13 125.91 -110.29 -28.71 -147.13 
DOCKED: USER  keepresnum = 1 
DOCKED: USER  
DOCKED: REMARK  Name = 
DOCKED: REMARK  8 active torsions:
DOCKED: REMARK  status: ('A' for Active; 'I' for Inactive)
DOCKED: REMARK    1  A    between atoms: C_2  and  C_5
DOCKED: REMARK    2  A    between atoms: C_5  and  C_6
DOCKED: REMARK    3  A    between atoms: C_6  and  C_7
DOCKED: REMARK    4  A    between atoms: C_7  and  C_8
DOCKED: REMARK    5  A    between atoms: C_8  and  C_9
DOCKED: REMARK    6  A    between atoms: C_9  and  C_10
DOCKED: REMARK    7  A    between atoms: C_10  and  C_11
DOCKED: REMARK    8  A    between atoms: N_12  and  C_13
DOCKED: REMARK                            x       y       z     vdW  Elec       q    Type
DOCKED: REMARK                         _______ _______ _______ _____ _____    ______ ____
DOCKED: USER                              x       y       z     vdW  Elec       q    Type
DOCKED: USER                           _______ _______ _______ _____ _____    ______ ____
DOCKED: ROOT
DOCKED: ATOM      1  C   UNL     1      26.193 -14.209  -3.475 -0.44 -0.00    +0.000 C 
DOCKED: ENDROOT
DOCKED: BRANCH   1   2
DOCKED: ATOM      2  C   UNL     1      26.982 -15.031  -4.450 -0.48 -0.00    +0.000 C 
DOCKED: ATOM      3  N   UNL     1      28.406 -15.148  -4.301 -0.26 -0.00    +0.000 N 
DOCKED: ATOM      4  O   UNL     1      26.384 -15.609  -5.398 -1.20 +0.00    +0.000 OA
DOCKED: ATOM      5  H   UNL     1      28.851 -14.557  -3.652 +0.00 -0.00    +0.000 HD
DOCKED: BRANCH   3   6
DOCKED: ATOM      6  C   UNL     1      29.222 -16.073  -5.040 -0.29 -0.00    +0.000 A 
DOCKED: ATOM      7  C   UNL     1      29.578 -15.779  -6.363 -0.31 -0.00    +0.000 A 
DOCKED: ATOM      8  C   UNL     1      30.388 -16.658  -7.083 -0.28 -0.00    +0.000 A 
DOCKED: ATOM      9  C   UNL     1      30.853 -17.820  -6.467 -0.30 -0.00    +0.000 A 
DOCKED: ATOM     10  N   UNL     1      30.524 -18.082  -5.174 -0.29 -0.00    +0.000 NA
DOCKED: ATOM     11  C   UNL     1      29.731 -17.244  -4.453 -0.20 -0.00    +0.000 A 
DOCKED: ENDBRANCH   3   6
DOCKED: ENDBRANCH   1   2
DOCKED: BRANCH   1  12
DOCKED: ATOM     12  C   UNL     1      25.382 -15.121  -2.544 -0.45 -0.00    +0.000 C 
DOCKED: BRANCH  12  13
DOCKED: ATOM     13  C   UNL     1      26.150 -16.392  -2.142 -0.51 -0.00    +0.000 C 
DOCKED: BRANCH  13  14
DOCKED: ATOM     14  C   UNL     1      25.395 -17.307  -1.161 -0.64 -0.00    +0.000 C 
DOCKED: BRANCH  14  15
DOCKED: ATOM     15  C   UNL     1      23.968 -17.633  -1.634 -0.66 -0.00    +0.000 C 
DOCKED: BRANCH  15  16
DOCKED: ATOM     16  C   UNL     1      23.140 -18.334  -0.549 -0.82 -0.00    +0.000 C 
DOCKED: BRANCH  16  18
DOCKED: ATOM     17  O   UNL     1      20.913 -17.476  -0.708 -2.07 +0.00    +0.000 OA
DOCKED: ATOM     18  C   UNL     1      21.692 -18.442  -0.931 -0.80 -0.00    +0.000 C 
DOCKED: ATOM     19  N   UNL     1      21.188 -19.643  -1.520 -0.68 -0.00    +0.000 N 
DOCKED: ATOM     20  O   UNL     1      19.882 -19.743  -1.864 -2.39 -0.00    +0.000 OA
DOCKED: ATOM     21  H   UNL     1      21.793 -20.403  -1.677 -0.38 -0.00    +0.000 HD
DOCKED: ENDBRANCH  16  18
DOCKED: ENDBRANCH  15  16
DOCKED: ENDBRANCH  14  15
DOCKED: ENDBRANCH  13  14
DOCKED: ENDBRANCH  12  13
DOCKED: ENDBRANCH   1  12
DOCKED: TORSDOF 8
DOCKED: TER
DOCKED: ENDMDL
________________________________________________________________________________


	BEGINNING GENETIC ALGORITHM DOCKING 3 of 100
Run: 3 Seed: 1875637984 2089913938 [ Run 3 of 100 GA/GALS ]
Beginning LAMARCKIAN GENETIC ALGORITHM (LGA), with a maximum of 2500000 energy evaluations.

Final-Value: -12.557


	FINAL GENETIC ALGORITHM DOCKED STATE
	_______________________________________________


Detailed state:  trans 27.554 -15.706 -2.425 quatxyzw -0.533737 0.394552 0.743997 0.076951 center -0.033 -0.045 -0.218 ntor 8 180.0000 173.8709 114.9851 42.3756 -99.5045 170.4101 101.7506 37.7905
State:	 27.554 -15.706  -2.425  -0.535  0.396  0.746 171.173    180.00  173.87  114.99   42.38  -99.50  170.41  101.75   37.79

DOCKED: MODEL        3
DOCKED: USER    Run = 3
DOCKED: USER    DPF = ligand_dock.biased.dpf
DOCKED: USER  
DOCKED: USER    Estimated Free Energy of Binding    =   -9.42 kcal/mol  [=(1)+(2)+(3)-(4)]
DOCKED: USER    Estimated Inhibition Constant, Ki   =  123.57 nM (nanomolar)  [Temperature = 298.15 K]
DOCKED: USER    
DOCKED: USER    (1) Final Intermolecular Energy     =  -11.81 kcal/mol
DOCKED: USER        vdW + Hbond + desolv Energy     =  -11.81 kcal/mol
DOCKED: USER        Electrostatic Energy            =   +0.00 kcal/mol
DOCKED: USER    (2) Final Total Internal Energy     =   -0.75 kcal/mol
DOCKED: USER    (3) Torsional Free Energy           =   +2.39 kcal/mol
DOCKED: USER    (4) Unbound System's Energy  [=(2)] =   -0.75 kcal/mol
DOCKED: USER    
DOCKED: USER    
DOCKED: USER    NEWDPF move ligand.pdbqt
DOCKED: USER    NEWDPF about -0.033000 -0.045000 -0.218000
DOCKED: USER    NEWDPF tran0 27.554224 -15.706042 -2.425408
DOCKED: USER    NEWDPF quaternion0 -0.533737 0.394552 0.743997 0.076951
DOCKED: USER    NEWDPF axisangle0 -0.535325 0.395726 0.746210 171.173298
DOCKED: USER    NEWDPF quat0 -0.535325 0.395726 0.746210 171.173298
DOCKED: USER    NEWDPF dihe0 180.00 173.87 114.99 42.38 -99.50 170.41 101.75 37.79 
DOCKED: USER  keepresnum = 1 
DOCKED: USER  
DOCKED: REMARK  Name = 
DOCKED: REMARK  8 active torsions:
DOCKED: REMARK  status: ('A' for Active; 'I' for Inactive)
DOCKED: REMARK    1  A    between atoms: C_2  and  C_5
DOCKED: REMARK    2  A    between atoms: C_5  and  C_6
DOCKED: REMARK    3  A    between atoms: C_6  and  C_7
DOCKED: REMARK    4  A    between atoms: C_7  and  C_8
DOCKED: REMARK    5  A    between atoms: C_8  and  C_9
DOCKED: REMARK    6  A    between atoms: C_9  and  C_10
DOCKED: REMARK    7  A    between atoms: C_10  and  C_11
DOCKED: REMARK    8  A    between atoms: N_12  and  C_13
DOCKED: REMARK                            x       y       z     vdW  Elec       q    Type
DOCKED: REMARK                         _______ _______ _______ _____ _____    ______ ____
DOCKED: USER                              x       y       z     vdW  Elec       q    Type
DOCKED: USER                           _______ _______ _______ _____ _____    ______ ____
DOCKED: ROOT
DOCKED: ATOM      1  C   UNL     1      27.331 -16.690  -1.002 -0.44 -0.00    +0.000 C 
DOCKED: ENDROOT
DOCKED: BRANCH   1   2
DOCKED: ATOM      2  C   UNL     1      27.745 -15.603  -0.054 -0.32 -0.00    +0.000 C 
DOCKED: ATOM      3  N   UNL     1      26.774 -14.656   0.417 -0.28 -0.00    +0.000 N 
DOCKED: ATOM      4  O   UNL     1      28.948 -15.530   0.315 -0.24 -0.00    +0.000 OA
DOCKED: ATOM      5  H   UNL     1      25.890 -14.647  -0.017 -0.02 -0.00    +0.000 HD
DOCKED: BRANCH   3   6
DOCKED: ATOM      6  C   UNL     1      27.010 -13.718   1.480 -0.26 -0.00    +0.000 A 
DOCKED: ATOM      7  C   UNL     1      27.761 -14.111   2.596 -0.32 -0.00    +0.000 A 
DOCKED: ATOM      8  C   UNL     1      28.016 -13.203   3.626 -0.33 -0.00    +0.000 A 
DOCKED: ATOM      9  C   UNL     1      27.531 -11.899   3.521 -0.25 +0.00    +0.000 A 
DOCKED: ATOM     10  N   UNL     1      26.827 -11.521   2.422 -0.31 +0.00    +0.000 NA
DOCKED: ATOM     11  C   UNL     1      26.560 -12.388   1.409 -0.31 -0.00    +0.000 A 
DOCKED: ENDBRANCH   3   6
DOCKED: ENDBRANCH   1   2
DOCKED: BRANCH   1  12
DOCKED: ATOM     12  C   UNL     1      26.062 -16.280  -1.760 -0.51 -0.00    +0.000 C 
DOCKED: BRANCH  12  13
DOCKED: ATOM     13  C   UNL     1      25.037 -17.423  -1.865 -0.63 -0.00    +0.000 C 
DOCKED: BRANCH  13  14
DOCKED: ATOM     14  C   UNL     1      23.909 -17.363  -0.819 -0.73 -0.00    +0.000 C 
DOCKED: BRANCH  14  15
DOCKED: ATOM     15  C   UNL     1      22.990 -18.596  -0.868 -0.83 -0.00    +0.000 C 
DOCKED: BRANCH  15  16
DOCKED: ATOM     16  C   UNL     1      21.508 -18.223  -0.732 -0.82 -0.00    +0.000 C 
DOCKED: BRANCH  16  18
DOCKED: ATOM     17  O   UNL     1      19.983 -19.731  -1.790 -2.38 -0.00    +0.000 OA
DOCKED: ATOM     18  C   UNL     1      20.622 -19.435  -0.744 -0.89 -0.00    +0.000 C 
DOCKED: ATOM     19  N   UNL     1      20.478 -20.238   0.430 -0.68 -0.00    +0.000 N 
DOCKED: ATOM     20  O   UNL     1      19.678 -21.330   0.420 -0.78 -0.00    +0.000 OA
DOCKED: ATOM     21  H   UNL     1      20.963 -19.995   1.252 -0.51 -0.00    +0.000 HD
DOCKED: ENDBRANCH  16  18
DOCKED: ENDBRANCH  15  16
DOCKED: ENDBRANCH  14  15
DOCKED: ENDBRANCH  13  14
DOCKED: ENDBRANCH  12  13
DOCKED: ENDBRANCH   1  12
DOCKED: TORSDOF 8
DOCKED: TER
DOCKED: ENDMDL
________________________________________________________________________________


	BEGINNING GENETIC ALGORITHM DOCKING 4 of 100
Run: 4 Seed: 1289423464 1634170829 [ Run 4 of 100 GA/GALS ]
Beginning LAMARCKIAN GENETIC ALGORITHM (LGA), with a maximum of 2500000 energy evaluations.

Final-Value: -12.758


	FINAL GENETIC ALGORITHM DOCKED STATE
	_______________________________________________


Detailed state:  trans 24.615 -15.795 -0.346 quatxyzw 0.923213 0.159106 -0.175181 0.302777 center -0.033 -0.045 -0.218 ntor 8 -1.7097 136.8797 -176.4987 -119.2061 -34.7262 83.6399 -142.1627 -1.9606
State:	 24.615 -15.795  -0.346   0.969  0.167 -0.184 144.751     -1.71  136.88 -176.50 -119.21  -34.73   83.64 -142.16   -1.96

DOCKED: MODEL        4
DOCKED: USER    Run = 4
DOCKED: USER    DPF = ligand_dock.biased.dpf
DOCKED: USER  
DOCKED: USER    Estimated Free Energy of Binding    =   -9.35 kcal/mol  [=(1)+(2)+(3)-(4)]
DOCKED: USER    Estimated Inhibition Constant, Ki   =  140.68 nM (nanomolar)  [Temperature = 298.15 K]
DOCKED: USER    
DOCKED: USER    (1) Final Intermolecular Energy     =  -11.73 kcal/mol
DOCKED: USER        vdW + Hbond + desolv Energy     =  -11.73 kcal/mol
DOCKED: USER        Electrostatic Energy            =   +0.00 kcal/mol
DOCKED: USER    (2) Final Total Internal Energy     =   -1.02 kcal/mol
DOCKED: USER    (3) Torsional Free Energy           =   +2.39 kcal/mol
DOCKED: USER    (4) Unbound System's Energy  [=(2)] =   -1.02 kcal/mol
DOCKED: USER    
DOCKED: USER    
DOCKED: USER    NEWDPF move ligand.pdbqt
DOCKED: USER    NEWDPF about -0.033000 -0.045000 -0.218000
DOCKED: USER    NEWDPF tran0 24.614804 -15.794882 -0.346035
DOCKED: USER    NEWDPF quaternion0 0.923213 0.159106 -0.175181 0.302777
DOCKED: USER    NEWDPF axisangle0 0.968682 0.166943 -0.183808 144.751027
DOCKED: USER    NEWDPF quat0 0.968682 0.166943 -0.183808 144.751027
DOCKED: USER    NEWDPF dihe0 -1.71 136.88 -176.50 -119.21 -34.73 83.64 -142.16 -1.96 
DOCKED: USER  keepresnum = 1 
DOCKED: USER  
DOCKED: REMARK  Name = 
DOCKED: REMARK  8 active torsions:
DOCKED: REMARK  status: ('A' for Active; 'I' for Inactive)
DOCKED: REMARK    1  A    between atoms: C_2  and  C_5
DOCKED: REMARK    2  A    between atoms: C_5  and  C_6
DOCKED: REMARK    3  A    between atoms: C_6  and  C_7
DOCKED: REMARK    4  A    between atoms: C_7  and  C_8
DOCKED: REMARK    5  A    between atoms: C_8  and  C_9
DOCKED: REMARK    6  A    between atoms: C_9  and  C_10
DOCKED: REMARK    7  A    between atoms: C_10  and  C_11
DOCKED: REMARK    8  A    between atoms: N_12  and  C_13
DOCKED: REMARK                            x       y       z     vdW  Elec       q    Type
DOCKED: REMARK                         _______ _______ _______ _____ _____    ______ ____
DOCKED: USER                              x       y       z     vdW  Elec       q    Type
DOCKED: USER                           _______ _______ _______ _____ _____    ______ ____
DOCKED: ROOT
DOCKED: ATOM      1  C   UNL     1      24.612 -17.326  -1.183 -0.70 -0.00    +0.000 C 
DOCKED: ENDROOT
DOCKED: BRANCH   1   2
DOCKED: ATOM      2  C   UNL     1      23.153 -17.576  -0.947 -0.75 -0.00    +0.000 C 
DOCKED: ATOM      3  N   UNL     1      22.639 -18.916  -0.992 -0.75 -0.00    +0.000 N 
DOCKED: ATOM      4  O   UNL     1      22.388 -16.600  -0.715 -0.72 -0.00    +0.000 OA
DOCKED: ATOM      5  H   UNL     1      23.231 -19.625  -1.333 -0.10 -0.00    +0.000 HD
DOCKED: BRANCH   3   6
DOCKED: ATOM      6  C   UNL     1      21.316 -19.288  -0.572 -0.75 -0.00    +0.000 A 
DOCKED: ATOM      7  C   UNL     1      21.017 -19.364   0.795 -0.26 -0.00    +0.000 A 
DOCKED: ATOM      8  C   UNL     1      19.730 -19.704   1.215 -0.61 -0.00    +0.000 A 
DOCKED: ATOM      9  C   UNL     1      18.743 -19.947   0.261 -0.64 -0.00    +0.000 A 
DOCKED: ATOM     10  N   UNL     1      19.035 -19.844  -1.063 -1.10 -0.00    +0.000 NA
DOCKED: ATOM     11  C   UNL     1      20.283 -19.521  -1.497 -0.61 -0.00    +0.000 A 
DOCKED: ENDBRANCH   3   6
DOCKED: ENDBRANCH   1   2
DOCKED: BRANCH   1  12
DOCKED: ATOM     12  C   UNL     1      24.804 -16.070  -2.045 -0.48 -0.00    +0.000 C 
DOCKED: BRANCH  12  13
DOCKED: ATOM     13  C   UNL     1      26.281 -15.809  -2.393 -0.47 -0.00    +0.000 C 
DOCKED: BRANCH  13  14
DOCKED: ATOM     14  C   UNL     1      27.228 -16.977  -2.063 -0.22 -0.00    +0.000 C 
DOCKED: BRANCH  14  15
DOCKED: ATOM     15  C   UNL     1      28.157 -16.668  -0.876 -0.36 -0.00    +0.000 C 
DOCKED: BRANCH  15  16
DOCKED: ATOM     16  C   UNL     1      27.378 -16.385   0.416 -0.25 -0.00    +0.000 C 
DOCKED: BRANCH  16  18
DOCKED: ATOM     17  O   UNL     1      26.785 -14.079   0.201 -0.34 -0.00    +0.000 OA
DOCKED: ATOM     18  C   UNL     1      27.466 -14.942   0.818 -0.27 -0.00    +0.000 C 
DOCKED: ATOM     19  N   UNL     1      28.336 -14.539   1.878 -0.25 -0.00    +0.000 N 
DOCKED: ATOM     20  O   UNL     1      28.417 -13.236   2.242 -0.23 -0.00    +0.000 OA
DOCKED: ATOM     21  H   UNL     1      28.880 -15.211   2.348 -1.89 -0.00    +0.000 HD
DOCKED: ENDBRANCH  16  18
DOCKED: ENDBRANCH  15  16
DOCKED: ENDBRANCH  14  15
DOCKED: ENDBRANCH  13  14
DOCKED: ENDBRANCH  12  13
DOCKED: ENDBRANCH   1  12
DOCKED: TORSDOF 8
DOCKED: TER
DOCKED: ENDMDL
________________________________________________________________________________


	BEGINNING GENETIC ALGORITHM DOCKING 5 of 100
Run: 5 Seed: 325966236 2119243557 [ Run 5 of 100 GA/GALS ]
Beginning LAMARCKIAN GENETIC ALGORITHM (LGA), with a maximum of 2500000 energy evaluations.

Final-Value: -13.545


	FINAL GENETIC ALGORITHM DOCKED STATE
	_______________________________________________


Detailed state:  trans 26.910 -17.193 -1.853 quatxyzw -0.416588 0.215673 0.625471 0.623479 center -0.033 -0.045 -0.218 ntor 8 -129.6684 -116.8117 76.5598 -137.6902 178.0708 160.9797 180.0000 177.6743
State:	 26.910 -17.193  -1.853  -0.533  0.276  0.800 102.859   -129.67 -116.81   76.56 -137.69  178.07  160.98  180.00  177.67

DOCKED: MODEL        5
DOCKED: USER    Run = 5
DOCKED: USER    DPF = ligand_dock.biased.dpf
DOCKED: USER  
DOCKED: USER    Estimated Free Energy of Binding    =  -10.36 kcal/mol  [=(1)+(2)+(3)-(4)]
DOCKED: USER    Estimated Inhibition Constant, Ki   =   25.47 nM (nanomolar)  [Temperature = 298.15 K]
DOCKED: USER    
DOCKED: USER    (1) Final Intermolecular Energy     =  -12.75 kcal/mol
DOCKED: USER        vdW + Hbond + desolv Energy     =  -12.75 kcal/mol
DOCKED: USER        Electrostatic Energy            =   +0.00 kcal/mol
DOCKED: USER    (2) Final Total Internal Energy     =   -0.80 kcal/mol
DOCKED: USER    (3) Torsional Free Energy           =   +2.39 kcal/mol
DOCKED: USER    (4) Unbound System's Energy  [=(2)] =   -0.80 kcal/mol
DOCKED: USER    
DOCKED: USER    
DOCKED: USER    NEWDPF move ligand.pdbqt
DOCKED: USER    NEWDPF about -0.033000 -0.045000 -0.218000
DOCKED: USER    NEWDPF tran0 26.910397 -17.193027 -1.853328
DOCKED: USER    NEWDPF quaternion0 -0.416588 0.215673 0.625471 0.623479
DOCKED: USER    NEWDPF axisangle0 -0.532830 0.275853 0.799998 102.858710
DOCKED: USER    NEWDPF quat0 -0.532830 0.275853 0.799998 102.858710
DOCKED: USER    NEWDPF dihe0 -129.67 -116.81 76.56 -137.69 178.07 160.98 180.00 177.67 
DOCKED: USER  keepresnum = 1 
DOCKED: USER  
DOCKED: REMARK  Name = 
DOCKED: REMARK  8 active torsions:
DOCKED: REMARK  status: ('A' for Active; 'I' for Inactive)
DOCKED: REMARK    1  A    between atoms: C_2  and  C_5
DOCKED: REMARK    2  A    between atoms: C_5  and  C_6
DOCKED: REMARK    3  A    between atoms: C_6  and  C_7
DOCKED: REMARK    4  A    between atoms: C_7  and  C_8
DOCKED: REMARK    5  A    between atoms: C_8  and  C_9
DOCKED: REMARK    6  A    between atoms: C_9  and  C_10
DOCKED: REMARK    7  A    between atoms: C_10  and  C_11
DOCKED: REMARK    8  A    between atoms: N_12  and  C_13
DOCKED: REMARK                            x       y       z     vdW  Elec       q    Type
DOCKED: REMARK                         _______ _______ _______ _____ _____    ______ ____
DOCKED: USER                              x       y       z     vdW  Elec       q    Type
DOCKED: USER                           _______ _______ _______ _____ _____    ______ ____
DOCKED: ROOT
DOCKED: ATOM      1  C   UNL     1      27.978 -16.970  -0.492 -0.36 -0.00    +0.000 C 
DOCKED: ENDROOT
DOCKED: BRANCH   1   2
DOCKED: ATOM      2  C   UNL     1      27.418 -15.626  -0.133 -0.34 -0.00    +0.000 C 
DOCKED: ATOM      3  N   UNL     1      27.698 -15.053   1.153 -0.28 -0.00    +0.000 N 
DOCKED: ATOM      4  O   UNL     1      26.697 -15.015  -0.969 -0.33 -0.00    +0.000 OA
DOCKED: ATOM      5  H   UNL     1      28.124 -15.626   1.830 -0.95 -0.00    +0.000 HD
DOCKED: BRANCH   3   6
DOCKED: ATOM      6  C   UNL     1      27.396 -13.695   1.515 -0.27 -0.00    +0.000 A 
DOCKED: ATOM      7  C   UNL     1      26.289 -13.055   0.941 -0.30 -0.00    +0.000 A 
DOCKED: ATOM      8  C   UNL     1      25.973 -11.744   1.301 -0.34 +0.00    +0.000 A 
DOCKED: ATOM      9  C   UNL     1      26.757 -11.087   2.249 -0.30 +0.00    +0.000 A 
DOCKED: ATOM     10  N   UNL     1      27.812 -11.726   2.820 -0.22 +0.00    +0.000 NA
DOCKED: ATOM     11  C   UNL     1      28.145 -13.001   2.482 -0.23 -0.00    +0.000 A 
DOCKED: ENDBRANCH   3   6
DOCKED: ENDBRANCH   1   2
DOCKED: BRANCH   1  12
DOCKED: ATOM     12  C   UNL     1      26.899 -18.052  -0.350 -0.53 -0.00    +0.000 C 
DOCKED: BRANCH  12  13
DOCKED: ATOM     13  C   UNL     1      25.527 -17.475   0.042 -0.43 -0.00    +0.000 C 
DOCKED: BRANCH  13  14
DOCKED: ATOM     14  C   UNL     1      24.647 -17.064  -1.152 -0.67 -0.00    +0.000 C 
DOCKED: BRANCH  14  15
DOCKED: ATOM     15  C   UNL     1      23.528 -18.080  -1.441 -0.75 -0.00    +0.000 C 
DOCKED: BRANCH  15  16
DOCKED: ATOM     16  C   UNL     1      22.856 -18.585  -0.157 -0.79 -0.00    +0.000 C 
DOCKED: BRANCH  16  18
DOCKED: ATOM     17  O   UNL     1      20.673 -17.857  -0.810 -2.29 -0.00    +0.000 OA
DOCKED: ATOM     18  C   UNL     1      21.380 -18.790  -0.341 -0.83 -0.00    +0.000 C 
DOCKED: ATOM     19  N   UNL     1      20.768 -20.025   0.039 -0.70 -0.00    +0.000 N 
DOCKED: ATOM     20  O   UNL     1      19.437 -20.211  -0.125 -1.23 -0.00    +0.000 OA
DOCKED: ATOM     21  H   UNL     1      21.318 -20.747   0.422 -0.58 -0.00    +0.000 HD
DOCKED: ENDBRANCH  16  18
DOCKED: ENDBRANCH  15  16
DOCKED: ENDBRANCH  14  15
DOCKED: ENDBRANCH  13  14
DOCKED: ENDBRANCH  12  13
DOCKED: ENDBRANCH   1  12
DOCKED: TORSDOF 8
DOCKED: TER
DOCKED: ENDMDL
________________________________________________________________________________


	BEGINNING GENETIC ALGORITHM DOCKING 6 of 100
Run: 6 Seed: 1714806697 431882268 [ Run 6 of 100 GA/GALS ]
Beginning LAMARCKIAN GENETIC ALGORITHM (LGA), with a maximum of 2500000 energy evaluations.

Final-Value: -13.641


	FINAL GENETIC ALGORITHM DOCKED STATE
	_______________________________________________


Detailed state:  trans 26.675 -13.751 -2.062 quatxyzw 0.429915 -0.329850 0.760510 -0.357765 center -0.033 -0.045 -0.218 ntor 8 -179.6514 -46.0289 85.2472 167.5785 -82.1180 144.6346 8.5558 69.8943
State:	 26.675 -13.751  -2.062   0.460 -0.353  0.814 -138.074   -179.65  -46.03   85.25  167.58  -82.12  144.63    8.56   69.89

DOCKED: MODEL        6
DOCKED: USER    Run = 6
DOCKED: USER    DPF = ligand_dock.biased.dpf
DOCKED: USER  
DOCKED: USER    Estimated Free Energy of Binding    =  -10.28 kcal/mol  [=(1)+(2)+(3)-(4)]
DOCKED: USER    Estimated Inhibition Constant, Ki   =   28.94 nM (nanomolar)  [Temperature = 298.15 K]
DOCKED: USER    
DOCKED: USER    (1) Final Intermolecular Energy     =  -12.67 kcal/mol
DOCKED: USER        vdW + Hbond + desolv Energy     =  -12.67 kcal/mol
DOCKED: USER        Electrostatic Energy            =   +0.00 kcal/mol
DOCKED: USER    (2) Final Total Internal Energy     =   -0.97 kcal/mol
DOCKED: USER    (3) Torsional Free Energy           =   +2.39 kcal/mol
DOCKED: USER    (4) Unbound System's Energy  [=(2)] =   -0.97 kcal/mol
DOCKED: USER    
DOCKED: USER    
DOCKED: USER    NEWDPF move ligand.pdbqt
DOCKED: USER    NEWDPF about -0.033000 -0.045000 -0.218000
DOCKED: USER    NEWDPF tran0 26.675358 -13.750995 -2.062141
DOCKED: USER    NEWDPF quaternion0 0.429915 -0.329850 0.760510 -0.357765
DOCKED: USER    NEWDPF axisangle0 0.460387 -0.353230 0.814415 -138.073939
DOCKED: USER    NEWDPF quat0 0.460387 -0.353230 0.814415 -138.073939
DOCKED: USER    NEWDPF dihe0 -179.65 -46.03 85.25 167.58 -82.12 144.63 8.56 69.89 
DOCKED: USER  keepresnum = 1 
DOCKED: USER  
DOCKED: REMARK  Name = 
DOCKED: REMARK  8 active torsions:
DOCKED: REMARK  status: ('A' for Active; 'I' for Inactive)
DOCKED: REMARK    1  A    between atoms: C_2  and  C_5
DOCKED: REMARK    2  A    between atoms: C_5  and  C_6
DOCKED: REMARK    3  A    between atoms: C_6  and  C_7
DOCKED: REMARK    4  A    between atoms: C_7  and  C_8
DOCKED: REMARK    5  A    between atoms: C_8  and  C_9
DOCKED: REMARK    6  A    between atoms: C_9  and  C_10
DOCKED: REMARK    7  A    between atoms: C_10  and  C_11
DOCKED: REMARK    8  A    between atoms: N_12  and  C_13
DOCKED: REMARK                            x       y       z     vdW  Elec       q    Type
DOCKED: REMARK                         _______ _______ _______ _____ _____    ______ ____
DOCKED: USER                              x       y       z     vdW  Elec       q    Type
DOCKED: USER                           _______ _______ _______ _____ _____    ______ ____
DOCKED: ROOT
DOCKED: ATOM      1  C   UNL     1      25.380 -14.639  -2.823 -0.39 -0.00    +0.000 C 
DOCKED: ENDROOT
DOCKED: BRANCH   1   2
DOCKED: ATOM      2  C   UNL     1      26.241 -15.146  -3.942 -0.55 -0.00    +0.000 C 
DOCKED: ATOM      3  N   UNL     1      27.588 -14.669  -4.082 -0.29 -0.00    +0.000 N 
DOCKED: ATOM      4  O   UNL     1      25.766 -15.985  -4.756 -0.88 -0.00    +0.000 OA
DOCKED: ATOM      5  H   UNL     1      27.865 -13.902  -3.532 +0.01 -0.00    +0.000 HD
DOCKED: BRANCH   3   6
DOCKED: ATOM      6  C   UNL     1      28.558 -15.241  -4.976 -0.32 -0.00    +0.000 A 
DOCKED: ATOM      7  C   UNL     1      28.840 -14.604  -6.192 -0.33 -0.00    +0.000 A 
DOCKED: ATOM      8  C   UNL     1      29.796 -15.138  -7.059 -0.26 -0.00    +0.000 A 
DOCKED: ATOM      9  C   UNL     1      30.477 -16.298  -6.693 -0.30 -0.00    +0.000 A 
DOCKED: ATOM     10  N   UNL     1      30.215 -16.893  -5.499 -0.29 -0.00    +0.000 NA
DOCKED: ATOM     11  C   UNL     1      29.285 -16.397  -4.640 -0.26 -0.00    +0.000 A 
DOCKED: ENDBRANCH   3   6
DOCKED: ENDBRANCH   1   2
DOCKED: BRANCH   1  12
DOCKED: ATOM     12  C   UNL     1      25.886 -15.177  -1.478 -0.43 -0.00    +0.000 C 
DOCKED: BRANCH  12  13
DOCKED: ATOM     13  C   UNL     1      24.999 -16.304  -0.919 -0.51 -0.00    +0.000 C 
DOCKED: BRANCH  13  14
DOCKED: ATOM     14  C   UNL     1      25.129 -17.644  -1.667 -0.59 -0.00    +0.000 C 
DOCKED: BRANCH  14  15
DOCKED: ATOM     15  C   UNL     1      23.892 -18.542  -1.491 -0.71 -0.00    +0.000 C 
DOCKED: BRANCH  15  16
DOCKED: ATOM     16  C   UNL     1      22.960 -18.039  -0.380 -0.81 -0.00    +0.000 C 
DOCKED: BRANCH  16  18
DOCKED: ATOM     17  O   UNL     1      20.720 -17.577  -1.077 -2.10 -0.00    +0.000 OA
DOCKED: ATOM     18  C   UNL     1      21.532 -18.430  -0.627 -0.84 -0.00    +0.000 C 
DOCKED: ATOM     19  N   UNL     1      21.082 -19.754  -0.330 -0.73 -0.00    +0.000 N 
DOCKED: ATOM     20  O   UNL     1      19.793 -20.106  -0.551 -1.56 -0.00    +0.000 OA
DOCKED: ATOM     21  H   UNL     1      21.713 -20.414   0.039 -0.54 -0.00    +0.000 HD
DOCKED: ENDBRANCH  16  18
DOCKED: ENDBRANCH  15  16
DOCKED: ENDBRANCH  14  15
DOCKED: ENDBRANCH  13  14
DOCKED: ENDBRANCH  12  13
DOCKED: ENDBRANCH   1  12
DOCKED: TORSDOF 8
DOCKED: TER
DOCKED: ENDMDL
________________________________________________________________________________


	BEGINNING GENETIC ALGORITHM DOCKING 7 of 100
Run: 7 Seed: 86177966 1340768873 [ Run 7 of 100 GA/GALS ]
Beginning LAMARCKIAN GENETIC ALGORITHM (LGA), with a maximum of 2500000 energy evaluations.

Final-Value: -13.505


	FINAL GENETIC ALGORITHM DOCKED STATE
	_______________________________________________


Detailed state:  trans 25.670 -14.037 -2.366 quatxyzw 0.370195 -0.333386 0.865379 0.054122 center -0.033 -0.045 -0.218 ntor 8 121.4496 -16.1273 57.8558 135.9123 -107.9839 -143.4236 -180.0000 14.6225
State:	 25.670 -14.037  -2.366   0.371 -0.334  0.867 173.795    121.45  -16.13   57.86  135.91 -107.98 -143.42 -180.00   14.62

DOCKED: MODEL        7
DOCKED: USER    Run = 7
DOCKED: USER    DPF = ligand_dock.biased.dpf
DOCKED: USER  
DOCKED: USER    Estimated Free Energy of Binding    =  -10.34 kcal/mol  [=(1)+(2)+(3)-(4)]
DOCKED: USER    Estimated Inhibition Constant, Ki   =   26.13 nM (nanomolar)  [Temperature = 298.15 K]
DOCKED: USER    
DOCKED: USER    (1) Final Intermolecular Energy     =  -12.73 kcal/mol
DOCKED: USER        vdW + Hbond + desolv Energy     =  -12.73 kcal/mol
DOCKED: USER        Electrostatic Energy            =   +0.00 kcal/mol
DOCKED: USER    (2) Final Total Internal Energy     =   -0.77 kcal/mol
DOCKED: USER    (3) Torsional Free Energy           =   +2.39 kcal/mol
DOCKED: USER    (4) Unbound System's Energy  [=(2)] =   -0.77 kcal/mol
DOCKED: USER    
DOCKED: USER    
DOCKED: USER    NEWDPF move ligand.pdbqt
DOCKED: USER    NEWDPF about -0.033000 -0.045000 -0.218000
DOCKED: USER    NEWDPF tran0 25.670010 -14.036594 -2.365814
DOCKED: USER    NEWDPF quaternion0 0.370195 -0.333386 0.865379 0.054122
DOCKED: USER    NEWDPF axisangle0 0.370739 -0.333875 0.866649 173.795010
DOCKED: USER    NEWDPF quat0 0.370739 -0.333875 0.866649 173.795010
DOCKED: USER    NEWDPF dihe0 121.45 -16.13 57.86 135.91 -107.98 -143.42 -180.00 14.62 
DOCKED: USER  keepresnum = 1 
DOCKED: USER  
DOCKED: REMARK  Name = 
DOCKED: REMARK  8 active torsions:
DOCKED: REMARK  status: ('A' for Active; 'I' for Inactive)
DOCKED: REMARK    1  A    between atoms: C_2  and  C_5
DOCKED: REMARK    2  A    between atoms: C_5  and  C_6
DOCKED: REMARK    3  A    between atoms: C_6  and  C_7
DOCKED: REMARK    4  A    between atoms: C_7  and  C_8
DOCKED: REMARK    5  A    between atoms: C_8  and  C_9
DOCKED: REMARK    6  A    between atoms: C_9  and  C_10
DOCKED: REMARK    7  A    between atoms: C_10  and  C_11
DOCKED: REMARK    8  A    between atoms: N_12  and  C_13
DOCKED: REMARK                            x       y       z     vdW  Elec       q    Type
DOCKED: REMARK                         _______ _______ _______ _____ _____    ______ ____
DOCKED: USER                              x       y       z     vdW  Elec       q    Type
DOCKED: USER                           _______ _______ _______ _____ _____    ______ ____
DOCKED: ROOT
DOCKED: ATOM      1  C   UNL     1      25.624 -15.121  -3.732 -0.58 -0.00    +0.000 C 
DOCKED: ENDROOT
DOCKED: BRANCH   1   2
DOCKED: ATOM      2  C   UNL     1      26.912 -14.616  -4.313 -0.44 -0.00    +0.000 C 
DOCKED: ATOM      3  N   UNL     1      27.587 -15.377  -5.326 -0.43 +0.00    +0.000 N 
DOCKED: ATOM      4  O   UNL     1      27.392 -13.527  -3.898 -0.23 -0.00    +0.000 OA
DOCKED: ATOM      5  H   UNL     1      27.269 -16.292  -5.505 -0.01 +0.00    +0.000 HD
DOCKED: BRANCH   3   6
DOCKED: ATOM      6  C   UNL     1      28.698 -14.890  -6.096 -0.35 -0.00    +0.000 A 
DOCKED: ATOM      7  C   UNL     1      29.845 -15.683  -6.238 -0.31 -0.00    +0.000 A 
DOCKED: ATOM      8  C   UNL     1      30.923 -15.229  -7.000 -0.22 -0.00    +0.000 A 
DOCKED: ATOM      9  C   UNL     1      30.837 -13.990  -7.634 -0.17 -0.00    +0.000 A 
DOCKED: ATOM     10  N   UNL     1      29.710 -13.240  -7.513 -0.22 -0.00    +0.000 NA
DOCKED: ATOM     11  C   UNL     1      28.649 -13.657  -6.770 -0.28 -0.00    +0.000 A 
DOCKED: ENDBRANCH   3   6
DOCKED: ENDBRANCH   1   2
DOCKED: BRANCH   1  12
DOCKED: ATOM     12  C   UNL     1      25.873 -15.756  -2.358 -0.51 -0.00    +0.000 C 
DOCKED: BRANCH  12  13
DOCKED: ATOM     13  C   UNL     1      24.742 -16.707  -1.929 -0.60 -0.00    +0.000 C 
DOCKED: BRANCH  13  14
DOCKED: ATOM     14  C   UNL     1      25.213 -17.939  -1.135 -0.65 -0.00    +0.000 C 
DOCKED: BRANCH  14  15
DOCKED: ATOM     15  C   UNL     1      24.046 -18.826  -0.669 -0.71 -0.00    +0.000 C 
DOCKED: BRANCH  15  16
DOCKED: ATOM     16  C   UNL     1      22.884 -18.006  -0.094 -0.75 -0.00    +0.000 C 
DOCKED: BRANCH  16  18
DOCKED: ATOM     17  O   UNL     1      20.632 -17.484  -0.708 -2.08 +0.00    +0.000 OA
DOCKED: ATOM     18  C   UNL     1      21.589 -18.300  -0.795 -0.81 -0.00    +0.000 C 
DOCKED: ATOM     19  N   UNL     1      21.428 -19.511  -1.537 -0.66 -0.00    +0.000 N 
DOCKED: ATOM     20  O   UNL     1      20.260 -19.779  -2.168 -2.32 -0.00    +0.000 OA
DOCKED: ATOM     21  H   UNL     1      22.170 -20.156  -1.589 -0.40 -0.00    +0.000 HD
DOCKED: ENDBRANCH  16  18
DOCKED: ENDBRANCH  15  16
DOCKED: ENDBRANCH  14  15
DOCKED: ENDBRANCH  13  14
DOCKED: ENDBRANCH  12  13
DOCKED: ENDBRANCH   1  12
DOCKED: TORSDOF 8
DOCKED: TER
DOCKED: ENDMDL
________________________________________________________________________________


	BEGINNING GENETIC ALGORITHM DOCKING 8 of 100
Run: 8 Seed: 1434936585 1324745884 [ Run 8 of 100 GA/GALS ]
Beginning LAMARCKIAN GENETIC ALGORITHM (LGA), with a maximum of 2500000 energy evaluations.

Final-Value: -13.047


	FINAL GENETIC ALGORITHM DOCKED STATE
	_______________________________________________


Detailed state:  trans 26.126 -15.496 0.590 quatxyzw -0.155531 -0.512025 0.496956 0.683136 center -0.033 -0.045 -0.218 ntor 8 -36.0429 66.4761 168.0311 178.1447 -67.1945 -172.4597 119.1905 -82.6525
State:	 26.126 -15.496   0.590  -0.213 -0.701  0.680 93.822    -36.04   66.48  168.03  178.14  -67.19 -172.46  119.19  -82.65

DOCKED: MODEL        8
DOCKED: USER    Run = 8
DOCKED: USER    DPF = ligand_dock.biased.dpf
DOCKED: USER  
DOCKED: USER    Estimated Free Energy of Binding    =   -9.86 kcal/mol  [=(1)+(2)+(3)-(4)]
DOCKED: USER    Estimated Inhibition Constant, Ki   =   58.94 nM (nanomolar)  [Temperature = 298.15 K]
DOCKED: USER    
DOCKED: USER    (1) Final Intermolecular Energy     =  -12.25 kcal/mol
DOCKED: USER        vdW + Hbond + desolv Energy     =  -12.25 kcal/mol
DOCKED: USER        Electrostatic Energy            =   +0.00 kcal/mol
DOCKED: USER    (2) Final Total Internal Energy     =   -0.80 kcal/mol
DOCKED: USER    (3) Torsional Free Energy           =   +2.39 kcal/mol
DOCKED: USER    (4) Unbound System's Energy  [=(2)] =   -0.80 kcal/mol
DOCKED: USER    
DOCKED: USER    
DOCKED: USER    NEWDPF move ligand.pdbqt
DOCKED: USER    NEWDPF about -0.033000 -0.045000 -0.218000
DOCKED: USER    NEWDPF tran0 26.126347 -15.496327 0.590468
DOCKED: USER    NEWDPF quaternion0 -0.155531 -0.512025 0.496956 0.683136
DOCKED: USER    NEWDPF axisangle0 -0.212972 -0.701125 0.680490 93.821546
DOCKED: USER    NEWDPF quat0 -0.212972 -0.701125 0.680490 93.821546
DOCKED: USER    NEWDPF dihe0 -36.04 66.48 168.03 178.14 -67.19 -172.46 119.19 -82.65 
DOCKED: USER  keepresnum = 1 
DOCKED: USER  
DOCKED: REMARK  Name = 
DOCKED: REMARK  8 active torsions:
DOCKED: REMARK  status: ('A' for Active; 'I' for Inactive)
DOCKED: REMARK    1  A    between atoms: C_2  and  C_5
DOCKED: REMARK    2  A    between atoms: C_5  and  C_6
DOCKED: REMARK    3  A    between atoms: C_6  and  C_7
DOCKED: REMARK    4  A    between atoms: C_7  and  C_8
DOCKED: REMARK    5  A    between atoms: C_8  and  C_9
DOCKED: REMARK    6  A    between atoms: C_9  and  C_10
DOCKED: REMARK    7  A    between atoms: C_10  and  C_11
DOCKED: REMARK    8  A    between atoms: N_12  and  C_13
DOCKED: REMARK                            x       y       z     vdW  Elec       q    Type
DOCKED: REMARK                         _______ _______ _______ _____ _____    ______ ____
DOCKED: USER                              x       y       z     vdW  Elec       q    Type
DOCKED: USER                           _______ _______ _______ _____ _____    ______ ____
DOCKED: ROOT
DOCKED: ATOM      1  C   UNL     1      27.474 -14.405   0.394 -0.28 -0.00    +0.000 C 
DOCKED: ENDROOT
DOCKED: BRANCH   1   2
DOCKED: ATOM      2  C   UNL     1      27.477 -13.978   1.832 -0.30 -0.00    +0.000 C 
DOCKED: ATOM      3  N   UNL     1      28.474 -14.490   2.729 -0.29 -0.00    +0.000 N 
DOCKED: ATOM      4  O   UNL     1      26.595 -13.174   2.240 -0.41 -0.00    +0.000 OA
DOCKED: ATOM      5  H   UNL     1      29.039 -15.232   2.415 -1.94 -0.00    +0.000 HD
DOCKED: BRANCH   3   6
DOCKED: ATOM      6  C   UNL     1      28.700 -13.989   4.057 -0.39 -0.00    +0.000 A 
DOCKED: ATOM      7  C   UNL     1      30.000 -13.968   4.579 -0.30 -0.00    +0.000 A 
DOCKED: ATOM      8  C   UNL     1      30.235 -13.464   5.859 -0.27 -0.00    +0.000 A 
DOCKED: ATOM      9  C   UNL     1      29.166 -12.965   6.603 -0.35 -0.00    +0.000 A 
DOCKED: ATOM     10  N   UNL     1      27.912 -12.964   6.077 -0.44 -0.00    +0.000 NA
DOCKED: ATOM     11  C   UNL     1      27.657 -13.455   4.835 -0.46 -0.00    +0.000 A 
DOCKED: ENDBRANCH   3   6
DOCKED: ENDBRANCH   1   2
DOCKED: BRANCH   1  12
DOCKED: ATOM     12  C   UNL     1      27.781 -15.904   0.284 -0.27 -0.00    +0.000 C 
DOCKED: BRANCH  12  13
DOCKED: ATOM     13  C   UNL     1      26.523 -16.750   0.016 -0.37 -0.00    +0.000 C 
DOCKED: BRANCH  13  14
DOCKED: ATOM     14  C   UNL     1      26.519 -17.470  -1.344 -0.48 -0.00    +0.000 C 
DOCKED: BRANCH  14  15
DOCKED: ATOM     15  C   UNL     1      25.127 -17.491  -1.999 -0.56 -0.00    +0.000 C 
DOCKED: BRANCH  15  16
DOCKED: ATOM     16  C   UNL     1      24.059 -16.829  -1.119 -0.63 -0.00    +0.000 C 
DOCKED: BRANCH  16  18
DOCKED: ATOM     17  O   UNL     1      23.097 -18.962  -0.624 -0.82 -0.00    +0.000 OA
DOCKED: ATOM     18  C   UNL     1      22.894 -17.742  -0.869 -0.78 -0.00    +0.000 C 
DOCKED: ATOM     19  N   UNL     1      21.556 -17.242  -0.934 -0.57 -0.00    +0.000 N 
DOCKED: ATOM     20  O   UNL     1      20.504 -18.065  -0.710 -2.25 -0.00    +0.000 OA
DOCKED: ATOM     21  H   UNL     1      21.398 -16.293  -1.143 -0.07 -0.00    +0.000 HD
DOCKED: ENDBRANCH  16  18
DOCKED: ENDBRANCH  15  16
DOCKED: ENDBRANCH  14  15
DOCKED: ENDBRANCH  13  14
DOCKED: ENDBRANCH  12  13
DOCKED: ENDBRANCH   1  12
DOCKED: TORSDOF 8
DOCKED: TER
DOCKED: ENDMDL
________________________________________________________________________________


	BEGINNING GENETIC ALGORITHM DOCKING 9 of 100
Run: 9 Seed: 2011547445 51900390 [ Run 9 of 100 GA/GALS ]
Beginning LAMARCKIAN GENETIC ALGORITHM (LGA), with a maximum of 2500000 energy evaluations.

Final-Value: -12.509


	FINAL GENETIC ALGORITHM DOCKED STATE
	_______________________________________________


Detailed state:  trans 27.974 -16.444 -2.295 quatxyzw 0.619036 -0.540900 -0.568185 0.037254 center -0.033 -0.045 -0.218 ntor 8 -59.1594 -110.0929 -150.5804 123.0639 1.9621 63.3532 99.5471 94.5677
State:	 27.974 -16.444  -2.295   0.619 -0.541 -0.569 175.730    -59.16 -110.09 -150.58  123.06    1.96   63.35   99.55   94.57

DOCKED: MODEL        9
DOCKED: USER    Run = 9
DOCKED: USER    DPF = ligand_dock.biased.dpf
DOCKED: USER  
DOCKED: USER    Estimated Free Energy of Binding    =   -9.21 kcal/mol  [=(1)+(2)+(3)-(4)]
DOCKED: USER    Estimated Inhibition Constant, Ki   =  178.64 nM (nanomolar)  [Temperature = 298.15 K]
DOCKED: USER    
DOCKED: USER    (1) Final Intermolecular Energy     =  -11.59 kcal/mol
DOCKED: USER        vdW + Hbond + desolv Energy     =  -11.59 kcal/mol
DOCKED: USER        Electrostatic Energy            =   +0.00 kcal/mol
DOCKED: USER    (2) Final Total Internal Energy     =   -0.92 kcal/mol
DOCKED: USER    (3) Torsional Free Energy           =   +2.39 kcal/mol
DOCKED: USER    (4) Unbound System's Energy  [=(2)] =   -0.92 kcal/mol
DOCKED: USER    
DOCKED: USER    
DOCKED: USER    NEWDPF move ligand.pdbqt
DOCKED: USER    NEWDPF about -0.033000 -0.045000 -0.218000
DOCKED: USER    NEWDPF tran0 27.974050 -16.444295 -2.295237
DOCKED: USER    NEWDPF quaternion0 0.619036 -0.540900 -0.568185 0.037254
DOCKED: USER    NEWDPF axisangle0 0.619466 -0.541275 -0.568580 175.730064
DOCKED: USER    NEWDPF quat0 0.619466 -0.541275 -0.568580 175.730064
DOCKED: USER    NEWDPF dihe0 -59.16 -110.09 -150.58 123.06 1.96 63.35 99.55 94.57 
DOCKED: USER  keepresnum = 1 
DOCKED: USER  
DOCKED: REMARK  Name = 
DOCKED: REMARK  8 active torsions:
DOCKED: REMARK  status: ('A' for Active; 'I' for Inactive)
DOCKED: REMARK    1  A    between atoms: C_2  and  C_5
DOCKED: REMARK    2  A    between atoms: C_5  and  C_6
DOCKED: REMARK    3  A    between atoms: C_6  and  C_7
DOCKED: REMARK    4  A    between atoms: C_7  and  C_8
DOCKED: REMARK    5  A    between atoms: C_8  and  C_9
DOCKED: REMARK    6  A    between atoms: C_9  and  C_10
DOCKED: REMARK    7  A    between atoms: C_10  and  C_11
DOCKED: REMARK    8  A    between atoms: N_12  and  C_13
DOCKED: REMARK                            x       y       z     vdW  Elec       q    Type
DOCKED: REMARK                         _______ _______ _______ _____ _____    ______ ____
DOCKED: USER                              x       y       z     vdW  Elec       q    Type
DOCKED: USER                           _______ _______ _______ _____ _____    ______ ____
DOCKED: ROOT
DOCKED: ATOM      1  C   UNL     1      26.962 -16.964  -0.973 -0.49 -0.00    +0.000 C 
DOCKED: ENDROOT
DOCKED: BRANCH   1   2
DOCKED: ATOM      2  C   UNL     1      27.254 -15.757  -0.132 -0.36 -0.00    +0.000 C 
DOCKED: ATOM      3  N   UNL     1      26.504 -14.548  -0.328 -0.31 -0.00    +0.000 N 
DOCKED: ATOM      4  O   UNL     1      28.165 -15.816   0.738 -0.20 -0.00    +0.000 OA
DOCKED: ATOM      5  H   UNL     1      25.920 -14.492  -1.118 -0.01 -0.00    +0.000 HD
DOCKED: BRANCH   3   6
DOCKED: ATOM      6  C   UNL     1      26.553 -13.415   0.555 -0.28 -0.00    +0.000 A 
DOCKED: ATOM      7  C   UNL     1      27.770 -13.048   1.146 -0.20 -0.00    +0.000 A 
DOCKED: ATOM      8  C   UNL     1      27.834 -11.937   1.988 -0.18 -0.00    +0.000 A 
DOCKED: ATOM      9  C   UNL     1      26.681 -11.188   2.219 -0.31 +0.00    +0.000 A 
DOCKED: ATOM     10  N   UNL     1      25.511 -11.536   1.620 -0.36 +0.00    +0.000 NA
DOCKED: ATOM     11  C   UNL     1      25.421 -12.617   0.800 -0.15 +0.00    +0.000 A 
DOCKED: ENDBRANCH   3   6
DOCKED: ENDBRANCH   1   2
DOCKED: BRANCH   1  12
DOCKED: ATOM     12  C   UNL     1      26.246 -16.551  -2.266 -0.46 -0.00    +0.000 C 
DOCKED: BRANCH  12  13
DOCKED: ATOM     13  C   UNL     1      24.742 -16.300  -2.058 -0.52 -0.00    +0.000 C 
DOCKED: BRANCH  13  14
DOCKED: ATOM     14  C   UNL     1      24.215 -16.712  -0.671 -0.52 -0.00    +0.000 C 
DOCKED: BRANCH  14  15
DOCKED: ATOM     15  C   UNL     1      24.126 -18.238  -0.501 -0.78 -0.00    +0.000 C 
DOCKED: BRANCH  15  16
DOCKED: ATOM     16  C   UNL     1      23.246 -18.894  -1.573 -0.73 -0.00    +0.000 C 
DOCKED: BRANCH  16  18
DOCKED: ATOM     17  O   UNL     1      21.390 -18.034  -0.333 -1.65 -0.00    +0.000 OA
DOCKED: ATOM     18  C   UNL     1      21.790 -18.849  -1.208 -0.74 -0.00    +0.000 C 
DOCKED: ATOM     19  N   UNL     1      20.861 -19.742  -1.828 -0.71 -0.00    +0.000 N 
DOCKED: ATOM     20  O   UNL     1      19.548 -19.703  -1.499 -2.10 -0.00    +0.000 OA
DOCKED: ATOM     21  H   UNL     1      21.178 -20.390  -2.498 -0.53 -0.00    +0.000 HD
DOCKED: ENDBRANCH  16  18
DOCKED: ENDBRANCH  15  16
DOCKED: ENDBRANCH  14  15
DOCKED: ENDBRANCH  13  14
DOCKED: ENDBRANCH  12  13
DOCKED: ENDBRANCH   1  12
DOCKED: TORSDOF 8
DOCKED: TER
DOCKED: ENDMDL
________________________________________________________________________________


	BEGINNING GENETIC ALGORITHM DOCKING 10 of 100
Run: 10 Seed: 1076609465 1927266175 [ Run 10 of 100 GA/GALS ]
Beginning LAMARCKIAN GENETIC ALGORITHM (LGA), with a maximum of 2500000 energy evaluations.

Final-Value: -14.500


	FINAL GENETIC ALGORITHM DOCKED STATE
	_______________________________________________


Detailed state:  trans 26.476 -15.527 -1.353 quatxyzw 0.434580 0.181857 -0.650479 -0.595773 center -0.033 -0.045 -0.218 ntor 8 178.4654 159.1299 38.2578 -88.8891 -172.3656 -170.1513 -179.2306 -153.5535
State:	 26.476 -15.527  -1.353   0.541  0.226 -0.810 -106.864    178.47  159.13   38.26  -88.89 -172.37 -170.15 -179.23 -153.55

DOCKED: MODEL       10
DOCKED: USER    Run = 10
DOCKED: USER    DPF = ligand_dock.biased.dpf
DOCKED: USER  
DOCKED: USER    Estimated Free Energy of Binding    =  -11.34 kcal/mol  [=(1)+(2)+(3)-(4)]
DOCKED: USER    Estimated Inhibition Constant, Ki   =    4.88 nM (nanomolar)  [Temperature = 298.15 K]
DOCKED: USER    
DOCKED: USER    (1) Final Intermolecular Energy     =  -13.73 kcal/mol
DOCKED: USER        vdW + Hbond + desolv Energy     =  -13.73 kcal/mol
DOCKED: USER        Electrostatic Energy            =   +0.00 kcal/mol
DOCKED: USER    (2) Final Total Internal Energy     =   -0.77 kcal/mol
DOCKED: USER    (3) Torsional Free Energy           =   +2.39 kcal/mol
DOCKED: USER    (4) Unbound System's Energy  [=(2)] =   -0.77 kcal/mol
DOCKED: USER    
DOCKED: USER    
DOCKED: USER    NEWDPF move ligand.pdbqt
DOCKED: USER    NEWDPF about -0.033000 -0.045000 -0.218000
DOCKED: USER    NEWDPF tran0 26.476207 -15.526773 -1.352867
DOCKED: USER    NEWDPF quaternion0 0.434580 0.181857 -0.650479 -0.595773
DOCKED: USER    NEWDPF axisangle0 0.541093 0.226429 -0.809907 -106.864482
DOCKED: USER    NEWDPF quat0 0.541093 0.226429 -0.809907 -106.864482
DOCKED: USER    NEWDPF dihe0 178.47 159.13 38.26 -88.89 -172.37 -170.15 -179.23 -153.55 
DOCKED: USER  keepresnum = 1 
DOCKED: USER  
DOCKED: REMARK  Name = 
DOCKED: REMARK  8 active torsions:
DOCKED: REMARK  status: ('A' for Active; 'I' for Inactive)
DOCKED: REMARK    1  A    between atoms: C_2  and  C_5
DOCKED: REMARK    2  A    between atoms: C_5  and  C_6
DOCKED: REMARK    3  A    between atoms: C_6  and  C_7
DOCKED: REMARK    4  A    between atoms: C_7  and  C_8
DOCKED: REMARK    5  A    between atoms: C_8  and  C_9
DOCKED: REMARK    6  A    between atoms: C_9  and  C_10
DOCKED: REMARK    7  A    between atoms: C_10  and  C_11
DOCKED: REMARK    8  A    between atoms: N_12  and  C_13
DOCKED: REMARK                            x       y       z     vdW  Elec       q    Type
DOCKED: REMARK                         _______ _______ _______ _____ _____    ______ ____
DOCKED: USER                              x       y       z     vdW  Elec       q    Type
DOCKED: USER                           _______ _______ _______ _____ _____    ______ ____
DOCKED: ROOT
DOCKED: ATOM      1  C   UNL     1      28.061 -15.540  -0.623 -0.28 -0.00    +0.000 C 
DOCKED: ENDROOT
DOCKED: BRANCH   1   2
DOCKED: ATOM      2  C   UNL     1      27.614 -14.826   0.618 -0.29 -0.00    +0.000 C 
DOCKED: ATOM      3  N   UNL     1      28.459 -14.811   1.779 -0.15 -0.00    +0.000 N 
DOCKED: ATOM      4  O   UNL     1      26.492 -14.250   0.630 -0.32 -0.00    +0.000 OA
DOCKED: ATOM      5  H   UNL     1      29.245 -15.402   1.785 -1.47 -0.00    +0.000 HD
DOCKED: BRANCH   3   6
DOCKED: ATOM      6  C   UNL     1      28.229 -13.986   2.934 -0.31 -0.00    +0.000 A 
DOCKED: ATOM      7  C   UNL     1      28.053 -12.605   2.776 -0.23 -0.00    +0.000 A 
DOCKED: ATOM      8  C   UNL     1      27.808 -11.797   3.888 -0.28 +0.00    +0.000 A 
DOCKED: ATOM      9  C   UNL     1      27.721 -12.382   5.151 -0.34 +0.00    +0.000 A 
DOCKED: ATOM     10  N   UNL     1      27.866 -13.726   5.290 -0.51 -0.00    +0.000 NA
DOCKED: ATOM     11  C   UNL     1      28.112 -14.534   4.224 -0.51 -0.00    +0.000 A 
DOCKED: ENDBRANCH   3   6
DOCKED: ENDBRANCH   1   2
DOCKED: BRANCH   1  12
DOCKED: ATOM     12  C   UNL     1      27.348 -16.893  -0.745 -0.45 -0.00    +0.000 C 
DOCKED: BRANCH  12  13
DOCKED: ATOM     13  C   UNL     1      25.929 -16.873  -0.149 -0.32 -0.00    +0.000 C 
DOCKED: BRANCH  13  14
DOCKED: ATOM     14  C   UNL     1      24.809 -17.152  -1.168 -0.67 -0.00    +0.000 C 
DOCKED: BRANCH  14  15
DOCKED: ATOM     15  C   UNL     1      24.089 -18.486  -0.906 -0.79 -0.00    +0.000 C 
DOCKED: BRANCH  15  16
DOCKED: ATOM     16  C   UNL     1      22.871 -18.320   0.013 -0.77 -0.00    +0.000 C 
DOCKED: BRANCH  16  18
DOCKED: ATOM     17  O   UNL     1      20.935 -17.342  -0.993 -1.88 -0.00    +0.000 OA
DOCKED: ATOM     18  C   UNL     1      21.580 -18.398  -0.748 -0.84 -0.00    +0.000 C 
DOCKED: ATOM     19  N   UNL     1      21.065 -19.662  -1.172 -0.76 -0.00    +0.000 N 
DOCKED: ATOM     20  O   UNL     1      19.899 -19.733  -1.858 -2.40 -0.00    +0.000 OA
DOCKED: ATOM     21  H   UNL     1      21.560 -20.487  -0.964 -0.15 -0.00    +0.000 HD
DOCKED: ENDBRANCH  16  18
DOCKED: ENDBRANCH  15  16
DOCKED: ENDBRANCH  14  15
DOCKED: ENDBRANCH  13  14
DOCKED: ENDBRANCH  12  13
DOCKED: ENDBRANCH   1  12
DOCKED: TORSDOF 8
DOCKED: TER
DOCKED: ENDMDL
________________________________________________________________________________


	BEGINNING GENETIC ALGORITHM DOCKING 11 of 100
Run: 11 Seed: 1785774095 35754253 [ Run 11 of 100 GA/GALS ]
Beginning LAMARCKIAN GENETIC ALGORITHM (LGA), with a maximum of 2500000 energy evaluations.

Final-Value: -13.626


	FINAL GENETIC ALGORITHM DOCKED STATE
	_______________________________________________


Detailed state:  trans 25.670 -15.373 0.043 quatxyzw 0.107140 0.600122 -0.469986 -0.638348 center -0.033 -0.045 -0.218 ntor 8 -75.7136 101.1191 143.6454 28.5373 -68.7119 -180.0000 91.1452 -113.5586
State:	 25.670 -15.373   0.043   0.139  0.780 -0.611 -100.663    -75.71  101.12  143.65   28.54  -68.71 -180.00   91.15 -113.56

DOCKED: MODEL       11
DOCKED: USER    Run = 11
DOCKED: USER    DPF = ligand_dock.biased.dpf
DOCKED: USER  
DOCKED: USER    Estimated Free Energy of Binding    =  -10.45 kcal/mol  [=(1)+(2)+(3)-(4)]
DOCKED: USER    Estimated Inhibition Constant, Ki   =   21.79 nM (nanomolar)  [Temperature = 298.15 K]
DOCKED: USER    
DOCKED: USER    (1) Final Intermolecular Energy     =  -12.84 kcal/mol
DOCKED: USER        vdW + Hbond + desolv Energy     =  -12.84 kcal/mol
DOCKED: USER        Electrostatic Energy            =   +0.00 kcal/mol
DOCKED: USER    (2) Final Total Internal Energy     =   -0.79 kcal/mol
DOCKED: USER    (3) Torsional Free Energy           =   +2.39 kcal/mol
DOCKED: USER    (4) Unbound System's Energy  [=(2)] =   -0.79 kcal/mol
DOCKED: USER    
DOCKED: USER    
DOCKED: USER    NEWDPF move ligand.pdbqt
DOCKED: USER    NEWDPF about -0.033000 -0.045000 -0.218000
DOCKED: USER    NEWDPF tran0 25.670359 -15.373467 0.043056
DOCKED: USER    NEWDPF quaternion0 0.107140 0.600122 -0.469986 -0.638348
DOCKED: USER    NEWDPF axisangle0 0.139188 0.779634 -0.610571 -100.662513
DOCKED: USER    NEWDPF quat0 0.139188 0.779634 -0.610571 -100.662513
DOCKED: USER    NEWDPF dihe0 -75.71 101.12 143.65 28.54 -68.71 -180.00 91.15 -113.56 
DOCKED: USER  keepresnum = 1 
DOCKED: USER  
DOCKED: REMARK  Name = 
DOCKED: REMARK  8 active torsions:
DOCKED: REMARK  status: ('A' for Active; 'I' for Inactive)
DOCKED: REMARK    1  A    between atoms: C_2  and  C_5
DOCKED: REMARK    2  A    between atoms: C_5  and  C_6
DOCKED: REMARK    3  A    between atoms: C_6  and  C_7
DOCKED: REMARK    4  A    between atoms: C_7  and  C_8
DOCKED: REMARK    5  A    between atoms: C_8  and  C_9
DOCKED: REMARK    6  A    between atoms: C_9  and  C_10
DOCKED: REMARK    7  A    between atoms: C_10  and  C_11
DOCKED: REMARK    8  A    between atoms: N_12  and  C_13
DOCKED: REMARK                            x       y       z     vdW  Elec       q    Type
DOCKED: REMARK                         _______ _______ _______ _____ _____    ______ ____
DOCKED: USER                              x       y       z     vdW  Elec       q    Type
DOCKED: USER                           _______ _______ _______ _____ _____    ______ ____
DOCKED: ROOT
DOCKED: ATOM      1  C   UNL     1      26.877 -14.175  -0.345 -0.30 -0.00    +0.000 C 
DOCKED: ENDROOT
DOCKED: BRANCH   1   2
DOCKED: ATOM      2  C   UNL     1      27.151 -13.829   1.088 -0.30 -0.00    +0.000 C 
DOCKED: ATOM      3  N   UNL     1      27.931 -14.718   1.903 -0.26 -0.00    +0.000 N 
DOCKED: ATOM      4  O   UNL     1      26.685 -12.758   1.565 -0.37 -0.00    +0.000 OA
DOCKED: ATOM      5  H   UNL     1      28.136 -15.611   1.544 -0.84 -0.00    +0.000 HD
DOCKED: BRANCH   3   6
DOCKED: ATOM      6  C   UNL     1      28.430 -14.387   3.210 -0.30 -0.00    +0.000 A 
DOCKED: ATOM      7  C   UNL     1      29.807 -14.215   3.403 -0.25 -0.00    +0.000 A 
DOCKED: ATOM      8  C   UNL     1      30.302 -13.873   4.663 -0.27 -0.00    +0.000 A 
DOCKED: ATOM      9  C   UNL     1      29.410 -13.685   5.719 -0.35 -0.00    +0.000 A 
DOCKED: ATOM     10  N   UNL     1      28.074 -13.827   5.514 -0.48 -0.00    +0.000 NA
DOCKED: ATOM     11  C   UNL     1      27.568 -14.166   4.298 -0.52 -0.00    +0.000 A 
DOCKED: ENDBRANCH   3   6
DOCKED: ENDBRANCH   1   2
DOCKED: BRANCH   1  12
DOCKED: ATOM     12  C   UNL     1      27.248 -15.638  -0.620 -0.35 -0.00    +0.000 C 
DOCKED: BRANCH  12  13
DOCKED: ATOM     13  C   UNL     1      26.265 -16.631   0.026 -0.23 -0.00    +0.000 C 
DOCKED: BRANCH  13  14
DOCKED: ATOM     14  C   UNL     1      25.341 -17.351  -0.973 -0.65 -0.00    +0.000 C 
DOCKED: BRANCH  14  15
DOCKED: ATOM     15  C   UNL     1      23.925 -17.576  -0.414 -0.70 -0.00    +0.000 C 
DOCKED: BRANCH  15  16
DOCKED: ATOM     16  C   UNL     1      23.251 -18.815  -1.017 -0.81 -0.00    +0.000 C 
DOCKED: BRANCH  16  18
DOCKED: ATOM     17  O   UNL     1      21.221 -17.591  -0.700 -1.91 -0.00    +0.000 OA
DOCKED: ATOM     18  C   UNL     1      21.759 -18.665  -1.084 -0.81 -0.00    +0.000 C 
DOCKED: ATOM     19  N   UNL     1      20.944 -19.741  -1.555 -0.74 -0.00    +0.000 N 
DOCKED: ATOM     20  O   UNL     1      19.597 -19.606  -1.615 -2.06 -0.00    +0.000 OA
DOCKED: ATOM     21  H   UNL     1      21.363 -20.585  -1.838 -0.34 -0.00    +0.000 HD
DOCKED: ENDBRANCH  16  18
DOCKED: ENDBRANCH  15  16
DOCKED: ENDBRANCH  14  15
DOCKED: ENDBRANCH  13  14
DOCKED: ENDBRANCH  12  13
DOCKED: ENDBRANCH   1  12
DOCKED: TORSDOF 8
DOCKED: TER
DOCKED: ENDMDL
________________________________________________________________________________


	BEGINNING GENETIC ALGORITHM DOCKING 12 of 100
Run: 12 Seed: 1797074678 1382659520 [ Run 12 of 100 GA/GALS ]
Beginning LAMARCKIAN GENETIC ALGORITHM (LGA), with a maximum of 2500000 energy evaluations.

Final-Value: -13.862


	FINAL GENETIC ALGORITHM DOCKED STATE
	_______________________________________________


Detailed state:  trans 26.871 -14.099 -2.111 quatxyzw -0.243890 0.544290 -0.669144 0.443298 center -0.033 -0.045 -0.218 ntor 8 -138.0478 -23.2332 142.3792 23.6579 67.6204 -55.7155 -39.1323 -176.8127
State:	 26.871 -14.099  -2.111  -0.272  0.607 -0.747 127.371   -138.05  -23.23  142.38   23.66   67.62  -55.72  -39.13 -176.81

DOCKED: MODEL       12
DOCKED: USER    Run = 12
DOCKED: USER    DPF = ligand_dock.biased.dpf
DOCKED: USER  
DOCKED: USER    Estimated Free Energy of Binding    =  -10.60 kcal/mol  [=(1)+(2)+(3)-(4)]
DOCKED: USER    Estimated Inhibition Constant, Ki   =   17.11 nM (nanomolar)  [Temperature = 298.15 K]
DOCKED: USER    
DOCKED: USER    (1) Final Intermolecular Energy     =  -12.98 kcal/mol
DOCKED: USER        vdW + Hbond + desolv Energy     =  -12.98 kcal/mol
DOCKED: USER        Electrostatic Energy            =   +0.00 kcal/mol
DOCKED: USER    (2) Final Total Internal Energy     =   -0.88 kcal/mol
DOCKED: USER    (3) Torsional Free Energy           =   +2.39 kcal/mol
DOCKED: USER    (4) Unbound System's Energy  [=(2)] =   -0.88 kcal/mol
DOCKED: USER    
DOCKED: USER    
DOCKED: USER    NEWDPF move ligand.pdbqt
DOCKED: USER    NEWDPF about -0.033000 -0.045000 -0.218000
DOCKED: USER    NEWDPF tran0 26.871333 -14.099265 -2.110818
DOCKED: USER    NEWDPF quaternion0 -0.243890 0.544290 -0.669144 0.443298
DOCKED: USER    NEWDPF axisangle0 -0.272085 0.607212 -0.746500 127.370994
DOCKED: USER    NEWDPF quat0 -0.272085 0.607212 -0.746500 127.370994
DOCKED: USER    NEWDPF dihe0 -138.05 -23.23 142.38 23.66 67.62 -55.72 -39.13 -176.81 
DOCKED: USER  keepresnum = 1 
DOCKED: USER  
DOCKED: REMARK  Name = 
DOCKED: REMARK  8 active torsions:
DOCKED: REMARK  status: ('A' for Active; 'I' for Inactive)
DOCKED: REMARK    1  A    between atoms: C_2  and  C_5
DOCKED: REMARK    2  A    between atoms: C_5  and  C_6
DOCKED: REMARK    3  A    between atoms: C_6  and  C_7
DOCKED: REMARK    4  A    between atoms: C_7  and  C_8
DOCKED: REMARK    5  A    between atoms: C_8  and  C_9
DOCKED: REMARK    6  A    between atoms: C_9  and  C_10
DOCKED: REMARK    7  A    between atoms: C_10  and  C_11
DOCKED: REMARK    8  A    between atoms: N_12  and  C_13
DOCKED: REMARK                            x       y       z     vdW  Elec       q    Type
DOCKED: REMARK                         _______ _______ _______ _____ _____    ______ ____
DOCKED: USER                              x       y       z     vdW  Elec       q    Type
DOCKED: USER                           _______ _______ _______ _____ _____    ______ ____
DOCKED: ROOT
DOCKED: ATOM      1  C   UNL     1      25.651 -14.133  -3.357 -0.45 -0.00    +0.000 C 
DOCKED: ENDROOT
DOCKED: BRANCH   1   2
DOCKED: ATOM      2  C   UNL     1      26.506 -14.896  -4.325 -0.53 -0.00    +0.000 C 
DOCKED: ATOM      3  N   UNL     1      27.808 -14.401  -4.674 -0.29 -0.00    +0.000 N 
DOCKED: ATOM      4  O   UNL     1      26.067 -15.967  -4.827 -0.95 -0.00    +0.000 OA
DOCKED: ATOM      5  H   UNL     1      28.046 -13.489  -4.391 +0.00 -0.00    +0.000 HD
DOCKED: BRANCH   3   6
DOCKED: ATOM      6  C   UNL     1      28.785 -15.152  -5.414 -0.32 -0.00    +0.000 A 
DOCKED: ATOM      7  C   UNL     1      29.326 -14.616  -6.591 -0.31 -0.00    +0.000 A 
DOCKED: ATOM      8  C   UNL     1      30.291 -15.327  -7.307 -0.24 -0.00    +0.000 A 
DOCKED: ATOM      9  C   UNL     1      30.724 -16.563  -6.828 -0.29 -0.00    +0.000 A 
DOCKED: ATOM     10  N   UNL     1      30.214 -17.061  -5.671 -0.30 -0.00    +0.000 NA
DOCKED: ATOM     11  C   UNL     1      29.268 -16.391  -4.959 -0.27 -0.00    +0.000 A 
DOCKED: ENDBRANCH   3   6
DOCKED: ENDBRANCH   1   2
DOCKED: BRANCH   1  12
DOCKED: ATOM     12  C   UNL     1      25.380 -14.978  -2.106 -0.27 -0.00    +0.000 C 
DOCKED: BRANCH  12  13
DOCKED: ATOM     13  C   UNL     1      26.211 -16.274  -2.072 -0.50 -0.00    +0.000 C 
DOCKED: BRANCH  13  14
DOCKED: ATOM     14  C   UNL     1      25.385 -17.552  -1.841 -0.51 -0.00    +0.000 C 
DOCKED: BRANCH  14  15
DOCKED: ATOM     15  C   UNL     1      23.911 -17.255  -1.517 -0.63 -0.00    +0.000 C 
DOCKED: BRANCH  15  16
DOCKED: ATOM     16  C   UNL     1      23.242 -18.399  -0.743 -0.82 -0.00    +0.000 C 
DOCKED: BRANCH  16  18
DOCKED: ATOM     17  O   UNL     1      21.030 -17.493  -0.732 -2.05 -0.00    +0.000 OA
DOCKED: ATOM     18  C   UNL     1      21.768 -18.474  -1.016 -0.79 -0.00    +0.000 C 
DOCKED: ATOM     19  N   UNL     1      21.194 -19.660  -1.570 -0.66 -0.00    +0.000 N 
DOCKED: ATOM     20  O   UNL     1      19.864 -19.729  -1.815 -2.38 -0.00    +0.000 OA
DOCKED: ATOM     21  H   UNL     1      21.769 -20.433  -1.775 -0.41 -0.00    +0.000 HD
DOCKED: ENDBRANCH  16  18
DOCKED: ENDBRANCH  15  16
DOCKED: ENDBRANCH  14  15
DOCKED: ENDBRANCH  13  14
DOCKED: ENDBRANCH  12  13
DOCKED: ENDBRANCH   1  12
DOCKED: TORSDOF 8
DOCKED: TER
DOCKED: ENDMDL
________________________________________________________________________________


	BEGINNING GENETIC ALGORITHM DOCKING 13 of 100
Run: 13 Seed: 591043665 386521222 [ Run 13 of 100 GA/GALS ]
Beginning LAMARCKIAN GENETIC ALGORITHM (LGA), with a maximum of 2500000 energy evaluations.

Final-Value: -13.487


	FINAL GENETIC ALGORITHM DOCKED STATE
	_______________________________________________


Detailed state:  trans 25.295 -14.373 -2.498 quatxyzw 0.550641 -0.114324 0.826869 0.003526 center -0.033 -0.045 -0.218 ntor 8 -29.3888 136.3244 151.8305 -132.8863 -48.3684 -179.4381 53.8575 -4.3549
State:	 25.295 -14.373  -2.498   0.551 -0.114  0.827 179.596    -29.39  136.32  151.83 -132.89  -48.37 -179.44   53.86   -4.35

DOCKED: MODEL       13
DOCKED: USER    Run = 13
DOCKED: USER    DPF = ligand_dock.biased.dpf
DOCKED: USER  
DOCKED: USER    Estimated Free Energy of Binding    =  -10.18 kcal/mol  [=(1)+(2)+(3)-(4)]
DOCKED: USER    Estimated Inhibition Constant, Ki   =   34.37 nM (nanomolar)  [Temperature = 298.15 K]
DOCKED: USER    
DOCKED: USER    (1) Final Intermolecular Energy     =  -12.57 kcal/mol
DOCKED: USER        vdW + Hbond + desolv Energy     =  -12.57 kcal/mol
DOCKED: USER        Electrostatic Energy            =   +0.00 kcal/mol
DOCKED: USER    (2) Final Total Internal Energy     =   -0.92 kcal/mol
DOCKED: USER    (3) Torsional Free Energy           =   +2.39 kcal/mol
DOCKED: USER    (4) Unbound System's Energy  [=(2)] =   -0.92 kcal/mol
DOCKED: USER    
DOCKED: USER    
DOCKED: USER    NEWDPF move ligand.pdbqt
DOCKED: USER    NEWDPF about -0.033000 -0.045000 -0.218000
DOCKED: USER    NEWDPF tran0 25.295385 -14.373212 -2.498048
DOCKED: USER    NEWDPF quaternion0 0.550641 -0.114324 0.826869 0.003526
DOCKED: USER    NEWDPF axisangle0 0.550644 -0.114325 0.826874 179.595981
DOCKED: USER    NEWDPF quat0 0.550644 -0.114325 0.826874 179.595981
DOCKED: USER    NEWDPF dihe0 -29.39 136.32 151.83 -132.89 -48.37 -179.44 53.86 -4.35 
DOCKED: USER  keepresnum = 1 
DOCKED: USER  
DOCKED: REMARK  Name = 
DOCKED: REMARK  8 active torsions:
DOCKED: REMARK  status: ('A' for Active; 'I' for Inactive)
DOCKED: REMARK    1  A    between atoms: C_2  and  C_5
DOCKED: REMARK    2  A    between atoms: C_5  and  C_6
DOCKED: REMARK    3  A    between atoms: C_6  and  C_7
DOCKED: REMARK    4  A    between atoms: C_7  and  C_8
DOCKED: REMARK    5  A    between atoms: C_8  and  C_9
DOCKED: REMARK    6  A    between atoms: C_9  and  C_10
DOCKED: REMARK    7  A    between atoms: C_10  and  C_11
DOCKED: REMARK    8  A    between atoms: N_12  and  C_13
DOCKED: REMARK                            x       y       z     vdW  Elec       q    Type
DOCKED: REMARK                         _______ _______ _______ _____ _____    ______ ____
DOCKED: USER                              x       y       z     vdW  Elec       q    Type
DOCKED: USER                           _______ _______ _______ _____ _____    ______ ____
DOCKED: ROOT
DOCKED: ATOM      1  C   UNL     1      25.135 -15.935  -3.260 -0.20 -0.00    +0.000 C 
DOCKED: ENDROOT
DOCKED: BRANCH   1   2
DOCKED: ATOM      2  C   UNL     1      26.014 -15.579  -4.422 -0.57 -0.00    +0.000 C 
DOCKED: ATOM      3  N   UNL     1      27.184 -14.773  -4.214 -0.36 -0.00    +0.000 N 
DOCKED: ATOM      4  O   UNL     1      25.709 -15.989  -5.575 -1.07 +0.00    +0.000 OA
DOCKED: ATOM      5  H   UNL     1      27.297 -14.341  -3.337 +0.00 -0.00    +0.000 HD
DOCKED: BRANCH   3   6
DOCKED: ATOM      6  C   UNL     1      28.201 -14.555  -5.207 -0.32 -0.00    +0.000 A 
DOCKED: ATOM      7  C   UNL     1      29.126 -15.570  -5.486 -0.32 -0.00    +0.000 A 
DOCKED: ATOM      8  C   UNL     1      30.104 -15.378  -6.463 -0.28 -0.00    +0.000 A 
DOCKED: ATOM      9  C   UNL     1      30.139 -14.176  -7.168 -0.23 -0.00    +0.000 A 
DOCKED: ATOM     10  N   UNL     1      29.220 -13.208  -6.909 -0.22 -0.00    +0.000 NA
DOCKED: ATOM     11  C   UNL     1      28.260 -13.368  -5.958 -0.24 -0.00    +0.000 A 
DOCKED: ENDBRANCH   3   6
DOCKED: ENDBRANCH   1   2
DOCKED: BRANCH   1  12
DOCKED: ATOM     12  C   UNL     1      25.936 -15.886  -1.952 -0.50 -0.00    +0.000 C 
DOCKED: BRANCH  12  13
DOCKED: ATOM     13  C   UNL     1      25.092 -16.268  -0.723 -0.47 -0.00    +0.000 C 
DOCKED: BRANCH  13  14
DOCKED: ATOM     14  C   UNL     1      25.438 -17.640  -0.116 -0.57 -0.00    +0.000 C 
DOCKED: BRANCH  14  15
DOCKED: ATOM     15  C   UNL     1      24.224 -18.583  -0.052 -0.56 -0.00    +0.000 C 
DOCKED: BRANCH  15  16
DOCKED: ATOM     16  C   UNL     1      23.441 -18.614  -1.372 -0.78 -0.00    +0.000 C 
DOCKED: BRANCH  16  18
DOCKED: ATOM     17  O   UNL     1      21.415 -17.900  -0.321 -1.64 -0.00    +0.000 OA
DOCKED: ATOM     18  C   UNL     1      21.959 -18.686  -1.143 -0.77 -0.00    +0.000 C 
DOCKED: ATOM     19  N   UNL     1      21.168 -19.659  -1.829 -0.59 -0.00    +0.000 N 
DOCKED: ATOM     20  O   UNL     1      19.831 -19.726  -1.622 -2.29 -0.00    +0.000 OA
DOCKED: ATOM     21  H   UNL     1      21.597 -20.285  -2.457 -0.59 -0.00    +0.000 HD
DOCKED: ENDBRANCH  16  18
DOCKED: ENDBRANCH  15  16
DOCKED: ENDBRANCH  14  15
DOCKED: ENDBRANCH  13  14
DOCKED: ENDBRANCH  12  13
DOCKED: ENDBRANCH   1  12
DOCKED: TORSDOF 8
DOCKED: TER
DOCKED: ENDMDL
________________________________________________________________________________


	BEGINNING GENETIC ALGORITHM DOCKING 14 of 100
Run: 14 Seed: 1834141303 1257251191 [ Run 14 of 100 GA/GALS ]
Beginning LAMARCKIAN GENETIC ALGORITHM (LGA), with a maximum of 2500000 energy evaluations.

Final-Value: -13.870


	FINAL GENETIC ALGORITHM DOCKED STATE
	_______________________________________________


Detailed state:  trans 27.313 -16.834 -1.951 quatxyzw 0.443524 -0.256115 -0.630946 -0.582751 center -0.033 -0.045 -0.218 ntor 8 -179.9024 110.0684 51.1340 -114.3129 155.4141 179.3739 -179.5635 175.5097
State:	 27.313 -16.834  -1.951   0.546 -0.315 -0.776 -108.711   -179.90  110.07   51.13 -114.31  155.41  179.37 -179.56  175.51

DOCKED: MODEL       14
DOCKED: USER    Run = 14
DOCKED: USER    DPF = ligand_dock.biased.dpf
DOCKED: USER  
DOCKED: USER    Estimated Free Energy of Binding    =  -10.55 kcal/mol  [=(1)+(2)+(3)-(4)]
DOCKED: USER    Estimated Inhibition Constant, Ki   =   18.50 nM (nanomolar)  [Temperature = 298.15 K]
DOCKED: USER    
DOCKED: USER    (1) Final Intermolecular Energy     =  -12.94 kcal/mol
DOCKED: USER        vdW + Hbond + desolv Energy     =  -12.94 kcal/mol
DOCKED: USER        Electrostatic Energy            =   +0.00 kcal/mol
DOCKED: USER    (2) Final Total Internal Energy     =   -0.93 kcal/mol
DOCKED: USER    (3) Torsional Free Energy           =   +2.39 kcal/mol
DOCKED: USER    (4) Unbound System's Energy  [=(2)] =   -0.93 kcal/mol
DOCKED: USER    
DOCKED: USER    
DOCKED: USER    NEWDPF move ligand.pdbqt
DOCKED: USER    NEWDPF about -0.033000 -0.045000 -0.218000
DOCKED: USER    NEWDPF tran0 27.312927 -16.833542 -1.951478
DOCKED: USER    NEWDPF quaternion0 0.443524 -0.256115 -0.630946 -0.582751
DOCKED: USER    NEWDPF axisangle0 0.545774 -0.315160 -0.776405 -108.711461
DOCKED: USER    NEWDPF quat0 0.545774 -0.315160 -0.776405 -108.711461
DOCKED: USER    NEWDPF dihe0 -179.90 110.07 51.13 -114.31 155.41 179.37 -179.56 175.51 
DOCKED: USER  keepresnum = 1 
DOCKED: USER  
DOCKED: REMARK  Name = 
DOCKED: REMARK  8 active torsions:
DOCKED: REMARK  status: ('A' for Active; 'I' for Inactive)
DOCKED: REMARK    1  A    between atoms: C_2  and  C_5
DOCKED: REMARK    2  A    between atoms: C_5  and  C_6
DOCKED: REMARK    3  A    between atoms: C_6  and  C_7
DOCKED: REMARK    4  A    between atoms: C_7  and  C_8
DOCKED: REMARK    5  A    between atoms: C_8  and  C_9
DOCKED: REMARK    6  A    between atoms: C_9  and  C_10
DOCKED: REMARK    7  A    between atoms: C_10  and  C_11
DOCKED: REMARK    8  A    between atoms: N_12  and  C_13
DOCKED: REMARK                            x       y       z     vdW  Elec       q    Type
DOCKED: REMARK                         _______ _______ _______ _____ _____    ______ ____
DOCKED: USER                              x       y       z     vdW  Elec       q    Type
DOCKED: USER                           _______ _______ _______ _____ _____    ______ ____
DOCKED: ROOT
DOCKED: ATOM      1  C   UNL     1      28.257 -16.719  -0.489 -0.33 -0.00    +0.000 C 
DOCKED: ENDROOT
DOCKED: BRANCH   1   2
DOCKED: ATOM      2  C   UNL     1      27.772 -15.339  -0.155 -0.30 -0.00    +0.000 C 
DOCKED: ATOM      3  N   UNL     1      27.978 -14.807   1.162 -0.27 -0.00    +0.000 N 
DOCKED: ATOM      4  O   UNL     1      27.179 -14.662  -1.039 -0.26 -0.00    +0.000 OA
DOCKED: ATOM      5  H   UNL     1      28.295 -15.421   1.863 -1.11 -0.00    +0.000 HD
DOCKED: BRANCH   3   6
DOCKED: ATOM      6  C   UNL     1      27.749 -13.434   1.523 -0.23 -0.00    +0.000 A 
DOCKED: ATOM      7  C   UNL     1      28.838 -12.562   1.655 -0.11 -0.00    +0.000 A 
DOCKED: ATOM      8  C   UNL     1      28.627 -11.221   1.985 -0.10 +0.00    +0.000 A 
DOCKED: ATOM      9  C   UNL     1      27.324 -10.758   2.161 -0.23 +0.00    +0.000 A 
DOCKED: ATOM     10  N   UNL     1      26.273 -11.606   2.003 -0.35 +0.00    +0.000 NA
DOCKED: ATOM     11  C   UNL     1      26.452 -12.918   1.689 -0.29 -0.00    +0.000 A 
DOCKED: ENDBRANCH   3   6
DOCKED: ENDBRANCH   1   2
DOCKED: BRANCH   1  12
DOCKED: ATOM     12  C   UNL     1      27.087 -17.712  -0.477 -0.50 -0.00    +0.000 C 
DOCKED: BRANCH  12  13
DOCKED: ATOM     13  C   UNL     1      25.741 -17.040  -0.153 -0.35 -0.00    +0.000 C 
DOCKED: BRANCH  13  14
DOCKED: ATOM     14  C   UNL     1      24.791 -16.908  -1.357 -0.65 -0.00    +0.000 C 
DOCKED: BRANCH  14  15
DOCKED: ATOM     15  C   UNL     1      24.029 -18.210  -1.656 -0.69 -0.00    +0.000 C 
DOCKED: BRANCH  15  16
DOCKED: ATOM     16  C   UNL     1      23.060 -18.591  -0.529 -0.83 -0.00    +0.000 C 
DOCKED: BRANCH  16  18
DOCKED: ATOM     17  O   UNL     1      20.872 -17.643  -0.713 -2.14 -0.00    +0.000 OA
DOCKED: ATOM     18  C   UNL     1      21.634 -18.606  -0.997 -0.82 -0.00    +0.000 C 
DOCKED: ATOM     19  N   UNL     1      21.128 -19.719  -1.738 -0.63 -0.00    +0.000 N 
DOCKED: ATOM     20  O   UNL     1      19.841 -19.735  -2.160 -2.29 -0.00    +0.000 OA
DOCKED: ATOM     21  H   UNL     1      21.719 -20.480  -1.944 -0.46 -0.00    +0.000 HD
DOCKED: ENDBRANCH  16  18
DOCKED: ENDBRANCH  15  16
DOCKED: ENDBRANCH  14  15
DOCKED: ENDBRANCH  13  14
DOCKED: ENDBRANCH  12  13
DOCKED: ENDBRANCH   1  12
DOCKED: TORSDOF 8
DOCKED: TER
DOCKED: ENDMDL
________________________________________________________________________________


	BEGINNING GENETIC ALGORITHM DOCKING 15 of 100
Run: 15 Seed: 1841168591 1171246296 [ Run 15 of 100 GA/GALS ]
Beginning LAMARCKIAN GENETIC ALGORITHM (LGA), with a maximum of 2500000 energy evaluations.

Final-Value: -12.628


	FINAL GENETIC ALGORITHM DOCKED STATE
	_______________________________________________


Detailed state:  trans 26.143 -16.952 -1.901 quatxyzw -0.115941 -0.384153 -0.673897 -0.620361 center -0.033 -0.045 -0.218 ntor 8 -84.9942 168.5185 -180.0000 26.2382 167.3562 153.3860 -56.7158 -142.2794
State:	 26.143 -16.952  -1.901  -0.148 -0.490 -0.859 -103.315    -84.99  168.52 -180.00   26.24  167.36  153.39  -56.72 -142.28

DOCKED: MODEL       15
DOCKED: USER    Run = 15
DOCKED: USER    DPF = ligand_dock.biased.dpf
DOCKED: USER  
DOCKED: USER    Estimated Free Energy of Binding    =   -9.35 kcal/mol  [=(1)+(2)+(3)-(4)]
DOCKED: USER    Estimated Inhibition Constant, Ki   =  140.41 nM (nanomolar)  [Temperature = 298.15 K]
DOCKED: USER    
DOCKED: USER    (1) Final Intermolecular Energy     =  -11.73 kcal/mol
DOCKED: USER        vdW + Hbond + desolv Energy     =  -11.73 kcal/mol
DOCKED: USER        Electrostatic Energy            =   +0.00 kcal/mol
DOCKED: USER    (2) Final Total Internal Energy     =   -0.89 kcal/mol
DOCKED: USER    (3) Torsional Free Energy           =   +2.39 kcal/mol
DOCKED: USER    (4) Unbound System's Energy  [=(2)] =   -0.89 kcal/mol
DOCKED: USER    
DOCKED: USER    
DOCKED: USER    NEWDPF move ligand.pdbqt
DOCKED: USER    NEWDPF about -0.033000 -0.045000 -0.218000
DOCKED: USER    NEWDPF tran0 26.143399 -16.952199 -1.900913
DOCKED: USER    NEWDPF quaternion0 -0.115941 -0.384153 -0.673897 -0.620361
DOCKED: USER    NEWDPF axisangle0 -0.147824 -0.489793 -0.859215 -103.315010
DOCKED: USER    NEWDPF quat0 -0.147824 -0.489793 -0.859215 -103.315010
DOCKED: USER    NEWDPF dihe0 -84.99 168.52 -180.00 26.24 167.36 153.39 -56.72 -142.28 
DOCKED: USER  keepresnum = 1 
DOCKED: USER  
DOCKED: REMARK  Name = 
DOCKED: REMARK  8 active torsions:
DOCKED: REMARK  status: ('A' for Active; 'I' for Inactive)
DOCKED: REMARK    1  A    between atoms: C_2  and  C_5
DOCKED: REMARK    2  A    between atoms: C_5  and  C_6
DOCKED: REMARK    3  A    between atoms: C_6  and  C_7
DOCKED: REMARK    4  A    between atoms: C_7  and  C_8
DOCKED: REMARK    5  A    between atoms: C_8  and  C_9
DOCKED: REMARK    6  A    between atoms: C_9  and  C_10
DOCKED: REMARK    7  A    between atoms: C_10  and  C_11
DOCKED: REMARK    8  A    between atoms: N_12  and  C_13
DOCKED: REMARK                            x       y       z     vdW  Elec       q    Type
DOCKED: REMARK                         _______ _______ _______ _____ _____    ______ ____
DOCKED: USER                              x       y       z     vdW  Elec       q    Type
DOCKED: USER                           _______ _______ _______ _____ _____    ______ ____
DOCKED: ROOT
DOCKED: ATOM      1  C   UNL     1      27.834 -16.617  -1.631 -0.37 -0.00    +0.000 C 
DOCKED: ENDROOT
DOCKED: BRANCH   1   2
DOCKED: ATOM      2  C   UNL     1      27.820 -15.345  -2.425 -0.27 -0.00    +0.000 C 
DOCKED: ATOM      3  N   UNL     1      27.716 -15.395  -3.857 -0.31 -0.00    +0.000 N 
DOCKED: ATOM      4  O   UNL     1      27.905 -14.239  -1.824 -0.17 -0.00    +0.000 OA
DOCKED: ATOM      5  H   UNL     1      27.815 -16.270  -4.296 -0.03 -0.00    +0.000 HD
DOCKED: BRANCH   3   6
DOCKED: ATOM      6  C   UNL     1      27.478 -14.248  -4.690 -0.32 -0.00    +0.000 A 
DOCKED: ATOM      7  C   UNL     1      26.512 -13.305  -4.313 -0.31 -0.00    +0.000 A 
DOCKED: ATOM      8  C   UNL     1      26.288 -12.176  -5.103 -0.22 -0.00    +0.000 A 
DOCKED: ATOM      9  C   UNL     1      27.047 -11.989  -6.258 -0.10 -0.00    +0.000 A 
DOCKED: ATOM     10  N   UNL     1      28.000 -12.895  -6.600 -0.23 -0.00    +0.000 NA
DOCKED: ATOM     11  C   UNL     1      28.234 -14.006  -5.851 -0.30 -0.00    +0.000 A 
DOCKED: ENDBRANCH   3   6
DOCKED: ENDBRANCH   1   2
DOCKED: BRANCH   1  12
DOCKED: ATOM     12  C   UNL     1      26.906 -16.496  -0.415 -0.46 -0.00    +0.000 C 
DOCKED: BRANCH  12  13
DOCKED: ATOM     13  C   UNL     1      25.566 -15.820  -0.756 -0.43 -0.00    +0.000 C 
DOCKED: BRANCH  13  14
DOCKED: ATOM     14  C   UNL     1      24.526 -16.759  -1.394 -0.64 -0.00    +0.000 C 
DOCKED: BRANCH  14  15
DOCKED: ATOM     15  C   UNL     1      23.590 -17.400  -0.355 -0.66 -0.00    +0.000 C 
DOCKED: BRANCH  15  16
DOCKED: ATOM     16  C   UNL     1      23.023 -18.744  -0.833 -0.82 -0.00    +0.000 C 
DOCKED: BRANCH  16  18
DOCKED: ATOM     17  O   UNL     1      20.901 -17.648  -0.711 -2.14 -0.00    +0.000 OA
DOCKED: ATOM     18  C   UNL     1      21.539 -18.680  -1.054 -0.81 -0.00    +0.000 C 
DOCKED: ATOM     19  N   UNL     1      20.845 -19.791  -1.624 -0.69 -0.00    +0.000 N 
DOCKED: ATOM     20  O   UNL     1      19.506 -19.734  -1.823 -2.14 -0.00    +0.000 OA
DOCKED: ATOM     21  H   UNL     1      21.342 -20.603  -1.875 -0.32 -0.00    +0.000 HD
DOCKED: ENDBRANCH  16  18
DOCKED: ENDBRANCH  15  16
DOCKED: ENDBRANCH  14  15
DOCKED: ENDBRANCH  13  14
DOCKED: ENDBRANCH  12  13
DOCKED: ENDBRANCH   1  12
DOCKED: TORSDOF 8
DOCKED: TER
DOCKED: ENDMDL
________________________________________________________________________________


	BEGINNING GENETIC ALGORITHM DOCKING 16 of 100
Run: 16 Seed: 2084993303 1942108274 [ Run 16 of 100 GA/GALS ]
Beginning LAMARCKIAN GENETIC ALGORITHM (LGA), with a maximum of 2500000 energy evaluations.

Final-Value: -12.664


	FINAL GENETIC ALGORITHM DOCKED STATE
	_______________________________________________


Detailed state:  trans 28.205 -16.052 -1.112 quatxyzw 0.546982 -0.615776 0.344721 -0.450331 center -0.033 -0.045 -0.218 ntor 8 149.7714 -23.7426 -180.0000 111.8894 -6.9651 -162.8321 -45.7658 39.1182
State:	 28.205 -16.052  -1.112   0.613 -0.690  0.386 -126.470    149.77  -23.74 -180.00  111.89   -6.97 -162.83  -45.77   39.12

DOCKED: MODEL       16
DOCKED: USER    Run = 16
DOCKED: USER    DPF = ligand_dock.biased.dpf
DOCKED: USER  
DOCKED: USER    Estimated Free Energy of Binding    =   -9.36 kcal/mol  [=(1)+(2)+(3)-(4)]
DOCKED: USER    Estimated Inhibition Constant, Ki   =  137.22 nM (nanomolar)  [Temperature = 298.15 K]
DOCKED: USER    
DOCKED: USER    (1) Final Intermolecular Energy     =  -11.75 kcal/mol
DOCKED: USER        vdW + Hbond + desolv Energy     =  -11.75 kcal/mol
DOCKED: USER        Electrostatic Energy            =   +0.00 kcal/mol
DOCKED: USER    (2) Final Total Internal Energy     =   -0.92 kcal/mol
DOCKED: USER    (3) Torsional Free Energy           =   +2.39 kcal/mol
DOCKED: USER    (4) Unbound System's Energy  [=(2)] =   -0.92 kcal/mol
DOCKED: USER    
DOCKED: USER    
DOCKED: USER    NEWDPF move ligand.pdbqt
DOCKED: USER    NEWDPF about -0.033000 -0.045000 -0.218000
DOCKED: USER    NEWDPF tran0 28.205361 -16.051782 -1.111859
DOCKED: USER    NEWDPF quaternion0 0.546982 -0.615776 0.344721 -0.450331
DOCKED: USER    NEWDPF axisangle0 0.612616 -0.689666 0.386086 -126.470157
DOCKED: USER    NEWDPF quat0 0.612616 -0.689666 0.386086 -126.470157
DOCKED: USER    NEWDPF dihe0 149.77 -23.74 -180.00 111.89 -6.97 -162.83 -45.77 39.12 
DOCKED: USER  keepresnum = 1 
DOCKED: USER  
DOCKED: REMARK  Name = 
DOCKED: REMARK  8 active torsions:
DOCKED: REMARK  status: ('A' for Active; 'I' for Inactive)
DOCKED: REMARK    1  A    between atoms: C_2  and  C_5
DOCKED: REMARK    2  A    between atoms: C_5  and  C_6
DOCKED: REMARK    3  A    between atoms: C_6  and  C_7
DOCKED: REMARK    4  A    between atoms: C_7  and  C_8
DOCKED: REMARK    5  A    between atoms: C_8  and  C_9
DOCKED: REMARK    6  A    between atoms: C_9  and  C_10
DOCKED: REMARK    7  A    between atoms: C_10  and  C_11
DOCKED: REMARK    8  A    between atoms: N_12  and  C_13
DOCKED: REMARK                            x       y       z     vdW  Elec       q    Type
DOCKED: REMARK                         _______ _______ _______ _____ _____    ______ ____
DOCKED: USER                              x       y       z     vdW  Elec       q    Type
DOCKED: USER                           _______ _______ _______ _____ _____    ______ ____
DOCKED: ROOT
DOCKED: ATOM      1  C   UNL     1      26.568 -15.496  -1.343 -0.39 -0.00    +0.000 C 
DOCKED: ENDROOT
DOCKED: BRANCH   1   2
DOCKED: ATOM      2  C   UNL     1      26.732 -15.289  -2.820 -0.40 -0.00    +0.000 C 
DOCKED: ATOM      3  N   UNL     1      27.704 -14.352  -3.308 -0.20 -0.00    +0.000 N 
DOCKED: ATOM      4  O   UNL     1      26.006 -15.940  -3.619 -0.57 -0.00    +0.000 OA
DOCKED: ATOM      5  H   UNL     1      28.132 -13.750  -2.657 +0.01 -0.00    +0.000 HD
DOCKED: BRANCH   3   6
DOCKED: ATOM      6  C   UNL     1      28.090 -14.234  -4.687 -0.25 -0.00    +0.000 A 
DOCKED: ATOM      7  C   UNL     1      27.980 -12.996  -5.335 -0.20 -0.00    +0.000 A 
DOCKED: ATOM      8  C   UNL     1      28.372 -12.865  -6.669 -0.22 -0.00    +0.000 A 
DOCKED: ATOM      9  C   UNL     1      28.891 -13.971  -7.340 -0.28 -0.00    +0.000 A 
DOCKED: ATOM     10  N   UNL     1      29.020 -15.160  -6.695 -0.39 -0.00    +0.000 NA
DOCKED: ATOM     11  C   UNL     1      28.639 -15.316  -5.398 -0.34 -0.00    +0.000 A 
DOCKED: ENDBRANCH   3   6
DOCKED: ENDBRANCH   1   2
DOCKED: BRANCH   1  12
DOCKED: ATOM     12  C   UNL     1      26.748 -16.978  -0.990 -0.51 -0.00    +0.000 C 
DOCKED: BRANCH  12  13
DOCKED: ATOM     13  C   UNL     1      25.680 -17.488  -0.006 -0.49 -0.00    +0.000 C 
DOCKED: BRANCH  13  14
DOCKED: ATOM     14  C   UNL     1      24.901 -18.722  -0.497 -0.51 -0.00    +0.000 C 
DOCKED: BRANCH  14  15
DOCKED: ATOM     15  C   UNL     1      23.757 -18.357  -1.459 -0.76 -0.00    +0.000 C 
DOCKED: BRANCH  15  16
DOCKED: ATOM     16  C   UNL     1      22.626 -17.595  -0.756 -0.77 -0.00    +0.000 C 
DOCKED: BRANCH  16  18
DOCKED: ATOM     17  O   UNL     1      20.265 -17.854  -1.039 -2.17 -0.00    +0.000 OA
DOCKED: ATOM     18  C   UNL     1      21.356 -18.395  -0.711 -0.83 -0.00    +0.000 C 
DOCKED: ATOM     19  N   UNL     1      21.373 -19.755  -0.271 -0.68 -0.00    +0.000 N 
DOCKED: ATOM     20  O   UNL     1      20.227 -20.476  -0.229 -1.27 -0.00    +0.000 OA
DOCKED: ATOM     21  H   UNL     1      22.222 -20.171   0.002 -0.52 -0.00    +0.000 HD
DOCKED: ENDBRANCH  16  18
DOCKED: ENDBRANCH  15  16
DOCKED: ENDBRANCH  14  15
DOCKED: ENDBRANCH  13  14
DOCKED: ENDBRANCH  12  13
DOCKED: ENDBRANCH   1  12
DOCKED: TORSDOF 8
DOCKED: TER
DOCKED: ENDMDL
________________________________________________________________________________


	BEGINNING GENETIC ALGORITHM DOCKING 17 of 100
Run: 17 Seed: 372924342 340581839 [ Run 17 of 100 GA/GALS ]
Beginning LAMARCKIAN GENETIC ALGORITHM (LGA), with a maximum of 2500000 energy evaluations.

Final-Value: -14.447


	FINAL GENETIC ALGORITHM DOCKED STATE
	_______________________________________________


Detailed state:  trans 25.892 -14.645 -0.124 quatxyzw -0.390108 -0.229722 0.736978 0.501903 center -0.033 -0.045 -0.218 ntor 8 178.1255 140.2397 109.9068 92.9606 -158.2166 -138.8272 -180.0000 -41.9231
State:	 25.892 -14.645  -0.124  -0.451 -0.266  0.852 119.748    178.13  140.24  109.91   92.96 -158.22 -138.83 -180.00  -41.92

DOCKED: MODEL       17
DOCKED: USER    Run = 17
DOCKED: USER    DPF = ligand_dock.biased.dpf
DOCKED: USER  
DOCKED: USER    Estimated Free Energy of Binding    =  -11.36 kcal/mol  [=(1)+(2)+(3)-(4)]
DOCKED: USER    Estimated Inhibition Constant, Ki   =    4.72 nM (nanomolar)  [Temperature = 298.15 K]
DOCKED: USER    
DOCKED: USER    (1) Final Intermolecular Energy     =  -13.75 kcal/mol
DOCKED: USER        vdW + Hbond + desolv Energy     =  -13.75 kcal/mol
DOCKED: USER        Electrostatic Energy            =   +0.00 kcal/mol
DOCKED: USER    (2) Final Total Internal Energy     =   -0.70 kcal/mol
DOCKED: USER    (3) Torsional Free Energy           =   +2.39 kcal/mol
DOCKED: USER    (4) Unbound System's Energy  [=(2)] =   -0.70 kcal/mol
DOCKED: USER    
DOCKED: USER    
DOCKED: USER    NEWDPF move ligand.pdbqt
DOCKED: USER    NEWDPF about -0.033000 -0.045000 -0.218000
DOCKED: USER    NEWDPF tran0 25.891762 -14.644687 -0.124066
DOCKED: USER    NEWDPF quaternion0 -0.390108 -0.229722 0.736978 0.501903
DOCKED: USER    NEWDPF axisangle0 -0.451031 -0.265598 0.852073 119.747984
DOCKED: USER    NEWDPF quat0 -0.451031 -0.265598 0.852073 119.747984
DOCKED: USER    NEWDPF dihe0 178.13 140.24 109.91 92.96 -158.22 -138.83 -180.00 -41.92 
DOCKED: USER  keepresnum = 1 
DOCKED: USER  
DOCKED: REMARK  Name = 
DOCKED: REMARK  8 active torsions:
DOCKED: REMARK  status: ('A' for Active; 'I' for Inactive)
DOCKED: REMARK    1  A    between atoms: C_2  and  C_5
DOCKED: REMARK    2  A    between atoms: C_5  and  C_6
DOCKED: REMARK    3  A    between atoms: C_6  and  C_7
DOCKED: REMARK    4  A    between atoms: C_7  and  C_8
DOCKED: REMARK    5  A    between atoms: C_8  and  C_9
DOCKED: REMARK    6  A    between atoms: C_9  and  C_10
DOCKED: REMARK    7  A    between atoms: C_10  and  C_11
DOCKED: REMARK    8  A    between atoms: N_12  and  C_13
DOCKED: REMARK                            x       y       z     vdW  Elec       q    Type
DOCKED: REMARK                         _______ _______ _______ _____ _____    ______ ____
DOCKED: USER                              x       y       z     vdW  Elec       q    Type
DOCKED: USER                           _______ _______ _______ _____ _____    ______ ____
DOCKED: ROOT
DOCKED: ATOM      1  C   UNL     1      27.571 -14.966   0.226 -0.30 -0.00    +0.000 C 
DOCKED: ENDROOT
DOCKED: BRANCH   1   2
DOCKED: ATOM      2  C   UNL     1      27.533 -14.289   1.564 -0.27 -0.00    +0.000 C 
DOCKED: ATOM      3  N   UNL     1      28.591 -14.511   2.509 -0.25 -0.00    +0.000 N 
DOCKED: ATOM      4  O   UNL     1      26.564 -13.533   1.847 -0.36 -0.00    +0.000 OA
DOCKED: ATOM      5  H   UNL     1      29.239 -15.227   2.316 -1.94 -0.00    +0.000 HD
DOCKED: BRANCH   3   6
DOCKED: ATOM      6  C   UNL     1      28.765 -13.755   3.719 -0.32 -0.00    +0.000 A 
DOCKED: ATOM      7  C   UNL     1      29.210 -12.428   3.650 -0.15 -0.00    +0.000 A 
DOCKED: ATOM      8  C   UNL     1      29.362 -11.678   4.817 -0.16 -0.00    +0.000 A 
DOCKED: ATOM      9  C   UNL     1      29.048 -12.256   6.047 -0.31 -0.00    +0.000 A 
DOCKED: ATOM     10  N   UNL     1      28.591 -13.535   6.101 -0.44 -0.00    +0.000 NA
DOCKED: ATOM     11  C   UNL     1      28.440 -14.289   4.979 -0.48 -0.00    +0.000 A 
DOCKED: ENDBRANCH   3   6
DOCKED: ENDBRANCH   1   2
DOCKED: BRANCH   1  12
DOCKED: ATOM     12  C   UNL     1      26.626 -16.176   0.215 -0.04 -0.00    +0.000 C 
DOCKED: BRANCH  12  13
DOCKED: ATOM     13  C   UNL     1      25.920 -16.365  -1.139 -0.53 -0.00    +0.000 C 
DOCKED: BRANCH  13  14
DOCKED: ATOM     14  C   UNL     1      25.598 -17.830  -1.488 -0.48 -0.00    +0.000 C 
DOCKED: BRANCH  14  15
DOCKED: ATOM     15  C   UNL     1      24.118 -18.041  -1.850 -0.61 -0.00    +0.000 C 
DOCKED: BRANCH  15  16
DOCKED: ATOM     16  C   UNL     1      23.249 -18.311  -0.614 -0.82 -0.00    +0.000 C 
DOCKED: BRANCH  16  18
DOCKED: ATOM     17  O   UNL     1      21.010 -17.478  -0.710 -2.07 -0.00    +0.000 OA
DOCKED: ATOM     18  C   UNL     1      21.795 -18.430  -0.967 -0.80 -0.00    +0.000 C 
DOCKED: ATOM     19  N   UNL     1      21.292 -19.626  -1.567 -0.64 -0.00    +0.000 N 
DOCKED: ATOM     20  O   UNL     1      19.980 -19.735  -1.885 -2.39 -0.00    +0.000 OA
DOCKED: ATOM     21  H   UNL     1      21.903 -20.376  -1.751 -0.40 -0.00    +0.000 HD
DOCKED: ENDBRANCH  16  18
DOCKED: ENDBRANCH  15  16
DOCKED: ENDBRANCH  14  15
DOCKED: ENDBRANCH  13  14
DOCKED: ENDBRANCH  12  13
DOCKED: ENDBRANCH   1  12
DOCKED: TORSDOF 8
DOCKED: TER
DOCKED: ENDMDL
________________________________________________________________________________


	BEGINNING GENETIC ALGORITHM DOCKING 18 of 100
Run: 18 Seed: 1537629484 632981772 [ Run 18 of 100 GA/GALS ]
Beginning LAMARCKIAN GENETIC ALGORITHM (LGA), with a maximum of 2500000 energy evaluations.

Final-Value: -12.991


	FINAL GENETIC ALGORITHM DOCKED STATE
	_______________________________________________


Detailed state:  trans 25.518 -16.056 -0.466 quatxyzw -0.493664 0.580974 -0.642964 -0.073232 center -0.033 -0.045 -0.218 ntor 8 -47.6064 166.8395 -171.4865 79.4752 -44.5079 128.4140 166.7818 -12.6407
State:	 25.518 -16.056  -0.466  -0.495  0.583 -0.645 -171.601    -47.61  166.84 -171.49   79.48  -44.51  128.41  166.78  -12.64

DOCKED: MODEL       18
DOCKED: USER    Run = 18
DOCKED: USER    DPF = ligand_dock.biased.dpf
DOCKED: USER  
DOCKED: USER    Estimated Free Energy of Binding    =   -9.88 kcal/mol  [=(1)+(2)+(3)-(4)]
DOCKED: USER    Estimated Inhibition Constant, Ki   =   56.97 nM (nanomolar)  [Temperature = 298.15 K]
DOCKED: USER    
DOCKED: USER    (1) Final Intermolecular Energy     =  -12.27 kcal/mol
DOCKED: USER        vdW + Hbond + desolv Energy     =  -12.27 kcal/mol
DOCKED: USER        Electrostatic Energy            =   +0.00 kcal/mol
DOCKED: USER    (2) Final Total Internal Energy     =   -0.72 kcal/mol
DOCKED: USER    (3) Torsional Free Energy           =   +2.39 kcal/mol
DOCKED: USER    (4) Unbound System's Energy  [=(2)] =   -0.72 kcal/mol
DOCKED: USER    
DOCKED: USER    
DOCKED: USER    NEWDPF move ligand.pdbqt
DOCKED: USER    NEWDPF about -0.033000 -0.045000 -0.218000
DOCKED: USER    NEWDPF tran0 25.518042 -16.055701 -0.465624
DOCKED: USER    NEWDPF quaternion0 -0.493664 0.580974 -0.642964 -0.073232
DOCKED: USER    NEWDPF axisangle0 -0.494993 0.582538 -0.644695 -171.600681
DOCKED: USER    NEWDPF quat0 -0.494993 0.582538 -0.644695 -171.600681
DOCKED: USER    NEWDPF dihe0 -47.61 166.84 -171.49 79.48 -44.51 128.41 166.78 -12.64 
DOCKED: USER  keepresnum = 1 
DOCKED: USER  
DOCKED: REMARK  Name = 
DOCKED: REMARK  8 active torsions:
DOCKED: REMARK  status: ('A' for Active; 'I' for Inactive)
DOCKED: REMARK    1  A    between atoms: C_2  and  C_5
DOCKED: REMARK    2  A    between atoms: C_5  and  C_6
DOCKED: REMARK    3  A    between atoms: C_6  and  C_7
DOCKED: REMARK    4  A    between atoms: C_7  and  C_8
DOCKED: REMARK    5  A    between atoms: C_8  and  C_9
DOCKED: REMARK    6  A    between atoms: C_9  and  C_10
DOCKED: REMARK    7  A    between atoms: C_10  and  C_11
DOCKED: REMARK    8  A    between atoms: N_12  and  C_13
DOCKED: REMARK                            x       y       z     vdW  Elec       q    Type
DOCKED: REMARK                         _______ _______ _______ _____ _____    ______ ____
DOCKED: USER                              x       y       z     vdW  Elec       q    Type
DOCKED: USER                           _______ _______ _______ _____ _____    ______ ____
DOCKED: ROOT
DOCKED: ATOM      1  C   UNL     1      24.823 -16.210  -2.059 -0.52 -0.00    +0.000 C 
DOCKED: ENDROOT
DOCKED: BRANCH   1   2
DOCKED: ATOM      2  C   UNL     1      25.882 -15.378  -2.719 -0.50 -0.00    +0.000 C 
DOCKED: ATOM      3  N   UNL     1      26.221 -15.610  -4.095 -0.54 -0.00    +0.000 N 
DOCKED: ATOM      4  O   UNL     1      26.470 -14.483  -2.053 -0.32 -0.00    +0.000 OA
DOCKED: ATOM      5  H   UNL     1      25.860 -16.416  -4.529 -0.05 -0.00    +0.000 HD
DOCKED: BRANCH   3   6
DOCKED: ATOM      6  C   UNL     1      27.056 -14.741  -4.879 -0.42 -0.00    +0.000 A 
DOCKED: ATOM      7  C   UNL     1      26.852 -13.355  -4.830 -0.28 -0.00    +0.000 A 
DOCKED: ATOM      8  C   UNL     1      27.670 -12.500  -5.571 -0.19 -0.00    +0.000 A 
DOCKED: ATOM      9  C   UNL     1      28.701 -13.037  -6.341 -0.21 -0.00    +0.000 A 
DOCKED: ATOM     10  N   UNL     1      28.907 -14.380  -6.360 -0.33 -0.00    +0.000 NA
DOCKED: ATOM     11  C   UNL     1      28.120 -15.236  -5.653 -0.37 -0.00    +0.000 A 
DOCKED: ENDBRANCH   3   6
DOCKED: ENDBRANCH   1   2
DOCKED: BRANCH   1  12
DOCKED: ATOM     12  C   UNL     1      25.443 -17.476  -1.452 -0.63 -0.00    +0.000 C 
DOCKED: BRANCH  12  13
DOCKED: ATOM     13  C   UNL     1      24.440 -18.283  -0.608 -0.76 -0.00    +0.000 C 
DOCKED: BRANCH  13  14
DOCKED: ATOM     14  C   UNL     1      23.163 -18.696  -1.362 -0.78 -0.00    +0.000 C 
DOCKED: BRANCH  14  15
DOCKED: ATOM     15  C   UNL     1      21.887 -18.117  -0.728 -0.83 -0.00    +0.000 C 
DOCKED: BRANCH  15  16
DOCKED: ATOM     16  C   UNL     1      21.148 -19.146   0.138 -0.72 -0.00    +0.000 C 
DOCKED: BRANCH  16  18
DOCKED: ATOM     17  O   UNL     1      19.875 -19.733  -1.799 -2.39 -0.00    +0.000 OA
DOCKED: ATOM     18  C   UNL     1      19.915 -19.668  -0.541 -0.84 -0.00    +0.000 C 
DOCKED: ATOM     19  N   UNL     1      18.778 -20.065   0.229 -0.74 -0.00    +0.000 N 
DOCKED: ATOM     20  O   UNL     1      17.665 -20.535  -0.382 -0.81 -0.00    +0.000 OA
DOCKED: ATOM     21  H   UNL     1      18.804 -19.996   1.211 -0.03 -0.00    +0.000 HD
DOCKED: ENDBRANCH  16  18
DOCKED: ENDBRANCH  15  16
DOCKED: ENDBRANCH  14  15
DOCKED: ENDBRANCH  13  14
DOCKED: ENDBRANCH  12  13
DOCKED: ENDBRANCH   1  12
DOCKED: TORSDOF 8
DOCKED: TER
DOCKED: ENDMDL
________________________________________________________________________________


	BEGINNING GENETIC ALGORITHM DOCKING 19 of 100
Run: 19 Seed: 294006032 757032654 [ Run 19 of 100 GA/GALS ]
Beginning LAMARCKIAN GENETIC ALGORITHM (LGA), with a maximum of 2500000 energy evaluations.

Final-Value: -12.786


	FINAL GENETIC ALGORITHM DOCKED STATE
	_______________________________________________


Detailed state:  trans 25.926 -17.939 -1.747 quatxyzw -0.014637 0.479883 0.618817 0.621743 center -0.033 -0.045 -0.218 ntor 8 -167.2660 -104.2816 -155.8667 4.3613 172.2322 -81.5121 14.1008 -61.5690
State:	 25.926 -17.939  -1.747  -0.019  0.613  0.790 103.113   -167.27 -104.28 -155.87    4.36  172.23  -81.51   14.10  -61.57

DOCKED: MODEL       19
DOCKED: USER    Run = 19
DOCKED: USER    DPF = ligand_dock.biased.dpf
DOCKED: USER  
DOCKED: USER    Estimated Free Energy of Binding    =   -9.51 kcal/mol  [=(1)+(2)+(3)-(4)]
DOCKED: USER    Estimated Inhibition Constant, Ki   =  107.69 nM (nanomolar)  [Temperature = 298.15 K]
DOCKED: USER    
DOCKED: USER    (1) Final Intermolecular Energy     =  -11.89 kcal/mol
DOCKED: USER        vdW + Hbond + desolv Energy     =  -11.89 kcal/mol
DOCKED: USER        Electrostatic Energy            =   +0.00 kcal/mol
DOCKED: USER    (2) Final Total Internal Energy     =   -0.89 kcal/mol
DOCKED: USER    (3) Torsional Free Energy           =   +2.39 kcal/mol
DOCKED: USER    (4) Unbound System's Energy  [=(2)] =   -0.89 kcal/mol
DOCKED: USER    
DOCKED: USER    
DOCKED: USER    NEWDPF move ligand.pdbqt
DOCKED: USER    NEWDPF about -0.033000 -0.045000 -0.218000
DOCKED: USER    NEWDPF tran0 25.925759 -17.939309 -1.747237
DOCKED: USER    NEWDPF quaternion0 -0.014637 0.479883 0.618817 0.621743
DOCKED: USER    NEWDPF axisangle0 -0.018688 0.612704 0.790091 103.113000
DOCKED: USER    NEWDPF quat0 -0.018688 0.612704 0.790091 103.113000
DOCKED: USER    NEWDPF dihe0 -167.27 -104.28 -155.87 4.36 172.23 -81.51 14.10 -61.57 
DOCKED: USER  keepresnum = 1 
DOCKED: USER  
DOCKED: REMARK  Name = 
DOCKED: REMARK  8 active torsions:
DOCKED: REMARK  status: ('A' for Active; 'I' for Inactive)
DOCKED: REMARK    1  A    between atoms: C_2  and  C_5
DOCKED: REMARK    2  A    between atoms: C_5  and  C_6
DOCKED: REMARK    3  A    between atoms: C_6  and  C_7
DOCKED: REMARK    4  A    between atoms: C_7  and  C_8
DOCKED: REMARK    5  A    between atoms: C_8  and  C_9
DOCKED: REMARK    6  A    between atoms: C_9  and  C_10
DOCKED: REMARK    7  A    between atoms: C_10  and  C_11
DOCKED: REMARK    8  A    between atoms: N_12  and  C_13
DOCKED: REMARK                            x       y       z     vdW  Elec       q    Type
DOCKED: REMARK                         _______ _______ _______ _____ _____    ______ ____
DOCKED: USER                              x       y       z     vdW  Elec       q    Type
DOCKED: USER                           _______ _______ _______ _____ _____    ______ ____
DOCKED: ROOT
DOCKED: ATOM      1  C   UNL     1      27.380 -17.292  -1.034 -0.46 -0.00    +0.000 C 
DOCKED: ENDROOT
DOCKED: BRANCH   1   2
DOCKED: ATOM      2  C   UNL     1      27.347 -16.032  -1.846 -0.35 -0.00    +0.000 C 
DOCKED: ATOM      3  N   UNL     1      26.304 -15.829  -2.812 -0.43 -0.00    +0.000 N 
DOCKED: ATOM      4  O   UNL     1      28.245 -15.162  -1.675 -0.19 -0.00    +0.000 OA
DOCKED: ATOM      5  H   UNL     1      25.722 -16.593  -3.029 -0.03 -0.00    +0.000 HD
DOCKED: BRANCH   3   6
DOCKED: ATOM      6  C   UNL     1      26.055 -14.582  -3.482 -0.44 -0.00    +0.000 A 
DOCKED: ATOM      7  C   UNL     1      27.131 -13.837  -3.982 -0.28 -0.00    +0.000 A 
DOCKED: ATOM      8  C   UNL     1      26.901 -12.635  -4.654 -0.24 -0.00    +0.000 A 
DOCKED: ATOM      9  C   UNL     1      25.590 -12.196  -4.838 -0.26 -0.00    +0.000 A 
DOCKED: ATOM     10  N   UNL     1      24.551 -12.940  -4.374 -0.45 -0.00    +0.000 NA
DOCKED: ATOM     11  C   UNL     1      24.750 -14.111  -3.711 -0.29 -0.00    +0.000 A 
DOCKED: ENDBRANCH   3   6
DOCKED: ENDBRANCH   1   2
DOCKED: BRANCH   1  12
DOCKED: ATOM     12  C   UNL     1      26.146 -17.372  -0.126 -0.53 -0.00    +0.000 C 
DOCKED: BRANCH  12  13
DOCKED: ATOM     13  C   UNL     1      25.332 -18.661  -0.343 -0.54 -0.00    +0.000 C 
DOCKED: BRANCH  13  14
DOCKED: ATOM     14  C   UNL     1      23.839 -18.537   0.011 -0.62 -0.00    +0.000 C 
DOCKED: BRANCH  14  15
DOCKED: ATOM     15  C   UNL     1      22.959 -18.267  -1.221 -0.77 -0.00    +0.000 C 
DOCKED: BRANCH  15  16
DOCKED: ATOM     16  C   UNL     1      21.488 -18.041  -0.848 -0.71 -0.00    +0.000 C 
DOCKED: BRANCH  16  18
DOCKED: ATOM     17  O   UNL     1      20.144 -19.734  -1.871 -2.37 -0.00    +0.000 OA
DOCKED: ATOM     18  C   UNL     1      20.711 -19.325  -0.822 -0.90 -0.00    +0.000 C 
DOCKED: ATOM     19  N   UNL     1      20.590 -20.072   0.391 -0.68 -0.00    +0.000 N 
DOCKED: ATOM     20  O   UNL     1      19.888 -21.230   0.415 -0.85 -0.00    +0.000 OA
DOCKED: ATOM     21  H   UNL     1      21.018 -19.743   1.214 -0.49 -0.00    +0.000 HD
DOCKED: ENDBRANCH  16  18
DOCKED: ENDBRANCH  15  16
DOCKED: ENDBRANCH  14  15
DOCKED: ENDBRANCH  13  14
DOCKED: ENDBRANCH  12  13
DOCKED: ENDBRANCH   1  12
DOCKED: TORSDOF 8
DOCKED: TER
DOCKED: ENDMDL
________________________________________________________________________________


	BEGINNING GENETIC ALGORITHM DOCKING 20 of 100
Run: 20 Seed: 1090341483 2081356368 [ Run 20 of 100 GA/GALS ]
Beginning LAMARCKIAN GENETIC ALGORITHM (LGA), with a maximum of 2500000 energy evaluations.

Final-Value: -13.118


	FINAL GENETIC ALGORITHM DOCKED STATE
	_______________________________________________


Detailed state:  trans 25.983 -15.771 -1.295 quatxyzw -0.556521 0.535951 -0.625552 0.108289 center -0.033 -0.045 -0.218 ntor 8 -176.4722 111.1796 169.5466 65.4657 64.4536 170.6608 30.6997 -44.5776
State:	 25.983 -15.771  -1.295  -0.560  0.539 -0.629 167.567   -176.47  111.18  169.55   65.47   64.45  170.66   30.70  -44.58

DOCKED: MODEL       20
DOCKED: USER    Run = 20
DOCKED: USER    DPF = ligand_dock.biased.dpf
DOCKED: USER  
DOCKED: USER    Estimated Free Energy of Binding    =   -9.86 kcal/mol  [=(1)+(2)+(3)-(4)]
DOCKED: USER    Estimated Inhibition Constant, Ki   =   58.86 nM (nanomolar)  [Temperature = 298.15 K]
DOCKED: USER    
DOCKED: USER    (1) Final Intermolecular Energy     =  -12.25 kcal/mol
DOCKED: USER        vdW + Hbond + desolv Energy     =  -12.25 kcal/mol
DOCKED: USER        Electrostatic Energy            =   +0.00 kcal/mol
DOCKED: USER    (2) Final Total Internal Energy     =   -0.87 kcal/mol
DOCKED: USER    (3) Torsional Free Energy           =   +2.39 kcal/mol
DOCKED: USER    (4) Unbound System's Energy  [=(2)] =   -0.87 kcal/mol
DOCKED: USER    
DOCKED: USER    
DOCKED: USER    NEWDPF move ligand.pdbqt
DOCKED: USER    NEWDPF about -0.033000 -0.045000 -0.218000
DOCKED: USER    NEWDPF tran0 25.982749 -15.770523 -1.295147
DOCKED: USER    NEWDPF quaternion0 -0.556521 0.535951 -0.625552 0.108289
DOCKED: USER    NEWDPF axisangle0 -0.559813 0.539121 -0.629252 167.566588
DOCKED: USER    NEWDPF quat0 -0.559813 0.539121 -0.629252 167.566588
DOCKED: USER    NEWDPF dihe0 -176.47 111.18 169.55 65.47 64.45 170.66 30.70 -44.58 
DOCKED: USER  keepresnum = 1 
DOCKED: USER  
DOCKED: REMARK  Name = 
DOCKED: REMARK  8 active torsions:
DOCKED: REMARK  status: ('A' for Active; 'I' for Inactive)
DOCKED: REMARK    1  A    between atoms: C_2  and  C_5
DOCKED: REMARK    2  A    between atoms: C_5  and  C_6
DOCKED: REMARK    3  A    between atoms: C_6  and  C_7
DOCKED: REMARK    4  A    between atoms: C_7  and  C_8
DOCKED: REMARK    5  A    between atoms: C_8  and  C_9
DOCKED: REMARK    6  A    between atoms: C_9  and  C_10
DOCKED: REMARK    7  A    between atoms: C_10  and  C_11
DOCKED: REMARK    8  A    between atoms: N_12  and  C_13
DOCKED: REMARK                            x       y       z     vdW  Elec       q    Type
DOCKED: REMARK                         _______ _______ _______ _____ _____    ______ ____
DOCKED: USER                              x       y       z     vdW  Elec       q    Type
DOCKED: USER                           _______ _______ _______ _____ _____    ______ ____
DOCKED: ROOT
DOCKED: ATOM      1  C   UNL     1      24.820 -16.145  -2.541 -0.29 -0.00    +0.000 C 
DOCKED: ENDROOT
DOCKED: BRANCH   1   2
DOCKED: ATOM      2  C   UNL     1      25.683 -15.628  -3.653 -0.56 -0.00    +0.000 C 
DOCKED: ATOM      3  N   UNL     1      27.081 -15.393  -3.424 -0.34 -0.00    +0.000 N 
DOCKED: ATOM      4  O   UNL     1      25.167 -15.400  -4.781 -0.79 -0.00    +0.000 OA
DOCKED: ATOM      5  H   UNL     1      27.409 -15.428  -2.497 +0.00 -0.00    +0.000 HD
DOCKED: BRANCH   3   6
DOCKED: ATOM      6  C   UNL     1      28.033 -15.109  -4.464 -0.32 -0.00    +0.000 A 
DOCKED: ATOM      7  C   UNL     1      28.878 -16.126  -4.928 -0.26 -0.00    +0.000 A 
DOCKED: ATOM      8  C   UNL     1      29.791 -15.867  -5.951 -0.30 -0.00    +0.000 A 
DOCKED: ATOM      9  C   UNL     1      29.839 -14.594  -6.518 -0.26 -0.00    +0.000 A 
DOCKED: ATOM     10  N   UNL     1      28.997 -13.622  -6.079 -0.21 -0.00    +0.000 NA
DOCKED: ATOM     11  C   UNL     1      28.102 -13.847  -5.079 -0.25 -0.00    +0.000 A 
DOCKED: ENDBRANCH   3   6
DOCKED: ENDBRANCH   1   2
DOCKED: BRANCH   1  12
DOCKED: ATOM     12  C   UNL     1      25.497 -17.337  -1.851 -0.56 -0.00    +0.000 C 
DOCKED: BRANCH  12  13
DOCKED: ATOM     13  C   UNL     1      25.307 -17.326  -0.324 -0.58 -0.00    +0.000 C 
DOCKED: BRANCH  13  14
DOCKED: ATOM     14  C   UNL     1      24.175 -18.239   0.182 -0.61 -0.00    +0.000 C 
DOCKED: BRANCH  14  15
DOCKED: ATOM     15  C   UNL     1      23.300 -18.785  -0.959 -0.81 -0.00    +0.000 C 
DOCKED: BRANCH  15  16
DOCKED: ATOM     16  C   UNL     1      21.860 -18.261  -0.891 -0.80 -0.00    +0.000 C 
DOCKED: BRANCH  16  18
DOCKED: ATOM     17  O   UNL     1      20.264 -19.729  -1.899 -2.35 -0.00    +0.000 OA
DOCKED: ATOM     18  C   UNL     1      20.858 -19.378  -0.844 -0.88 -0.00    +0.000 C 
DOCKED: ATOM     19  N   UNL     1      20.555 -20.026   0.394 -0.69 -0.00    +0.000 N 
DOCKED: ATOM     20  O   UNL     1      19.650 -21.033   0.437 -0.89 -0.00    +0.000 OA
DOCKED: ATOM     21  H   UNL     1      21.006 -19.739   1.220 -0.49 -0.00    +0.000 HD
DOCKED: ENDBRANCH  16  18
DOCKED: ENDBRANCH  15  16
DOCKED: ENDBRANCH  14  15
DOCKED: ENDBRANCH  13  14
DOCKED: ENDBRANCH  12  13
DOCKED: ENDBRANCH   1  12
DOCKED: TORSDOF 8
DOCKED: TER
DOCKED: ENDMDL
________________________________________________________________________________


	BEGINNING GENETIC ALGORITHM DOCKING 21 of 100
Run: 21 Seed: 745366574 1994047373 [ Run 21 of 100 GA/GALS ]
Beginning LAMARCKIAN GENETIC ALGORITHM (LGA), with a maximum of 2500000 energy evaluations.

Final-Value: -13.147


	FINAL GENETIC ALGORITHM DOCKED STATE
	_______________________________________________


Detailed state:  trans 29.018 -16.181 -1.700 quatxyzw 0.573249 -0.560113 -0.566437 -0.191854 center -0.033 -0.045 -0.218 ntor 8 -110.9355 -44.2877 155.1686 82.4641 -81.9426 -112.4983 -141.2368 67.4815
State:	 29.018 -16.181  -1.700   0.584 -0.571 -0.577 -157.878   -110.94  -44.29  155.17   82.46  -81.94 -112.50 -141.24   67.48

DOCKED: MODEL       21
DOCKED: USER    Run = 21
DOCKED: USER    DPF = ligand_dock.biased.dpf
DOCKED: USER  
DOCKED: USER    Estimated Free Energy of Binding    =  -10.09 kcal/mol  [=(1)+(2)+(3)-(4)]
DOCKED: USER    Estimated Inhibition Constant, Ki   =   40.28 nM (nanomolar)  [Temperature = 298.15 K]
DOCKED: USER    
DOCKED: USER    (1) Final Intermolecular Energy     =  -12.47 kcal/mol
DOCKED: USER        vdW + Hbond + desolv Energy     =  -12.47 kcal/mol
DOCKED: USER        Electrostatic Energy            =   +0.00 kcal/mol
DOCKED: USER    (2) Final Total Internal Energy     =   -0.67 kcal/mol
DOCKED: USER    (3) Torsional Free Energy           =   +2.39 kcal/mol
DOCKED: USER    (4) Unbound System's Energy  [=(2)] =   -0.67 kcal/mol
DOCKED: USER    
DOCKED: USER    
DOCKED: USER    NEWDPF move ligand.pdbqt
DOCKED: USER    NEWDPF about -0.033000 -0.045000 -0.218000
DOCKED: USER    NEWDPF tran0 29.018041 -16.181066 -1.699611
DOCKED: USER    NEWDPF quaternion0 0.573249 -0.560113 -0.566437 -0.191854
DOCKED: USER    NEWDPF axisangle0 0.584099 -0.570715 -0.577159 -157.878024
DOCKED: USER    NEWDPF quat0 0.584099 -0.570715 -0.577159 -157.878024
DOCKED: USER    NEWDPF dihe0 -110.94 -44.29 155.17 82.46 -81.94 -112.50 -141.24 67.48 
DOCKED: USER  keepresnum = 1 
DOCKED: USER  
DOCKED: REMARK  Name = 
DOCKED: REMARK  8 active torsions:
DOCKED: REMARK  status: ('A' for Active; 'I' for Inactive)
DOCKED: REMARK    1  A    between atoms: C_2  and  C_5
DOCKED: REMARK    2  A    between atoms: C_5  and  C_6
DOCKED: REMARK    3  A    between atoms: C_6  and  C_7
DOCKED: REMARK    4  A    between atoms: C_7  and  C_8
DOCKED: REMARK    5  A    between atoms: C_8  and  C_9
DOCKED: REMARK    6  A    between atoms: C_9  and  C_10
DOCKED: REMARK    7  A    between atoms: C_10  and  C_11
DOCKED: REMARK    8  A    between atoms: N_12  and  C_13
DOCKED: REMARK                            x       y       z     vdW  Elec       q    Type
DOCKED: REMARK                         _______ _______ _______ _____ _____    ______ ____
DOCKED: USER                              x       y       z     vdW  Elec       q    Type
DOCKED: USER                           _______ _______ _______ _____ _____    ______ ____
DOCKED: ROOT
DOCKED: ATOM      1  C   UNL     1      28.534 -16.378  -0.035 -0.16 -0.00    +0.000 C 
DOCKED: ENDROOT
DOCKED: BRANCH   1   2
DOCKED: ATOM      2  C   UNL     1      28.755 -14.936   0.313 -0.21 -0.00    +0.000 C 
DOCKED: ATOM      3  N   UNL     1      28.999 -14.557   1.676 -0.18 -0.00    +0.000 N 
DOCKED: ATOM      4  O   UNL     1      28.718 -14.067  -0.601 -0.12 -0.00    +0.000 OA
DOCKED: ATOM      5  H   UNL     1      28.860 -15.235   2.375 -1.90 -0.00    +0.000 HD
DOCKED: BRANCH   3   6
DOCKED: ATOM      6  C   UNL     1      29.432 -13.249   2.085 -0.13 -0.00    +0.000 A 
DOCKED: ATOM      7  C   UNL     1      28.512 -12.362   2.662 -0.16 -0.00    +0.000 A 
DOCKED: ATOM      8  C   UNL     1      28.926 -11.097   3.083 -0.11 +0.00    +0.000 A 
DOCKED: ATOM      9  C   UNL     1      30.265 -10.734   2.941 -0.03 -0.00    +0.000 A 
DOCKED: ATOM     10  N   UNL     1      31.154 -11.611   2.406 -0.02 -0.00    +0.000 NA
DOCKED: ATOM     11  C   UNL     1      30.776 -12.847   1.982 -0.05 -0.00    +0.000 A 
DOCKED: ENDBRANCH   3   6
DOCKED: ENDBRANCH   1   2
DOCKED: BRANCH   1  12
DOCKED: ATOM     12  C   UNL     1      27.430 -16.507  -1.093 -0.41 -0.00    +0.000 C 
DOCKED: BRANCH  12  13
DOCKED: ATOM     13  C   UNL     1      26.117 -17.067  -0.515 -0.57 -0.00    +0.000 C 
DOCKED: BRANCH  13  14
DOCKED: ATOM     14  C   UNL     1      24.949 -17.109  -1.518 -0.65 -0.00    +0.000 C 
DOCKED: BRANCH  14  15
DOCKED: ATOM     15  C   UNL     1      23.575 -17.112  -0.826 -0.69 -0.00    +0.000 C 
DOCKED: BRANCH  15  16
DOCKED: ATOM     16  C   UNL     1      22.991 -18.524  -0.697 -0.83 -0.00    +0.000 C 
DOCKED: BRANCH  16  18
DOCKED: ATOM     17  O   UNL     1      20.802 -17.561  -0.707 -2.12 +0.00    +0.000 OA
DOCKED: ATOM     18  C   UNL     1      21.521 -18.553  -1.003 -0.80 -0.00    +0.000 C 
DOCKED: ATOM     19  N   UNL     1      20.930 -19.709  -1.602 -0.74 -0.00    +0.000 N 
DOCKED: ATOM     20  O   UNL     1      19.604 -19.736  -1.877 -2.18 -0.00    +0.000 OA
DOCKED: ATOM     21  H   UNL     1      21.489 -20.490  -1.816 -0.40 -0.00    +0.000 HD
DOCKED: ENDBRANCH  16  18
DOCKED: ENDBRANCH  15  16
DOCKED: ENDBRANCH  14  15
DOCKED: ENDBRANCH  13  14
DOCKED: ENDBRANCH  12  13
DOCKED: ENDBRANCH   1  12
DOCKED: TORSDOF 8
DOCKED: TER
DOCKED: ENDMDL
________________________________________________________________________________


	BEGINNING GENETIC ALGORITHM DOCKING 22 of 100
Run: 22 Seed: 1716626453 1028281708 [ Run 22 of 100 GA/GALS ]
Beginning LAMARCKIAN GENETIC ALGORITHM (LGA), with a maximum of 2500000 energy evaluations.

Final-Value: -12.445


	FINAL GENETIC ALGORITHM DOCKED STATE
	_______________________________________________


Detailed state:  trans 27.611 -14.486 -2.299 quatxyzw 0.232109 0.094477 -0.906485 0.339831 center -0.033 -0.045 -0.218 ntor 8 179.6134 123.8928 12.3988 -67.1177 -155.3606 -11.1635 -38.7689 119.2224
State:	 27.611 -14.486  -2.299   0.247  0.100 -0.964 140.267    179.61  123.89   12.40  -67.12 -155.36  -11.16  -38.77  119.22

DOCKED: MODEL       22
DOCKED: USER    Run = 22
DOCKED: USER    DPF = ligand_dock.biased.dpf
DOCKED: USER  
DOCKED: USER    Estimated Free Energy of Binding    =   -9.22 kcal/mol  [=(1)+(2)+(3)-(4)]
DOCKED: USER    Estimated Inhibition Constant, Ki   =  175.65 nM (nanomolar)  [Temperature = 298.15 K]
DOCKED: USER    
DOCKED: USER    (1) Final Intermolecular Energy     =  -11.60 kcal/mol
DOCKED: USER        vdW + Hbond + desolv Energy     =  -11.60 kcal/mol
DOCKED: USER        Electrostatic Energy            =   +0.00 kcal/mol
DOCKED: USER    (2) Final Total Internal Energy     =   -0.84 kcal/mol
DOCKED: USER    (3) Torsional Free Energy           =   +2.39 kcal/mol
DOCKED: USER    (4) Unbound System's Energy  [=(2)] =   -0.84 kcal/mol
DOCKED: USER    
DOCKED: USER    
DOCKED: USER    NEWDPF move ligand.pdbqt
DOCKED: USER    NEWDPF about -0.033000 -0.045000 -0.218000
DOCKED: USER    NEWDPF tran0 27.611223 -14.485590 -2.298738
DOCKED: USER    NEWDPF quaternion0 0.232109 0.094477 -0.906485 0.339831
DOCKED: USER    NEWDPF axisangle0 0.246796 0.100455 -0.963847 140.266839
DOCKED: USER    NEWDPF quat0 0.246796 0.100455 -0.963847 140.266839
DOCKED: USER    NEWDPF dihe0 179.61 123.89 12.40 -67.12 -155.36 -11.16 -38.77 119.22 
DOCKED: USER  keepresnum = 1 
DOCKED: USER  
DOCKED: REMARK  Name = 
DOCKED: REMARK  8 active torsions:
DOCKED: REMARK  status: ('A' for Active; 'I' for Inactive)
DOCKED: REMARK    1  A    between atoms: C_2  and  C_5
DOCKED: REMARK    2  A    between atoms: C_5  and  C_6
DOCKED: REMARK    3  A    between atoms: C_6  and  C_7
DOCKED: REMARK    4  A    between atoms: C_7  and  C_8
DOCKED: REMARK    5  A    between atoms: C_8  and  C_9
DOCKED: REMARK    6  A    between atoms: C_9  and  C_10
DOCKED: REMARK    7  A    between atoms: C_10  and  C_11
DOCKED: REMARK    8  A    between atoms: N_12  and  C_13
DOCKED: REMARK                            x       y       z     vdW  Elec       q    Type
DOCKED: REMARK                         _______ _______ _______ _____ _____    ______ ____
DOCKED: USER                              x       y       z     vdW  Elec       q    Type
DOCKED: USER                           _______ _______ _______ _____ _____    ______ ____
DOCKED: ROOT
DOCKED: ATOM      1  C   UNL     1      26.993 -16.031  -2.822 -0.35 -0.00    +0.000 C 
DOCKED: ENDROOT
DOCKED: BRANCH   1   2
DOCKED: ATOM      2  C   UNL     1      27.933 -16.821  -1.961 -0.32 -0.00    +0.000 C 
DOCKED: ATOM      3  N   UNL     1      29.348 -16.593  -2.049 -0.22 -0.00    +0.000 N 
DOCKED: ATOM      4  O   UNL     1      27.467 -17.685  -1.169 -0.48 -0.00    +0.000 OA
DOCKED: ATOM      5  H   UNL     1      29.679 -16.033  -2.788 +0.00 -0.00    +0.000 HD
DOCKED: BRANCH   3   6
DOCKED: ATOM      6  C   UNL     1      30.311 -17.132  -1.129 -0.18 -0.00    +0.000 A 
DOCKED: ATOM      7  C   UNL     1      30.634 -16.419   0.033 -0.13 -0.00    +0.000 A 
DOCKED: ATOM      8  C   UNL     1      31.553 -16.942   0.945 -0.11 -0.00    +0.000 A 
DOCKED: ATOM      9  C   UNL     1      32.129 -18.188   0.696 -0.13 -0.00    +0.000 A 
DOCKED: ATOM     10  N   UNL     1      31.788 -18.884  -0.421 -0.15 -0.00    +0.000 NA
DOCKED: ATOM     11  C   UNL     1      30.901 -18.393  -1.327 -0.18 -0.00    +0.000 A 
DOCKED: ENDBRANCH   3   6
DOCKED: ENDBRANCH   1   2
DOCKED: BRANCH   1  12
DOCKED: ATOM     12  C   UNL     1      26.062 -15.177  -1.951 -0.43 -0.00    +0.000 C 
DOCKED: BRANCH  12  13
DOCKED: ATOM     13  C   UNL     1      25.289 -16.011  -0.913 -0.47 -0.00    +0.000 C 
DOCKED: BRANCH  13  14
DOCKED: ATOM     14  C   UNL     1      24.013 -16.677  -1.458 -0.52 -0.00    +0.000 C 
DOCKED: BRANCH  14  15
DOCKED: ATOM     15  C   UNL     1      23.940 -18.177  -1.124 -0.79 -0.00    +0.000 C 
DOCKED: BRANCH  15  16
DOCKED: ATOM     16  C   UNL     1      22.807 -18.501  -0.141 -0.79 -0.00    +0.000 C 
DOCKED: BRANCH  16  18
DOCKED: ATOM     17  O   UNL     1      20.673 -17.584  -0.707 -2.15 +0.00    +0.000 OA
DOCKED: ATOM     18  C   UNL     1      21.470 -18.552  -0.824 -0.84 -0.00    +0.000 C 
DOCKED: ATOM     19  N   UNL     1      21.088 -19.704  -1.580 -0.69 -0.00    +0.000 N 
DOCKED: ATOM     20  O   UNL     1      19.883 -19.751  -2.195 -2.32 -0.00    +0.000 OA
DOCKED: ATOM     21  H   UNL     1      21.705 -20.467  -1.655 -0.36 -0.00    +0.000 HD
DOCKED: ENDBRANCH  16  18
DOCKED: ENDBRANCH  15  16
DOCKED: ENDBRANCH  14  15
DOCKED: ENDBRANCH  13  14
DOCKED: ENDBRANCH  12  13
DOCKED: ENDBRANCH   1  12
DOCKED: TORSDOF 8
DOCKED: TER
DOCKED: ENDMDL
________________________________________________________________________________


	BEGINNING GENETIC ALGORITHM DOCKING 23 of 100
Run: 23 Seed: 1596738047 397053936 [ Run 23 of 100 GA/GALS ]
Beginning LAMARCKIAN GENETIC ALGORITHM (LGA), with a maximum of 2500000 energy evaluations.

Final-Value: -14.390


	FINAL GENETIC ALGORITHM DOCKED STATE
	_______________________________________________


Detailed state:  trans 27.175 -13.926 -1.197 quatxyzw 0.651529 -0.107227 -0.719524 -0.215167 center -0.033 -0.045 -0.218 ntor 8 -147.3781 160.5402 8.1767 -80.4076 -173.3954 -110.9615 -125.3464 93.4683
State:	 27.175 -13.926  -1.197   0.667 -0.110 -0.737 -155.149   -147.38  160.54    8.18  -80.41 -173.40 -110.96 -125.35   93.47

DOCKED: MODEL       23
DOCKED: USER    Run = 23
DOCKED: USER    DPF = ligand_dock.biased.dpf
DOCKED: USER  
DOCKED: USER    Estimated Free Energy of Binding    =  -11.24 kcal/mol  [=(1)+(2)+(3)-(4)]
DOCKED: USER    Estimated Inhibition Constant, Ki   =    5.77 nM (nanomolar)  [Temperature = 298.15 K]
DOCKED: USER    
DOCKED: USER    (1) Final Intermolecular Energy     =  -13.63 kcal/mol
DOCKED: USER        vdW + Hbond + desolv Energy     =  -13.63 kcal/mol
DOCKED: USER        Electrostatic Energy            =   +0.00 kcal/mol
DOCKED: USER    (2) Final Total Internal Energy     =   -0.76 kcal/mol
DOCKED: USER    (3) Torsional Free Energy           =   +2.39 kcal/mol
DOCKED: USER    (4) Unbound System's Energy  [=(2)] =   -0.76 kcal/mol
DOCKED: USER    
DOCKED: USER    
DOCKED: USER    NEWDPF move ligand.pdbqt
DOCKED: USER    NEWDPF about -0.033000 -0.045000 -0.218000
DOCKED: USER    NEWDPF tran0 27.174967 -13.925525 -1.197354
DOCKED: USER    NEWDPF quaternion0 0.651529 -0.107227 -0.719524 -0.215167
DOCKED: USER    NEWDPF axisangle0 0.667156 -0.109799 -0.736781 -155.149299
DOCKED: USER    NEWDPF quat0 0.667156 -0.109799 -0.736781 -155.149299
DOCKED: USER    NEWDPF dihe0 -147.38 160.54 8.18 -80.41 -173.40 -110.96 -125.35 93.47 
DOCKED: USER  keepresnum = 1 
DOCKED: USER  
DOCKED: REMARK  Name = 
DOCKED: REMARK  8 active torsions:
DOCKED: REMARK  status: ('A' for Active; 'I' for Inactive)
DOCKED: REMARK    1  A    between atoms: C_2  and  C_5
DOCKED: REMARK    2  A    between atoms: C_5  and  C_6
DOCKED: REMARK    3  A    between atoms: C_6  and  C_7
DOCKED: REMARK    4  A    between atoms: C_7  and  C_8
DOCKED: REMARK    5  A    between atoms: C_8  and  C_9
DOCKED: REMARK    6  A    between atoms: C_9  and  C_10
DOCKED: REMARK    7  A    between atoms: C_10  and  C_11
DOCKED: REMARK    8  A    between atoms: N_12  and  C_13
DOCKED: REMARK                            x       y       z     vdW  Elec       q    Type
DOCKED: REMARK                         _______ _______ _______ _____ _____    ______ ____
DOCKED: USER                              x       y       z     vdW  Elec       q    Type
DOCKED: USER                           _______ _______ _______ _____ _____    ______ ____
DOCKED: ROOT
DOCKED: ATOM      1  C   UNL     1      27.621 -15.210  -0.104 -0.30 -0.00    +0.000 C 
DOCKED: ENDROOT
DOCKED: BRANCH   1   2
DOCKED: ATOM      2  C   UNL     1      27.364 -14.395   1.129 -0.28 -0.00    +0.000 C 
DOCKED: ATOM      3  N   UNL     1      28.248 -14.503   2.256 -0.28 -0.00    +0.000 N 
DOCKED: ATOM      4  O   UNL     1      26.366 -13.625   1.164 -0.36 -0.00    +0.000 OA
DOCKED: ATOM      5  H   UNL     1      28.914 -15.228   2.252 -1.86 -0.00    +0.000 HD
DOCKED: BRANCH   3   6
DOCKED: ATOM      6  C   UNL     1      28.220 -13.621   3.391 -0.33 -0.00    +0.000 A 
DOCKED: ATOM      7  C   UNL     1      28.260 -12.235   3.193 -0.21 -0.00    +0.000 A 
DOCKED: ATOM      8  C   UNL     1      28.212 -11.368   4.286 -0.26 +0.00    +0.000 A 
DOCKED: ATOM      9  C   UNL     1      28.106 -11.896   5.572 -0.37 +0.00    +0.000 A 
DOCKED: ATOM     10  N   UNL     1      28.041 -13.242   5.752 -0.46 -0.00    +0.000 NA
DOCKED: ATOM     11  C   UNL     1      28.092 -14.108   4.704 -0.51 -0.00    +0.000 A 
DOCKED: ENDBRANCH   3   6
DOCKED: ENDBRANCH   1   2
DOCKED: BRANCH   1  12
DOCKED: ATOM     12  C   UNL     1      26.321 -15.401  -0.896 -0.40 -0.00    +0.000 C 
DOCKED: BRANCH  12  13
DOCKED: ATOM     13  C   UNL     1      25.443 -16.533  -0.332 -0.29 -0.00    +0.000 C 
DOCKED: BRANCH  13  14
DOCKED: ATOM     14  C   UNL     1      24.094 -16.709  -1.052 -0.59 -0.00    +0.000 C 
DOCKED: BRANCH  14  15
DOCKED: ATOM     15  C   UNL     1      24.012 -18.027  -1.842 -0.63 -0.00    +0.000 C 
DOCKED: BRANCH  15  16
DOCKED: ATOM     16  C   UNL     1      23.245 -19.116  -1.081 -0.79 -0.00    +0.000 C 
DOCKED: BRANCH  16  18
DOCKED: ATOM     17  O   UNL     1      21.286 -17.908  -0.431 -1.78 -0.00    +0.000 OA
DOCKED: ATOM     18  C   UNL     1      21.764 -18.870  -1.091 -0.82 -0.00    +0.000 C 
DOCKED: ATOM     19  N   UNL     1      20.892 -19.736  -1.821 -0.71 -0.00    +0.000 N 
DOCKED: ATOM     20  O   UNL     1      19.556 -19.515  -1.830 -1.89 -0.00    +0.000 OA
DOCKED: ATOM     21  H   UNL     1      21.264 -20.498  -2.321 -0.50 -0.00    +0.000 HD
DOCKED: ENDBRANCH  16  18
DOCKED: ENDBRANCH  15  16
DOCKED: ENDBRANCH  14  15
DOCKED: ENDBRANCH  13  14
DOCKED: ENDBRANCH  12  13
DOCKED: ENDBRANCH   1  12
DOCKED: TORSDOF 8
DOCKED: TER
DOCKED: ENDMDL
________________________________________________________________________________


	BEGINNING GENETIC ALGORITHM DOCKING 24 of 100
Run: 24 Seed: 256189529 723493059 [ Run 24 of 100 GA/GALS ]
Beginning LAMARCKIAN GENETIC ALGORITHM (LGA), with a maximum of 2500000 energy evaluations.

Final-Value: -12.595


	FINAL GENETIC ALGORITHM DOCKED STATE
	_______________________________________________


Detailed state:  trans 27.519 -17.273 -0.983 quatxyzw -0.055477 -0.881767 -0.245243 -0.399079 center -0.033 -0.045 -0.218 ntor 8 -98.0681 166.2098 163.1973 75.1844 -37.0486 -83.0400 7.2602 -89.7907
State:	 27.519 -17.273  -0.983  -0.061 -0.962 -0.267 -132.959    -98.07  166.21  163.20   75.18  -37.05  -83.04    7.26  -89.79

DOCKED: MODEL       24
DOCKED: USER    Run = 24
DOCKED: USER    DPF = ligand_dock.biased.dpf
DOCKED: USER  
DOCKED: USER    Estimated Free Energy of Binding    =   -9.41 kcal/mol  [=(1)+(2)+(3)-(4)]
DOCKED: USER    Estimated Inhibition Constant, Ki   =  127.32 nM (nanomolar)  [Temperature = 298.15 K]
DOCKED: USER    
DOCKED: USER    (1) Final Intermolecular Energy     =  -11.79 kcal/mol
DOCKED: USER        vdW + Hbond + desolv Energy     =  -11.79 kcal/mol
DOCKED: USER        Electrostatic Energy            =   +0.00 kcal/mol
DOCKED: USER    (2) Final Total Internal Energy     =   -0.80 kcal/mol
DOCKED: USER    (3) Torsional Free Energy           =   +2.39 kcal/mol
DOCKED: USER    (4) Unbound System's Energy  [=(2)] =   -0.80 kcal/mol
DOCKED: USER    
DOCKED: USER    
DOCKED: USER    NEWDPF move ligand.pdbqt
DOCKED: USER    NEWDPF about -0.033000 -0.045000 -0.218000
DOCKED: USER    NEWDPF tran0 27.519181 -17.273411 -0.983026
DOCKED: USER    NEWDPF quaternion0 -0.055477 -0.881767 -0.245243 -0.399079
DOCKED: USER    NEWDPF axisangle0 -0.060504 -0.961666 -0.267465 -132.958761
DOCKED: USER    NEWDPF quat0 -0.060504 -0.961666 -0.267465 -132.958761
DOCKED: USER    NEWDPF dihe0 -98.07 166.21 163.20 75.18 -37.05 -83.04 7.26 -89.79 
DOCKED: USER  keepresnum = 1 
DOCKED: USER  
DOCKED: REMARK  Name = 
DOCKED: REMARK  8 active torsions:
DOCKED: REMARK  status: ('A' for Active; 'I' for Inactive)
DOCKED: REMARK    1  A    between atoms: C_2  and  C_5
DOCKED: REMARK    2  A    between atoms: C_5  and  C_6
DOCKED: REMARK    3  A    between atoms: C_6  and  C_7
DOCKED: REMARK    4  A    between atoms: C_7  and  C_8
DOCKED: REMARK    5  A    between atoms: C_8  and  C_9
DOCKED: REMARK    6  A    between atoms: C_9  and  C_10
DOCKED: REMARK    7  A    between atoms: C_10  and  C_11
DOCKED: REMARK    8  A    between atoms: N_12  and  C_13
DOCKED: REMARK                            x       y       z     vdW  Elec       q    Type
DOCKED: REMARK                         _______ _______ _______ _____ _____    ______ ____
DOCKED: USER                              x       y       z     vdW  Elec       q    Type
DOCKED: USER                           _______ _______ _______ _____ _____    ______ ____
DOCKED: ROOT
DOCKED: ATOM      1  C   UNL     1      28.393 -15.824  -0.561 -0.27 -0.00    +0.000 C 
DOCKED: ENDROOT
DOCKED: BRANCH   1   2
DOCKED: ATOM      2  C   UNL     1      29.097 -15.734  -1.882 -0.19 -0.00    +0.000 C 
DOCKED: ATOM      3  N   UNL     1      28.987 -16.809  -2.827 -0.25 -0.00    +0.000 N 
DOCKED: ATOM      4  O   UNL     1      29.787 -14.712  -2.147 -0.08 -0.00    +0.000 OA
DOCKED: ATOM      5  H   UNL     1      28.578 -17.651  -2.522 -0.02 -0.00    +0.000 HD
DOCKED: BRANCH   3   6
DOCKED: ATOM      6  C   UNL     1      29.436 -16.736  -4.191 -0.21 -0.00    +0.000 A 
DOCKED: ATOM      7  C   UNL     1      29.123 -15.610  -4.964 -0.28 -0.00    +0.000 A 
DOCKED: ATOM      8  C   UNL     1      29.572 -15.517  -6.283 -0.33 -0.00    +0.000 A 
DOCKED: ATOM      9  C   UNL     1      30.349 -16.547  -6.814 -0.29 -0.00    +0.000 A 
DOCKED: ATOM     10  N   UNL     1      30.670 -17.622  -6.047 -0.30 -0.00    +0.000 NA
DOCKED: ATOM     11  C   UNL     1      30.240 -17.739  -4.761 -0.26 -0.00    +0.000 A 
DOCKED: ENDBRANCH   3   6
DOCKED: ENDBRANCH   1   2
DOCKED: BRANCH   1  12
DOCKED: ATOM     12  C   UNL     1      26.878 -15.681  -0.755 -0.38 -0.00    +0.000 C 
DOCKED: BRANCH  12  13
DOCKED: ATOM     13  C   UNL     1      26.161 -17.040  -0.848 -0.57 -0.00    +0.000 C 
DOCKED: BRANCH  13  14
DOCKED: ATOM     14  C   UNL     1      24.825 -17.003  -1.613 -0.65 -0.00    +0.000 C 
DOCKED: BRANCH  14  15
DOCKED: ATOM     15  C   UNL     1      23.612 -17.246  -0.699 -0.72 -0.00    +0.000 C 
DOCKED: BRANCH  15  16
DOCKED: ATOM     16  C   UNL     1      23.025 -18.653  -0.871 -0.82 -0.00    +0.000 C 
DOCKED: BRANCH  16  18
DOCKED: ATOM     17  O   UNL     1      20.881 -17.607  -0.712 -2.12 -0.00    +0.000 OA
DOCKED: ATOM     18  C   UNL     1      21.538 -18.619  -1.075 -0.80 -0.00    +0.000 C 
DOCKED: ATOM     19  N   UNL     1      20.862 -19.739  -1.652 -0.74 -0.00    +0.000 N 
DOCKED: ATOM     20  O   UNL     1      19.520 -19.710  -1.836 -2.11 -0.00    +0.000 OA
DOCKED: ATOM     21  H   UNL     1      21.374 -20.536  -1.918 -0.38 -0.00    +0.000 HD
DOCKED: ENDBRANCH  16  18
DOCKED: ENDBRANCH  15  16
DOCKED: ENDBRANCH  14  15
DOCKED: ENDBRANCH  13  14
DOCKED: ENDBRANCH  12  13
DOCKED: ENDBRANCH   1  12
DOCKED: TORSDOF 8
DOCKED: TER
DOCKED: ENDMDL
________________________________________________________________________________


	BEGINNING GENETIC ALGORITHM DOCKING 25 of 100
Run: 25 Seed: 266708553 830382310 [ Run 25 of 100 GA/GALS ]
Beginning LAMARCKIAN GENETIC ALGORITHM (LGA), with a maximum of 2500000 energy evaluations.

Final-Value: -13.496


	FINAL GENETIC ALGORITHM DOCKED STATE
	_______________________________________________


Detailed state:  trans 25.854 -16.056 -4.196 quatxyzw -0.300631 0.485319 0.375614 0.730069 center -0.033 -0.045 -0.218 ntor 8 -123.4529 85.2502 36.4237 -9.7279 91.0288 -106.3093 -110.6083 42.9542
State:	 25.854 -16.056  -4.196  -0.440  0.710  0.550 86.216   -123.45   85.25   36.42   -9.73   91.03 -106.31 -110.61   42.95

DOCKED: MODEL       25
DOCKED: USER    Run = 25
DOCKED: USER    DPF = ligand_dock.biased.dpf
DOCKED: USER  
DOCKED: USER    Estimated Free Energy of Binding    =  -10.37 kcal/mol  [=(1)+(2)+(3)-(4)]
DOCKED: USER    Estimated Inhibition Constant, Ki   =   24.86 nM (nanomolar)  [Temperature = 298.15 K]
DOCKED: USER    
DOCKED: USER    (1) Final Intermolecular Energy     =  -12.76 kcal/mol
DOCKED: USER        vdW + Hbond + desolv Energy     =  -12.76 kcal/mol
DOCKED: USER        Electrostatic Energy            =   +0.00 kcal/mol
DOCKED: USER    (2) Final Total Internal Energy     =   -0.74 kcal/mol
DOCKED: USER    (3) Torsional Free Energy           =   +2.39 kcal/mol
DOCKED: USER    (4) Unbound System's Energy  [=(2)] =   -0.74 kcal/mol
DOCKED: USER    
DOCKED: USER    
DOCKED: USER    NEWDPF move ligand.pdbqt
DOCKED: USER    NEWDPF about -0.033000 -0.045000 -0.218000
DOCKED: USER    NEWDPF tran0 25.854461 -16.056241 -4.196111
DOCKED: USER    NEWDPF quaternion0 -0.300631 0.485319 0.375614 0.730069
DOCKED: USER    NEWDPF axisangle0 -0.439922 0.710181 0.549647 86.215703
DOCKED: USER    NEWDPF quat0 -0.439922 0.710181 0.549647 86.215703
DOCKED: USER    NEWDPF dihe0 -123.45 85.25 36.42 -9.73 91.03 -106.31 -110.61 42.95 
DOCKED: USER  keepresnum = 1 
DOCKED: USER  
DOCKED: REMARK  Name = 
DOCKED: REMARK  8 active torsions:
DOCKED: REMARK  status: ('A' for Active; 'I' for Inactive)
DOCKED: REMARK    1  A    between atoms: C_2  and  C_5
DOCKED: REMARK    2  A    between atoms: C_5  and  C_6
DOCKED: REMARK    3  A    between atoms: C_6  and  C_7
DOCKED: REMARK    4  A    between atoms: C_7  and  C_8
DOCKED: REMARK    5  A    between atoms: C_8  and  C_9
DOCKED: REMARK    6  A    between atoms: C_9  and  C_10
DOCKED: REMARK    7  A    between atoms: C_10  and  C_11
DOCKED: REMARK    8  A    between atoms: N_12  and  C_13
DOCKED: REMARK                            x       y       z     vdW  Elec       q    Type
DOCKED: REMARK                         _______ _______ _______ _____ _____    ______ ____
DOCKED: USER                              x       y       z     vdW  Elec       q    Type
DOCKED: USER                           _______ _______ _______ _____ _____    ______ ____
DOCKED: ROOT
DOCKED: ATOM      1  C   UNL     1      26.311 -14.784  -3.093 -0.44 -0.00    +0.000 C 
DOCKED: ENDROOT
DOCKED: BRANCH   1   2
DOCKED: ATOM      2  C   UNL     1      25.607 -13.711  -3.869 -0.45 -0.00    +0.000 C 
DOCKED: ATOM      3  N   UNL     1      26.325 -12.539  -4.284 -0.29 -0.00    +0.000 N 
DOCKED: ATOM      4  O   UNL     1      24.384 -13.849  -4.144 -1.14 -0.00    +0.000 OA
DOCKED: ATOM      5  H   UNL     1      27.225 -12.395  -3.914 +0.00 -0.00    +0.000 HD
DOCKED: BRANCH   3   6
DOCKED: ATOM      6  C   UNL     1      25.812 -11.562  -5.206 -0.27 -0.00    +0.000 A 
DOCKED: ATOM      7  C   UNL     1      26.569 -11.204  -6.330 -0.17 -0.00    +0.000 A 
DOCKED: ATOM      8  C   UNL     1      26.072 -10.273  -7.243 -0.19 -0.00    +0.000 A 
DOCKED: ATOM      9  C   UNL     1      24.810  -9.717  -7.034 -0.30 -0.00    +0.000 A 
DOCKED: ATOM     10  N   UNL     1      24.072 -10.091  -5.955 -0.43 -0.00    +0.000 NA
DOCKED: ATOM     11  C   UNL     1      24.536 -10.992  -5.048 -0.35 -0.00    +0.000 A 
DOCKED: ENDBRANCH   3   6
DOCKED: ENDBRANCH   1   2
DOCKED: BRANCH   1  12
DOCKED: ATOM     12  C   UNL     1      25.300 -15.815  -2.574 -0.53 -0.00    +0.000 C 
DOCKED: BRANCH  12  13
DOCKED: ATOM     13  C   UNL     1      25.492 -16.134  -1.080 -0.53 -0.00    +0.000 C 
DOCKED: BRANCH  13  14
DOCKED: ATOM     14  C   UNL     1      24.521 -17.195  -0.528 -0.61 -0.00    +0.000 C 
DOCKED: BRANCH  14  15
DOCKED: ATOM     15  C   UNL     1      23.833 -18.004  -1.640 -0.68 -0.00    +0.000 C 
DOCKED: BRANCH  15  16
DOCKED: ATOM     16  C   UNL     1      23.057 -19.208  -1.089 -0.77 -0.00    +0.000 C 
DOCKED: BRANCH  16  18
DOCKED: ATOM     17  O   UNL     1      21.144 -17.862  -0.595 -1.98 -0.00    +0.000 OA
DOCKED: ATOM     18  C   UNL     1      21.578 -18.954  -1.052 -0.84 -0.00    +0.000 C 
DOCKED: ATOM     19  N   UNL     1      20.661 -19.952  -1.505 -0.67 -0.00    +0.000 N 
DOCKED: ATOM     20  O   UNL     1      19.327 -19.724  -1.470 -1.83 -0.00    +0.000 OA
DOCKED: ATOM     21  H   UNL     1      21.001 -20.811  -1.845 -0.28 -0.00    +0.000 HD
DOCKED: ENDBRANCH  16  18
DOCKED: ENDBRANCH  15  16
DOCKED: ENDBRANCH  14  15
DOCKED: ENDBRANCH  13  14
DOCKED: ENDBRANCH  12  13
DOCKED: ENDBRANCH   1  12
DOCKED: TORSDOF 8
DOCKED: TER
DOCKED: ENDMDL
________________________________________________________________________________


	BEGINNING GENETIC ALGORITHM DOCKING 26 of 100
Run: 26 Seed: 1954491508 1132385976 [ Run 26 of 100 GA/GALS ]
Beginning LAMARCKIAN GENETIC ALGORITHM (LGA), with a maximum of 2500000 energy evaluations.

Final-Value: -14.722


	FINAL GENETIC ALGORITHM DOCKED STATE
	_______________________________________________


Detailed state:  trans 25.719 -14.812 -0.753 quatxyzw -0.402180 -0.124737 0.740105 0.524343 center -0.033 -0.045 -0.218 ntor 8 -160.5545 172.5603 -176.1389 62.6474 90.7899 -74.3479 172.0824 -7.2490
State:	 25.719 -14.812  -0.753  -0.472 -0.146  0.869 116.752   -160.55  172.56 -176.14   62.65   90.79  -74.35  172.08   -7.25

DOCKED: MODEL       26
DOCKED: USER    Run = 26
DOCKED: USER    DPF = ligand_dock.biased.dpf
DOCKED: USER  
DOCKED: USER    Estimated Free Energy of Binding    =  -11.57 kcal/mol  [=(1)+(2)+(3)-(4)]
DOCKED: USER    Estimated Inhibition Constant, Ki   =    3.28 nM (nanomolar)  [Temperature = 298.15 K]
DOCKED: USER    
DOCKED: USER    (1) Final Intermolecular Energy     =  -13.96 kcal/mol
DOCKED: USER        vdW + Hbond + desolv Energy     =  -13.96 kcal/mol
DOCKED: USER        Electrostatic Energy            =   +0.00 kcal/mol
DOCKED: USER    (2) Final Total Internal Energy     =   -0.76 kcal/mol
DOCKED: USER    (3) Torsional Free Energy           =   +2.39 kcal/mol
DOCKED: USER    (4) Unbound System's Energy  [=(2)] =   -0.76 kcal/mol
DOCKED: USER    
DOCKED: USER    
DOCKED: USER    NEWDPF move ligand.pdbqt
DOCKED: USER    NEWDPF about -0.033000 -0.045000 -0.218000
DOCKED: USER    NEWDPF tran0 25.718970 -14.811651 -0.752612
DOCKED: USER    NEWDPF quaternion0 -0.402180 -0.124737 0.740105 0.524343
DOCKED: USER    NEWDPF axisangle0 -0.472316 -0.146489 0.869171 116.751892
DOCKED: USER    NEWDPF quat0 -0.472316 -0.146489 0.869171 116.751892
DOCKED: USER    NEWDPF dihe0 -160.55 172.56 -176.14 62.65 90.79 -74.35 172.08 -7.25 
DOCKED: USER  keepresnum = 1 
DOCKED: USER  
DOCKED: REMARK  Name = 
DOCKED: REMARK  8 active torsions:
DOCKED: REMARK  status: ('A' for Active; 'I' for Inactive)
DOCKED: REMARK    1  A    between atoms: C_2  and  C_5
DOCKED: REMARK    2  A    between atoms: C_5  and  C_6
DOCKED: REMARK    3  A    between atoms: C_6  and  C_7
DOCKED: REMARK    4  A    between atoms: C_7  and  C_8
DOCKED: REMARK    5  A    between atoms: C_8  and  C_9
DOCKED: REMARK    6  A    between atoms: C_9  and  C_10
DOCKED: REMARK    7  A    between atoms: C_10  and  C_11
DOCKED: REMARK    8  A    between atoms: N_12  and  C_13
DOCKED: REMARK                            x       y       z     vdW  Elec       q    Type
DOCKED: REMARK                         _______ _______ _______ _____ _____    ______ ____
DOCKED: USER                              x       y       z     vdW  Elec       q    Type
DOCKED: USER                           _______ _______ _______ _____ _____    ______ ____
DOCKED: ROOT
DOCKED: ATOM      1  C   UNL     1      27.315 -15.149  -0.133 -0.32 -0.00    +0.000 C 
DOCKED: ENDROOT
DOCKED: BRANCH   1   2
DOCKED: ATOM      2  C   UNL     1      27.156 -14.260   1.064 -0.24 -0.00    +0.000 C 
DOCKED: ATOM      3  N   UNL     1      27.957 -14.484   2.234 -0.31 -0.00    +0.000 N 
DOCKED: ATOM      4  O   UNL     1      26.310 -13.325   1.032 -0.40 -0.00    +0.000 OA
DOCKED: ATOM      5  H   UNL     1      28.483 -15.315   2.281 -1.55 -0.00    +0.000 HD
DOCKED: BRANCH   3   6
DOCKED: ATOM      6  C   UNL     1      28.040 -13.574   3.343 -0.34 -0.00    +0.000 A 
DOCKED: ATOM      7  C   UNL     1      28.082 -12.193   3.105 -0.22 -0.00    +0.000 A 
DOCKED: ATOM      8  C   UNL     1      28.140 -11.298   4.175 -0.26 +0.00    +0.000 A 
DOCKED: ATOM      9  C   UNL     1      28.138 -11.791   5.479 -0.36 +0.00    +0.000 A 
DOCKED: ATOM     10  N   UNL     1      28.070 -13.130   5.700 -0.46 -0.00    +0.000 NA
DOCKED: ATOM     11  C   UNL     1      28.018 -14.024   4.675 -0.51 -0.00    +0.000 A 
DOCKED: ENDBRANCH   3   6
DOCKED: ENDBRANCH   1   2
DOCKED: BRANCH   1  12
DOCKED: ATOM     12  C   UNL     1      26.300 -16.298  -0.082 -0.22 -0.00    +0.000 C 
DOCKED: BRANCH  12  13
DOCKED: ATOM     13  C   UNL     1      26.384 -17.221  -1.311 -0.53 -0.00    +0.000 C 
DOCKED: BRANCH  13  14
DOCKED: ATOM     14  C   UNL     1      25.035 -17.816  -1.753 -0.54 -0.00    +0.000 C 
DOCKED: BRANCH  14  15
DOCKED: ATOM     15  C   UNL     1      23.833 -17.077  -1.140 -0.68 -0.00    +0.000 C 
DOCKED: BRANCH  15  16
DOCKED: ATOM     16  C   UNL     1      22.991 -17.985  -0.233 -0.78 -0.00    +0.000 C 
DOCKED: BRANCH  16  18
DOCKED: ATOM     17  O   UNL     1      20.704 -17.489  -0.724 -2.08 +0.00    +0.000 OA
DOCKED: ATOM     18  C   UNL     1      21.657 -18.305  -0.842 -0.81 -0.00    +0.000 C 
DOCKED: ATOM     19  N   UNL     1      21.455 -19.541  -1.532 -0.64 -0.00    +0.000 N 
DOCKED: ATOM     20  O   UNL     1      20.252 -19.832  -2.081 -2.32 -0.00    +0.000 OA
DOCKED: ATOM     21  H   UNL     1      22.196 -20.186  -1.608 -0.39 -0.00    +0.000 HD
DOCKED: ENDBRANCH  16  18
DOCKED: ENDBRANCH  15  16
DOCKED: ENDBRANCH  14  15
DOCKED: ENDBRANCH  13  14
DOCKED: ENDBRANCH  12  13
DOCKED: ENDBRANCH   1  12
DOCKED: TORSDOF 8
DOCKED: TER
DOCKED: ENDMDL
________________________________________________________________________________


	BEGINNING GENETIC ALGORITHM DOCKING 27 of 100
Run: 27 Seed: 511736002 1274638487 [ Run 27 of 100 GA/GALS ]
Beginning LAMARCKIAN GENETIC ALGORITHM (LGA), with a maximum of 2500000 energy evaluations.

Final-Value: -13.649


	FINAL GENETIC ALGORITHM DOCKED STATE
	_______________________________________________


Detailed state:  trans 28.458 -18.308 0.231 quatxyzw -0.403529 0.827243 -0.163944 0.354904 center -0.033 -0.045 -0.218 ntor 8 -157.4315 -102.0388 146.4335 -179.8463 -98.0009 109.7998 124.6928 71.8240
State:	 28.458 -18.308   0.231  -0.432  0.885 -0.175 138.425   -157.43 -102.04  146.43 -179.85  -98.00  109.80  124.69   71.82

DOCKED: MODEL       27
DOCKED: USER    Run = 27
DOCKED: USER    DPF = ligand_dock.biased.dpf
DOCKED: USER  
DOCKED: USER    Estimated Free Energy of Binding    =  -10.35 kcal/mol  [=(1)+(2)+(3)-(4)]
DOCKED: USER    Estimated Inhibition Constant, Ki   =   25.93 nM (nanomolar)  [Temperature = 298.15 K]
DOCKED: USER    
DOCKED: USER    (1) Final Intermolecular Energy     =  -12.74 kcal/mol
DOCKED: USER        vdW + Hbond + desolv Energy     =  -12.74 kcal/mol
DOCKED: USER        Electrostatic Energy            =   +0.00 kcal/mol
DOCKED: USER    (2) Final Total Internal Energy     =   -0.91 kcal/mol
DOCKED: USER    (3) Torsional Free Energy           =   +2.39 kcal/mol
DOCKED: USER    (4) Unbound System's Energy  [=(2)] =   -0.91 kcal/mol
DOCKED: USER    
DOCKED: USER    
DOCKED: USER    NEWDPF move ligand.pdbqt
DOCKED: USER    NEWDPF about -0.033000 -0.045000 -0.218000
DOCKED: USER    NEWDPF tran0 28.458275 -18.308175 0.230824
DOCKED: USER    NEWDPF quaternion0 -0.403529 0.827243 -0.163944 0.354904
DOCKED: USER    NEWDPF axisangle0 -0.431626 0.884843 -0.175359 138.424935
DOCKED: USER    NEWDPF quat0 -0.431626 0.884843 -0.175359 138.424935
DOCKED: USER    NEWDPF dihe0 -157.43 -102.04 146.43 -179.85 -98.00 109.80 124.69 71.82 
DOCKED: USER  keepresnum = 1 
DOCKED: USER  
DOCKED: REMARK  Name = 
DOCKED: REMARK  8 active torsions:
DOCKED: REMARK  status: ('A' for Active; 'I' for Inactive)
DOCKED: REMARK    1  A    between atoms: C_2  and  C_5
DOCKED: REMARK    2  A    between atoms: C_5  and  C_6
DOCKED: REMARK    3  A    between atoms: C_6  and  C_7
DOCKED: REMARK    4  A    between atoms: C_7  and  C_8
DOCKED: REMARK    5  A    between atoms: C_8  and  C_9
DOCKED: REMARK    6  A    between atoms: C_9  and  C_10
DOCKED: REMARK    7  A    between atoms: C_10  and  C_11
DOCKED: REMARK    8  A    between atoms: N_12  and  C_13
DOCKED: REMARK                            x       y       z     vdW  Elec       q    Type
DOCKED: REMARK                         _______ _______ _______ _____ _____    ______ ____
DOCKED: USER                              x       y       z     vdW  Elec       q    Type
DOCKED: USER                           _______ _______ _______ _____ _____    ______ ____
DOCKED: ROOT
DOCKED: ATOM      1  C   UNL     1      27.377 -16.951   0.046 -0.38 -0.00    +0.000 C 
DOCKED: ENDROOT
DOCKED: BRANCH   1   2
DOCKED: ATOM      2  C   UNL     1      28.028 -16.465  -1.214 -0.35 -0.00    +0.000 C 
DOCKED: ATOM      3  N   UNL     1      27.341 -16.588  -2.469 -0.31 -0.00    +0.000 N 
DOCKED: ATOM      4  O   UNL     1      29.181 -15.957  -1.158 -0.20 -0.00    +0.000 OA
DOCKED: ATOM      5  H   UNL     1      26.521 -17.132  -2.494 -0.03 -0.00    +0.000 HD
DOCKED: BRANCH   3   6
DOCKED: ATOM      6  C   UNL     1      27.774 -15.968  -3.691 -0.17 -0.00    +0.000 A 
DOCKED: ATOM      7  C   UNL     1      29.123 -16.039  -4.064 -0.24 -0.00    +0.000 A 
DOCKED: ATOM      8  C   UNL     1      29.552 -15.459  -5.260 -0.26 -0.00    +0.000 A 
DOCKED: ATOM      9  C   UNL     1      28.622 -14.827  -6.084 -0.36 -0.00    +0.000 A 
DOCKED: ATOM     10  N   UNL     1      27.311 -14.787  -5.726 -0.66 +0.00    +0.000 NA
DOCKED: ATOM     11  C   UNL     1      26.869 -15.339  -4.564 -0.44 -0.00    +0.000 A 
DOCKED: ENDBRANCH   3   6
DOCKED: ENDBRANCH   1   2
DOCKED: BRANCH   1  12
DOCKED: ATOM     12  C   UNL     1      26.774 -18.346  -0.170 -0.48 -0.00    +0.000 C 
DOCKED: BRANCH  12  13
DOCKED: ATOM     13  C   UNL     1      25.246 -18.311  -0.350 -0.69 -0.00    +0.000 C 
DOCKED: BRANCH  13  14
DOCKED: ATOM     14  C   UNL     1      24.729 -17.105  -1.156 -0.67 -0.00    +0.000 C 
DOCKED: BRANCH  14  15
DOCKED: ATOM     15  C   UNL     1      23.194 -17.011  -1.161 -0.50 -0.00    +0.000 C 
DOCKED: BRANCH  15  16
DOCKED: ATOM     16  C   UNL     1      22.538 -18.142  -0.358 -0.83 -0.00    +0.000 C 
DOCKED: BRANCH  16  18
DOCKED: ATOM     17  O   UNL     1      20.189 -17.865  -0.710 -2.15 +0.00    +0.000 OA
DOCKED: ATOM     18  C   UNL     1      21.218 -18.554  -0.944 -0.80 -0.00    +0.000 C 
DOCKED: ATOM     19  N   UNL     1      21.118 -19.735  -1.742 -0.63 -0.00    +0.000 N 
DOCKED: ATOM     20  O   UNL     1      19.928 -20.108  -2.270 -2.14 -0.00    +0.000 OA
DOCKED: ATOM     21  H   UNL     1      21.919 -20.282  -1.910 -0.46 -0.00    +0.000 HD
DOCKED: ENDBRANCH  16  18
DOCKED: ENDBRANCH  15  16
DOCKED: ENDBRANCH  14  15
DOCKED: ENDBRANCH  13  14
DOCKED: ENDBRANCH  12  13
DOCKED: ENDBRANCH   1  12
DOCKED: TORSDOF 8
DOCKED: TER
DOCKED: ENDMDL
________________________________________________________________________________


	BEGINNING GENETIC ALGORITHM DOCKING 28 of 100
Run: 28 Seed: 2061762325 1180494158 [ Run 28 of 100 GA/GALS ]
Beginning LAMARCKIAN GENETIC ALGORITHM (LGA), with a maximum of 2500000 energy evaluations.

Final-Value: -14.165


	FINAL GENETIC ALGORITHM DOCKED STATE
	_______________________________________________


Detailed state:  trans 25.612 -15.310 0.060 quatxyzw 0.195149 0.351521 -0.683675 -0.609048 center -0.033 -0.045 -0.218 ntor 8 -169.8424 165.3900 171.5835 24.8386 175.0008 -63.1649 129.0129 -30.4305
State:	 25.612 -15.310   0.060   0.246  0.443 -0.862 -104.959   -169.84  165.39  171.58   24.84  175.00  -63.16  129.01  -30.43

DOCKED: MODEL       28
DOCKED: USER    Run = 28
DOCKED: USER    DPF = ligand_dock.biased.dpf
DOCKED: USER  
DOCKED: USER    Estimated Free Energy of Binding    =  -11.03 kcal/mol  [=(1)+(2)+(3)-(4)]
DOCKED: USER    Estimated Inhibition Constant, Ki   =    8.22 nM (nanomolar)  [Temperature = 298.15 K]
DOCKED: USER    
DOCKED: USER    (1) Final Intermolecular Energy     =  -13.42 kcal/mol
DOCKED: USER        vdW + Hbond + desolv Energy     =  -13.42 kcal/mol
DOCKED: USER        Electrostatic Energy            =   +0.00 kcal/mol
DOCKED: USER    (2) Final Total Internal Energy     =   -0.75 kcal/mol
DOCKED: USER    (3) Torsional Free Energy           =   +2.39 kcal/mol
DOCKED: USER    (4) Unbound System's Energy  [=(2)] =   -0.75 kcal/mol
DOCKED: USER    
DOCKED: USER    
DOCKED: USER    NEWDPF move ligand.pdbqt
DOCKED: USER    NEWDPF about -0.033000 -0.045000 -0.218000
DOCKED: USER    NEWDPF tran0 25.612012 -15.309697 0.059536
DOCKED: USER    NEWDPF quaternion0 0.195149 0.351521 -0.683675 -0.609048
DOCKED: USER    NEWDPF axisangle0 0.246048 0.443205 -0.861992 -104.958638
DOCKED: USER    NEWDPF quat0 0.246048 0.443205 -0.861992 -104.958638
DOCKED: USER    NEWDPF dihe0 -169.84 165.39 171.58 24.84 175.00 -63.16 129.01 -30.43 
DOCKED: USER  keepresnum = 1 
DOCKED: USER  
DOCKED: REMARK  Name = 
DOCKED: REMARK  8 active torsions:
DOCKED: REMARK  status: ('A' for Active; 'I' for Inactive)
DOCKED: REMARK    1  A    between atoms: C_2  and  C_5
DOCKED: REMARK    2  A    between atoms: C_5  and  C_6
DOCKED: REMARK    3  A    between atoms: C_6  and  C_7
DOCKED: REMARK    4  A    between atoms: C_7  and  C_8
DOCKED: REMARK    5  A    between atoms: C_8  and  C_9
DOCKED: REMARK    6  A    between atoms: C_9  and  C_10
DOCKED: REMARK    7  A    between atoms: C_10  and  C_11
DOCKED: REMARK    8  A    between atoms: N_12  and  C_13
DOCKED: REMARK                            x       y       z     vdW  Elec       q    Type
DOCKED: REMARK                         _______ _______ _______ _____ _____    ______ ____
DOCKED: USER                              x       y       z     vdW  Elec       q    Type
DOCKED: USER                           _______ _______ _______ _____ _____    ______ ____
DOCKED: ROOT
DOCKED: ATOM      1  C   UNL     1      27.303 -14.935  -0.148 -0.31 -0.00    +0.000 C 
DOCKED: ENDROOT
DOCKED: BRANCH   1   2
DOCKED: ATOM      2  C   UNL     1      27.396 -14.145   1.123 -0.30 -0.00    +0.000 C 
DOCKED: ATOM      3  N   UNL     1      28.204 -14.627   2.208 -0.23 -0.00    +0.000 N 
DOCKED: ATOM      4  O   UNL     1      26.755 -13.064   1.227 -0.35 -0.00    +0.000 OA
DOCKED: ATOM      5  H   UNL     1      28.554 -15.544   2.150 -1.48 -0.00    +0.000 HD
DOCKED: BRANCH   3   6
DOCKED: ATOM      6  C   UNL     1      28.532 -13.854   3.375 -0.32 -0.00    +0.000 A 
DOCKED: ATOM      7  C   UNL     1      28.981 -12.535   3.230 -0.16 -0.00    +0.000 A 
DOCKED: ATOM      8  C   UNL     1      29.282 -11.768   4.356 -0.15 -0.00    +0.000 A 
DOCKED: ATOM      9  C   UNL     1      29.113 -12.322   5.625 -0.28 -0.00    +0.000 A 
DOCKED: ATOM     10  N   UNL     1      28.651 -13.593   5.756 -0.44 -0.00    +0.000 NA
DOCKED: ATOM     11  C   UNL     1      28.357 -14.363   4.674 -0.50 -0.00    +0.000 A 
DOCKED: ENDBRANCH   3   6
DOCKED: ENDBRANCH   1   2
DOCKED: BRANCH   1  12
DOCKED: ATOM     12  C   UNL     1      26.955 -16.398   0.158 -0.31 -0.00    +0.000 C 
DOCKED: BRANCH  12  13
DOCKED: ATOM     13  C   UNL     1      26.259 -17.102  -1.020 -0.56 -0.00    +0.000 C 
DOCKED: BRANCH  13  14
DOCKED: ATOM     14  C   UNL     1      25.037 -17.949  -0.622 -0.71 -0.00    +0.000 C 
DOCKED: BRANCH  14  15
DOCKED: ATOM     15  C   UNL     1      23.704 -17.227  -0.885 -0.71 -0.00    +0.000 C 
DOCKED: BRANCH  15  16
DOCKED: ATOM     16  C   UNL     1      22.574 -17.742   0.016 -0.66 -0.00    +0.000 C 
DOCKED: BRANCH  16  18
DOCKED: ATOM     17  O   UNL     1      20.460 -17.499  -1.075 -2.07 -0.00    +0.000 OA
DOCKED: ATOM     18  C   UNL     1      21.416 -18.267  -0.782 -0.80 -0.00    +0.000 C 
DOCKED: ATOM     19  N   UNL     1      21.379 -19.638  -1.187 -0.69 -0.00    +0.000 N 
DOCKED: ATOM     20  O   UNL     1      20.333 -20.112  -1.905 -2.23 -0.00    +0.000 OA
DOCKED: ATOM     21  H   UNL     1      22.117 -20.241  -0.942 -0.16 -0.00    +0.000 HD
DOCKED: ENDBRANCH  16  18
DOCKED: ENDBRANCH  15  16
DOCKED: ENDBRANCH  14  15
DOCKED: ENDBRANCH  13  14
DOCKED: ENDBRANCH  12  13
DOCKED: ENDBRANCH   1  12
DOCKED: TORSDOF 8
DOCKED: TER
DOCKED: ENDMDL
________________________________________________________________________________


	BEGINNING GENETIC ALGORITHM DOCKING 29 of 100
Run: 29 Seed: 216413062 1829842373 [ Run 29 of 100 GA/GALS ]
Beginning LAMARCKIAN GENETIC ALGORITHM (LGA), with a maximum of 2500000 energy evaluations.

Final-Value: -14.627


	FINAL GENETIC ALGORITHM DOCKED STATE
	_______________________________________________


Detailed state:  trans 26.622 -15.131 -1.059 quatxyzw 0.517097 -0.003841 -0.704620 -0.485908 center -0.033 -0.045 -0.218 ntor 8 -176.1125 163.2658 56.3808 -119.3056 144.2013 -147.4231 -157.9776 -123.4010
State:	 26.622 -15.131  -1.059   0.592 -0.004 -0.806 -121.856   -176.11  163.27   56.38 -119.31  144.20 -147.42 -157.98 -123.40

DOCKED: MODEL       29
DOCKED: USER    Run = 29
DOCKED: USER    DPF = ligand_dock.biased.dpf
DOCKED: USER  
DOCKED: USER    Estimated Free Energy of Binding    =  -11.51 kcal/mol  [=(1)+(2)+(3)-(4)]
DOCKED: USER    Estimated Inhibition Constant, Ki   =    3.63 nM (nanomolar)  [Temperature = 298.15 K]
DOCKED: USER    
DOCKED: USER    (1) Final Intermolecular Energy     =  -13.90 kcal/mol
DOCKED: USER        vdW + Hbond + desolv Energy     =  -13.90 kcal/mol
DOCKED: USER        Electrostatic Energy            =   +0.00 kcal/mol
DOCKED: USER    (2) Final Total Internal Energy     =   -0.73 kcal/mol
DOCKED: USER    (3) Torsional Free Energy           =   +2.39 kcal/mol
DOCKED: USER    (4) Unbound System's Energy  [=(2)] =   -0.73 kcal/mol
DOCKED: USER    
DOCKED: USER    
DOCKED: USER    NEWDPF move ligand.pdbqt
DOCKED: USER    NEWDPF about -0.033000 -0.045000 -0.218000
DOCKED: USER    NEWDPF tran0 26.621578 -15.131159 -1.059225
DOCKED: USER    NEWDPF quaternion0 0.517097 -0.003841 -0.704620 -0.485908
DOCKED: USER    NEWDPF axisangle0 0.591638 -0.004394 -0.806192 -121.856102
DOCKED: USER    NEWDPF quat0 0.591638 -0.004394 -0.806192 -121.856102
DOCKED: USER    NEWDPF dihe0 -176.11 163.27 56.38 -119.31 144.20 -147.42 -157.98 -123.40 
DOCKED: USER  keepresnum = 1 
DOCKED: USER  
DOCKED: REMARK  Name = 
DOCKED: REMARK  8 active torsions:
DOCKED: REMARK  status: ('A' for Active; 'I' for Inactive)
DOCKED: REMARK    1  A    between atoms: C_2  and  C_5
DOCKED: REMARK    2  A    between atoms: C_5  and  C_6
DOCKED: REMARK    3  A    between atoms: C_6  and  C_7
DOCKED: REMARK    4  A    between atoms: C_7  and  C_8
DOCKED: REMARK    5  A    between atoms: C_8  and  C_9
DOCKED: REMARK    6  A    between atoms: C_9  and  C_10
DOCKED: REMARK    7  A    between atoms: C_10  and  C_11
DOCKED: REMARK    8  A    between atoms: N_12  and  C_13
DOCKED: REMARK                            x       y       z     vdW  Elec       q    Type
DOCKED: REMARK                         _______ _______ _______ _____ _____    ______ ____
DOCKED: USER                              x       y       z     vdW  Elec       q    Type
DOCKED: USER                           _______ _______ _______ _____ _____    ______ ____
DOCKED: ROOT
DOCKED: ATOM      1  C   UNL     1      27.867 -15.661   0.041 -0.31 -0.00    +0.000 C 
DOCKED: ENDROOT
DOCKED: BRANCH   1   2
DOCKED: ATOM      2  C   UNL     1      27.476 -14.695   1.120 -0.25 -0.00    +0.000 C 
DOCKED: ATOM      3  N   UNL     1      28.289 -14.569   2.297 -0.24 -0.00    +0.000 N 
DOCKED: ATOM      4  O   UNL     1      26.430 -14.006   0.982 -0.28 -0.00    +0.000 OA
DOCKED: ATOM      5  H   UNL     1      29.000 -15.235   2.440 -1.95 -0.00    +0.000 HD
DOCKED: BRANCH   3   6
DOCKED: ATOM      6  C   UNL     1      28.129 -13.534   3.282 -0.32 -0.00    +0.000 A 
DOCKED: ATOM      7  C   UNL     1      28.032 -12.197   2.873 -0.21 -0.00    +0.000 A 
DOCKED: ATOM      8  C   UNL     1      27.855 -11.186   3.818 -0.27 +0.00    +0.000 A 
DOCKED: ATOM      9  C   UNL     1      27.756 -11.522   5.168 -0.35 +0.00    +0.000 A 
DOCKED: ATOM     10  N   UNL     1      27.823 -12.824   5.552 -0.47 -0.00    +0.000 NA
DOCKED: ATOM     11  C   UNL     1      28.002 -13.827   4.651 -0.49 -0.00    +0.000 A 
DOCKED: ENDBRANCH   3   6
DOCKED: ENDBRANCH   1   2
DOCKED: BRANCH   1  12
DOCKED: ATOM     12  C   UNL     1      26.724 -16.648  -0.230 -0.46 -0.00    +0.000 C 
DOCKED: BRANCH  12  13
DOCKED: ATOM     13  C   UNL     1      25.446 -15.952  -0.733 -0.44 -0.00    +0.000 C 
DOCKED: BRANCH  13  14
DOCKED: ATOM     14  C   UNL     1      24.701 -16.716  -1.842 -0.62 -0.00    +0.000 C 
DOCKED: BRANCH  14  15
DOCKED: ATOM     15  C   UNL     1      24.046 -18.012  -1.332 -0.76 -0.00    +0.000 C 
DOCKED: BRANCH  15  16
DOCKED: ATOM     16  C   UNL     1      23.006 -17.746  -0.235 -0.73 -0.00    +0.000 C 
DOCKED: BRANCH  16  18
DOCKED: ATOM     17  O   UNL     1      20.780 -17.522  -1.078 -2.05 -0.00    +0.000 OA
DOCKED: ATOM     18  C   UNL     1      21.656 -18.291  -0.600 -0.83 -0.00    +0.000 C 
DOCKED: ATOM     19  N   UNL     1      21.350 -19.671  -0.381 -0.72 -0.00    +0.000 N 
DOCKED: ATOM     20  O   UNL     1      20.131 -20.163  -0.708 -1.63 -0.00    +0.000 OA
DOCKED: ATOM     21  H   UNL     1      22.029 -20.267   0.010 -0.53 -0.00    +0.000 HD
DOCKED: ENDBRANCH  16  18
DOCKED: ENDBRANCH  15  16
DOCKED: ENDBRANCH  14  15
DOCKED: ENDBRANCH  13  14
DOCKED: ENDBRANCH  12  13
DOCKED: ENDBRANCH   1  12
DOCKED: TORSDOF 8
DOCKED: TER
DOCKED: ENDMDL
________________________________________________________________________________


	BEGINNING GENETIC ALGORITHM DOCKING 30 of 100
Run: 30 Seed: 1541823190 484246843 [ Run 30 of 100 GA/GALS ]
Beginning LAMARCKIAN GENETIC ALGORITHM (LGA), with a maximum of 2500000 energy evaluations.

Final-Value: -12.933


	FINAL GENETIC ALGORITHM DOCKED STATE
	_______________________________________________


Detailed state:  trans 24.570 -15.669 -3.786 quatxyzw -0.127289 -0.257824 -0.745260 -0.601591 center -0.033 -0.045 -0.218 ntor 8 -28.4844 168.6697 176.6285 161.4268 -116.7125 -134.0405 34.0949 -29.2380
State:	 24.570 -15.669  -3.786  -0.159 -0.323 -0.933 -106.032    -28.48  168.67  176.63  161.43 -116.71 -134.04   34.09  -29.24

DOCKED: MODEL       30
DOCKED: USER    Run = 30
DOCKED: USER    DPF = ligand_dock.biased.dpf
DOCKED: USER  
DOCKED: USER    Estimated Free Energy of Binding    =   -9.77 kcal/mol  [=(1)+(2)+(3)-(4)]
DOCKED: USER    Estimated Inhibition Constant, Ki   =   69.18 nM (nanomolar)  [Temperature = 298.15 K]
DOCKED: USER    
DOCKED: USER    (1) Final Intermolecular Energy     =  -12.15 kcal/mol
DOCKED: USER        vdW + Hbond + desolv Energy     =  -12.15 kcal/mol
DOCKED: USER        Electrostatic Energy            =   +0.00 kcal/mol
DOCKED: USER    (2) Final Total Internal Energy     =   -0.78 kcal/mol
DOCKED: USER    (3) Torsional Free Energy           =   +2.39 kcal/mol
DOCKED: USER    (4) Unbound System's Energy  [=(2)] =   -0.78 kcal/mol
DOCKED: USER    
DOCKED: USER    
DOCKED: USER    NEWDPF move ligand.pdbqt
DOCKED: USER    NEWDPF about -0.033000 -0.045000 -0.218000
DOCKED: USER    NEWDPF tran0 24.569578 -15.668638 -3.786358
DOCKED: USER    NEWDPF quaternion0 -0.127289 -0.257824 -0.745260 -0.601591
DOCKED: USER    NEWDPF axisangle0 -0.159349 -0.322762 -0.932970 -106.032105
DOCKED: USER    NEWDPF quat0 -0.159349 -0.322762 -0.932970 -106.032105
DOCKED: USER    NEWDPF dihe0 -28.48 168.67 176.63 161.43 -116.71 -134.04 34.09 -29.24 
DOCKED: USER  keepresnum = 1 
DOCKED: USER  
DOCKED: REMARK  Name = 
DOCKED: REMARK  8 active torsions:
DOCKED: REMARK  status: ('A' for Active; 'I' for Inactive)
DOCKED: REMARK    1  A    between atoms: C_2  and  C_5
DOCKED: REMARK    2  A    between atoms: C_5  and  C_6
DOCKED: REMARK    3  A    between atoms: C_6  and  C_7
DOCKED: REMARK    4  A    between atoms: C_7  and  C_8
DOCKED: REMARK    5  A    between atoms: C_8  and  C_9
DOCKED: REMARK    6  A    between atoms: C_9  and  C_10
DOCKED: REMARK    7  A    between atoms: C_10  and  C_11
DOCKED: REMARK    8  A    between atoms: N_12  and  C_13
DOCKED: REMARK                            x       y       z     vdW  Elec       q    Type
DOCKED: REMARK                         _______ _______ _______ _____ _____    ______ ____
DOCKED: USER                              x       y       z     vdW  Elec       q    Type
DOCKED: USER                           _______ _______ _______ _____ _____    ______ ____
DOCKED: ROOT
DOCKED: ATOM      1  C   UNL     1      26.313 -15.632  -3.723 -0.51 -0.00    +0.000 C 
DOCKED: ENDROOT
DOCKED: BRANCH   1   2
DOCKED: ATOM      2  C   UNL     1      26.410 -14.228  -4.243 -0.46 -0.00    +0.000 C 
DOCKED: ATOM      3  N   UNL     1      25.265 -13.364  -4.189 -0.46 -0.00    +0.000 N 
DOCKED: ATOM      4  O   UNL     1      27.501 -13.824  -4.730 -0.29 -0.00    +0.000 OA
DOCKED: ATOM      5  H   UNL     1      24.396 -13.763  -3.955 -0.14 -0.00    +0.000 HD
DOCKED: BRANCH   3   6
DOCKED: ATOM      6  C   UNL     1      25.305 -11.952  -4.458 -0.27 -0.00    +0.000 A 
DOCKED: ATOM      7  C   UNL     1      26.344 -11.175  -3.928 -0.17 -0.00    +0.000 A 
DOCKED: ATOM      8  C   UNL     1      26.406  -9.807  -4.199 -0.15 -0.00    +0.000 A 
DOCKED: ATOM      9  C   UNL     1      25.436  -9.228  -5.017 -0.21 -0.00    +0.000 A 
DOCKED: ATOM     10  N   UNL     1      24.448  -9.996  -5.548 -0.38 -0.00    +0.000 NA
DOCKED: ATOM     11  C   UNL     1      24.362 -11.329  -5.294 -0.27 -0.00    +0.000 A 
DOCKED: ENDBRANCH   3   6
DOCKED: ENDBRANCH   1   2
DOCKED: BRANCH   1  12
DOCKED: ATOM     12  C   UNL     1      25.575 -15.650  -2.377 -0.53 -0.00    +0.000 C 
DOCKED: BRANCH  12  13
DOCKED: ATOM     13  C   UNL     1      24.932 -17.014  -2.072 -0.60 -0.00    +0.000 C 
DOCKED: BRANCH  13  14
DOCKED: ATOM     14  C   UNL     1      24.750 -17.309  -0.571 -0.64 -0.00    +0.000 C 
DOCKED: BRANCH  14  15
DOCKED: ATOM     15  C   UNL     1      23.860 -18.537  -0.313 -0.75 -0.00    +0.000 C 
DOCKED: BRANCH  15  16
DOCKED: ATOM     16  C   UNL     1      23.004 -18.904  -1.533 -0.72 -0.00    +0.000 C 
DOCKED: BRANCH  16  18
DOCKED: ATOM     17  O   UNL     1      21.094 -17.725  -0.709 -2.05 -0.00    +0.000 OA
DOCKED: ATOM     18  C   UNL     1      21.536 -18.775  -1.247 -0.67 -0.00    +0.000 C 
DOCKED: ATOM     19  N   UNL     1      20.643 -19.848  -1.556 -0.74 -0.00    +0.000 N 
DOCKED: ATOM     20  O   UNL     1      19.318 -19.734  -1.297 -1.80 -0.00    +0.000 OA
DOCKED: ATOM     21  H   UNL     1      20.992 -20.675  -1.960 -0.35 -0.00    +0.000 HD
DOCKED: ENDBRANCH  16  18
DOCKED: ENDBRANCH  15  16
DOCKED: ENDBRANCH  14  15
DOCKED: ENDBRANCH  13  14
DOCKED: ENDBRANCH  12  13
DOCKED: ENDBRANCH   1  12
DOCKED: TORSDOF 8
DOCKED: TER
DOCKED: ENDMDL
________________________________________________________________________________


	BEGINNING GENETIC ALGORITHM DOCKING 31 of 100
Run: 31 Seed: 1163128679 1891878466 [ Run 31 of 100 GA/GALS ]
Beginning LAMARCKIAN GENETIC ALGORITHM (LGA), with a maximum of 2500000 energy evaluations.

Final-Value: -12.763


	FINAL GENETIC ALGORITHM DOCKED STATE
	_______________________________________________


Detailed state:  trans 25.976 -14.336 -2.567 quatxyzw 0.519105 -0.331751 0.787009 0.032984 center -0.033 -0.045 -0.218 ntor 8 -115.7711 162.2725 118.0988 36.4605 -38.1725 -179.1002 -25.8779 -31.8344
State:	 25.976 -14.336  -2.567   0.519 -0.332  0.787 176.220   -115.77  162.27  118.10   36.46  -38.17 -179.10  -25.88  -31.83

DOCKED: MODEL       31
DOCKED: USER    Run = 31
DOCKED: USER    DPF = ligand_dock.biased.dpf
DOCKED: USER  
DOCKED: USER    Estimated Free Energy of Binding    =   -9.71 kcal/mol  [=(1)+(2)+(3)-(4)]
DOCKED: USER    Estimated Inhibition Constant, Ki   =   76.76 nM (nanomolar)  [Temperature = 298.15 K]
DOCKED: USER    
DOCKED: USER    (1) Final Intermolecular Energy     =  -12.09 kcal/mol
DOCKED: USER        vdW + Hbond + desolv Energy     =  -12.09 kcal/mol
DOCKED: USER        Electrostatic Energy            =   +0.00 kcal/mol
DOCKED: USER    (2) Final Total Internal Energy     =   -0.67 kcal/mol
DOCKED: USER    (3) Torsional Free Energy           =   +2.39 kcal/mol
DOCKED: USER    (4) Unbound System's Energy  [=(2)] =   -0.67 kcal/mol
DOCKED: USER    
DOCKED: USER    
DOCKED: USER    NEWDPF move ligand.pdbqt
DOCKED: USER    NEWDPF about -0.033000 -0.045000 -0.218000
DOCKED: USER    NEWDPF tran0 25.975888 -14.335639 -2.567002
DOCKED: USER    NEWDPF quaternion0 0.519105 -0.331751 0.787009 0.032984
DOCKED: USER    NEWDPF axisangle0 0.519387 -0.331931 0.787438 176.219680
DOCKED: USER    NEWDPF quat0 0.519387 -0.331931 0.787438 176.219680
DOCKED: USER    NEWDPF dihe0 -115.77 162.27 118.10 36.46 -38.17 -179.10 -25.88 -31.83 
DOCKED: USER  keepresnum = 1 
DOCKED: USER  
DOCKED: REMARK  Name = 
DOCKED: REMARK  8 active torsions:
DOCKED: REMARK  status: ('A' for Active; 'I' for Inactive)
DOCKED: REMARK    1  A    between atoms: C_2  and  C_5
DOCKED: REMARK    2  A    between atoms: C_5  and  C_6
DOCKED: REMARK    3  A    between atoms: C_6  and  C_7
DOCKED: REMARK    4  A    between atoms: C_7  and  C_8
DOCKED: REMARK    5  A    between atoms: C_8  and  C_9
DOCKED: REMARK    6  A    between atoms: C_9  and  C_10
DOCKED: REMARK    7  A    between atoms: C_10  and  C_11
DOCKED: REMARK    8  A    between atoms: N_12  and  C_13
DOCKED: REMARK                            x       y       z     vdW  Elec       q    Type
DOCKED: REMARK                         _______ _______ _______ _____ _____    ______ ____
DOCKED: USER                              x       y       z     vdW  Elec       q    Type
DOCKED: USER                           _______ _______ _______ _____ _____    ______ ____
DOCKED: ROOT
DOCKED: ATOM      1  C   UNL     1      25.562 -15.413  -3.876 -0.56 -0.00    +0.000 C 
DOCKED: ENDROOT
DOCKED: BRANCH   1   2
DOCKED: ATOM      2  C   UNL     1      26.553 -14.811  -4.828 -0.51 -0.00    +0.000 C 
DOCKED: ATOM      3  N   UNL     1      26.723 -13.386  -4.878 -0.30 -0.00    +0.000 N 
DOCKED: ATOM      4  O   UNL     1      27.223 -15.568  -5.582 -1.08 +0.00    +0.000 OA
DOCKED: ATOM      5  H   UNL     1      26.073 -12.827  -4.396 -0.02 -0.00    +0.000 HD
DOCKED: BRANCH   3   6
DOCKED: ATOM      6  C   UNL     1      27.784 -12.724  -5.588 -0.20 -0.00    +0.000 A 
DOCKED: ATOM      7  C   UNL     1      29.109 -13.138  -5.398 -0.13 -0.00    +0.000 A 
DOCKED: ATOM      8  C   UNL     1      30.145 -12.517  -6.098 -0.07 -0.00    +0.000 A 
DOCKED: ATOM      9  C   UNL     1      29.844 -11.497  -7.000 -0.07 -0.00    +0.000 A 
DOCKED: ATOM     10  N   UNL     1      28.553 -11.122  -7.198 -0.10 -0.00    +0.000 NA
DOCKED: ATOM     11  C   UNL     1      27.526 -11.707  -6.524 -0.16 -0.00    +0.000 A 
DOCKED: ENDBRANCH   3   6
DOCKED: ENDBRANCH   1   2
DOCKED: BRANCH   1  12
DOCKED: ATOM     12  C   UNL     1      26.288 -16.035  -2.676 -0.47 -0.00    +0.000 C 
DOCKED: BRANCH  12  13
DOCKED: ATOM     13  C   UNL     1      25.413 -16.079  -1.410 -0.54 -0.00    +0.000 C 
DOCKED: BRANCH  13  14
DOCKED: ATOM     14  C   UNL     1      24.943 -17.490  -1.011 -0.70 -0.00    +0.000 C 
DOCKED: BRANCH  14  15
DOCKED: ATOM     15  C   UNL     1      23.423 -17.671  -1.158 -0.74 -0.00    +0.000 C 
DOCKED: BRANCH  15  16
DOCKED: ATOM     16  C   UNL     1      22.832 -18.557  -0.054 -0.77 -0.00    +0.000 C 
DOCKED: BRANCH  16  18
DOCKED: ATOM     17  O   UNL     1      20.628 -17.901  -0.712 -2.33 -0.00    +0.000 OA
DOCKED: ATOM     18  C   UNL     1      21.369 -18.819  -0.268 -0.82 -0.00    +0.000 C 
DOCKED: ATOM     19  N   UNL     1      20.808 -20.094   0.054 -0.68 -0.00    +0.000 N 
DOCKED: ATOM     20  O   UNL     1      19.488 -20.331  -0.137 -1.22 -0.00    +0.000 OA
DOCKED: ATOM     21  H   UNL     1      21.384 -20.805   0.418 -0.61 -0.00    +0.000 HD
DOCKED: ENDBRANCH  16  18
DOCKED: ENDBRANCH  15  16
DOCKED: ENDBRANCH  14  15
DOCKED: ENDBRANCH  13  14
DOCKED: ENDBRANCH  12  13
DOCKED: ENDBRANCH   1  12
DOCKED: TORSDOF 8
DOCKED: TER
DOCKED: ENDMDL
________________________________________________________________________________


	BEGINNING GENETIC ALGORITHM DOCKING 32 of 100
Run: 32 Seed: 100001012 1616958141 [ Run 32 of 100 GA/GALS ]
Beginning LAMARCKIAN GENETIC ALGORITHM (LGA), with a maximum of 2500000 energy evaluations.

Final-Value: -12.398


	FINAL GENETIC ALGORITHM DOCKED STATE
	_______________________________________________


Detailed state:  trans 27.833 -16.817 0.216 quatxyzw 0.433056 -0.870914 0.036943 0.229363 center -0.033 -0.045 -0.218 ntor 8 -10.6796 157.9451 103.5863 -157.9054 -167.0913 38.9066 -30.7680 -18.5149
State:	 27.833 -16.817   0.216   0.445 -0.895  0.038 153.481    -10.68  157.95  103.59 -157.91 -167.09   38.91  -30.77  -18.51

DOCKED: MODEL       32
DOCKED: USER    Run = 32
DOCKED: USER    DPF = ligand_dock.biased.dpf
DOCKED: USER  
DOCKED: USER    Estimated Free Energy of Binding    =   -9.19 kcal/mol  [=(1)+(2)+(3)-(4)]
DOCKED: USER    Estimated Inhibition Constant, Ki   =  182.64 nM (nanomolar)  [Temperature = 298.15 K]
DOCKED: USER    
DOCKED: USER    (1) Final Intermolecular Energy     =  -11.58 kcal/mol
DOCKED: USER        vdW + Hbond + desolv Energy     =  -11.58 kcal/mol
DOCKED: USER        Electrostatic Energy            =   +0.00 kcal/mol
DOCKED: USER    (2) Final Total Internal Energy     =   -0.82 kcal/mol
DOCKED: USER    (3) Torsional Free Energy           =   +2.39 kcal/mol
DOCKED: USER    (4) Unbound System's Energy  [=(2)] =   -0.82 kcal/mol
DOCKED: USER    
DOCKED: USER    
DOCKED: USER    NEWDPF move ligand.pdbqt
DOCKED: USER    NEWDPF about -0.033000 -0.045000 -0.218000
DOCKED: USER    NEWDPF tran0 27.833191 -16.817384 0.215889
DOCKED: USER    NEWDPF quaternion0 0.433056 -0.870914 0.036943 0.229363
DOCKED: USER    NEWDPF axisangle0 0.444917 -0.894767 0.037954 153.480817
DOCKED: USER    NEWDPF quat0 0.444917 -0.894767 0.037954 153.480817
DOCKED: USER    NEWDPF dihe0 -10.68 157.95 103.59 -157.91 -167.09 38.91 -30.77 -18.51 
DOCKED: USER  keepresnum = 1 
DOCKED: USER  
DOCKED: REMARK  Name = 
DOCKED: REMARK  8 active torsions:
DOCKED: REMARK  status: ('A' for Active; 'I' for Inactive)
DOCKED: REMARK    1  A    between atoms: C_2  and  C_5
DOCKED: REMARK    2  A    between atoms: C_5  and  C_6
DOCKED: REMARK    3  A    between atoms: C_6  and  C_7
DOCKED: REMARK    4  A    between atoms: C_7  and  C_8
DOCKED: REMARK    5  A    between atoms: C_8  and  C_9
DOCKED: REMARK    6  A    between atoms: C_9  and  C_10
DOCKED: REMARK    7  A    between atoms: C_10  and  C_11
DOCKED: REMARK    8  A    between atoms: N_12  and  C_13
DOCKED: REMARK                            x       y       z     vdW  Elec       q    Type
DOCKED: REMARK                         _______ _______ _______ _____ _____    ______ ____
DOCKED: USER                              x       y       z     vdW  Elec       q    Type
DOCKED: USER                           _______ _______ _______ _____ _____    ______ ____
DOCKED: ROOT
DOCKED: ATOM      1  C   UNL     1      26.751 -15.459   0.050 -0.29 -0.00    +0.000 C 
DOCKED: ENDROOT
DOCKED: BRANCH   1   2
DOCKED: ATOM      2  C   UNL     1      27.805 -14.441   0.368 -0.26 -0.00    +0.000 C 
DOCKED: ATOM      3  N   UNL     1      28.683 -14.645   1.486 -0.20 -0.00    +0.000 N 
DOCKED: ATOM      4  O   UNL     1      27.905 -13.410  -0.350 -0.16 -0.00    +0.000 OA
DOCKED: ATOM      5  H   UNL     1      28.470 -15.373   2.113 -1.43 -0.00    +0.000 HD
DOCKED: BRANCH   3   6
DOCKED: ATOM      6  C   UNL     1      29.853 -13.852   1.749 -0.12 -0.00    +0.000 A 
DOCKED: ATOM      7  C   UNL     1      30.829 -13.704   0.754 -0.05 -0.00    +0.000 A 
DOCKED: ATOM      8  C   UNL     1      31.959 -12.920   0.990 -0.02 -0.00    +0.000 A 
DOCKED: ATOM      9  C   UNL     1      32.095 -12.271   2.217 -0.02 -0.00    +0.000 A 
DOCKED: ATOM     10  N   UNL     1      31.130 -12.398   3.165 -0.06 -0.00    +0.000 NA
DOCKED: ATOM     11  C   UNL     1      30.023 -13.162   2.962 -0.12 -0.00    +0.000 A 
DOCKED: ENDBRANCH   3   6
DOCKED: ENDBRANCH   1   2
DOCKED: BRANCH   1  12
DOCKED: ATOM     12  C   UNL     1      27.110 -16.214  -1.237 -0.41 -0.00    +0.000 C 
DOCKED: BRANCH  12  13
DOCKED: ATOM     13  C   UNL     1      26.253 -17.474  -1.445 -0.50 -0.00    +0.000 C 
DOCKED: BRANCH  13  14
DOCKED: ATOM     14  C   UNL     1      25.844 -18.187  -0.143 -0.67 -0.00    +0.000 C 
DOCKED: BRANCH  14  15
DOCKED: ATOM     15  C   UNL     1      24.319 -18.227   0.056 -0.68 -0.00    +0.000 C 
DOCKED: BRANCH  15  16
DOCKED: ATOM     16  C   UNL     1      23.554 -18.060  -1.263 -0.77 -0.00    +0.000 C 
DOCKED: BRANCH  16  18
DOCKED: ATOM     17  O   UNL     1      21.380 -17.562  -0.399 -1.63 -0.00    +0.000 OA
DOCKED: ATOM     18  C   UNL     1      22.087 -18.335  -1.100 -0.75 -0.00    +0.000 C 
DOCKED: ATOM     19  N   UNL     1      21.495 -19.484  -1.711 -0.58 -0.00    +0.000 N 
DOCKED: ATOM     20  O   UNL     1      20.172 -19.734  -1.563 -2.28 -0.00    +0.000 OA
DOCKED: ATOM     21  H   UNL     1      22.052 -20.097  -2.243 -0.58 -0.00    +0.000 HD
DOCKED: ENDBRANCH  16  18
DOCKED: ENDBRANCH  15  16
DOCKED: ENDBRANCH  14  15
DOCKED: ENDBRANCH  13  14
DOCKED: ENDBRANCH  12  13
DOCKED: ENDBRANCH   1  12
DOCKED: TORSDOF 8
DOCKED: TER
DOCKED: ENDMDL
________________________________________________________________________________


	BEGINNING GENETIC ALGORITHM DOCKING 33 of 100
Run: 33 Seed: 1452424867 25128787 [ Run 33 of 100 GA/GALS ]
Beginning LAMARCKIAN GENETIC ALGORITHM (LGA), with a maximum of 2500000 energy evaluations.

Final-Value: -13.034


	FINAL GENETIC ALGORITHM DOCKED STATE
	_______________________________________________


Detailed state:  trans 25.472 -15.250 -1.746 quatxyzw 0.380551 0.265529 -0.666922 -0.583001 center -0.033 -0.045 -0.218 ntor 8 -2.0115 171.1136 -177.7858 159.7549 -23.4673 -60.3856 162.3611 -146.4222
State:	 25.472 -15.250  -1.746   0.468  0.327 -0.821 -108.676     -2.01  171.11 -177.79  159.75  -23.47  -60.39  162.36 -146.42

DOCKED: MODEL       33
DOCKED: USER    Run = 33
DOCKED: USER    DPF = ligand_dock.biased.dpf
DOCKED: USER  
DOCKED: USER    Estimated Free Energy of Binding    =   -9.67 kcal/mol  [=(1)+(2)+(3)-(4)]
DOCKED: USER    Estimated Inhibition Constant, Ki   =   82.25 nM (nanomolar)  [Temperature = 298.15 K]
DOCKED: USER    
DOCKED: USER    (1) Final Intermolecular Energy     =  -12.05 kcal/mol
DOCKED: USER        vdW + Hbond + desolv Energy     =  -12.05 kcal/mol
DOCKED: USER        Electrostatic Energy            =   +0.00 kcal/mol
DOCKED: USER    (2) Final Total Internal Energy     =   -0.98 kcal/mol
DOCKED: USER    (3) Torsional Free Energy           =   +2.39 kcal/mol
DOCKED: USER    (4) Unbound System's Energy  [=(2)] =   -0.98 kcal/mol
DOCKED: USER    
DOCKED: USER    
DOCKED: USER    NEWDPF move ligand.pdbqt
DOCKED: USER    NEWDPF about -0.033000 -0.045000 -0.218000
DOCKED: USER    NEWDPF tran0 25.471551 -15.250041 -1.746240
DOCKED: USER    NEWDPF quaternion0 0.380551 0.265529 -0.666922 -0.583001
DOCKED: USER    NEWDPF axisangle0 0.468388 0.326816 -0.820856 -108.676183
DOCKED: USER    NEWDPF quat0 0.468388 0.326816 -0.820856 -108.676183
DOCKED: USER    NEWDPF dihe0 -2.01 171.11 -177.79 159.75 -23.47 -60.39 162.36 -146.42 
DOCKED: USER  keepresnum = 1 
DOCKED: USER  
DOCKED: REMARK  Name = 
DOCKED: REMARK  8 active torsions:
DOCKED: REMARK  status: ('A' for Active; 'I' for Inactive)
DOCKED: REMARK    1  A    between atoms: C_2  and  C_5
DOCKED: REMARK    2  A    between atoms: C_5  and  C_6
DOCKED: REMARK    3  A    between atoms: C_6  and  C_7
DOCKED: REMARK    4  A    between atoms: C_7  and  C_8
DOCKED: REMARK    5  A    between atoms: C_8  and  C_9
DOCKED: REMARK    6  A    between atoms: C_9  and  C_10
DOCKED: REMARK    7  A    between atoms: C_10  and  C_11
DOCKED: REMARK    8  A    between atoms: N_12  and  C_13
DOCKED: REMARK                            x       y       z     vdW  Elec       q    Type
DOCKED: REMARK                         _______ _______ _______ _____ _____    ______ ____
DOCKED: USER                              x       y       z     vdW  Elec       q    Type
DOCKED: USER                           _______ _______ _______ _____ _____    ______ ____
DOCKED: ROOT
DOCKED: ATOM      1  C   UNL     1      27.164 -15.199  -1.327 -0.31 -0.00    +0.000 C 
DOCKED: ENDROOT
DOCKED: BRANCH   1   2
DOCKED: ATOM      2  C   UNL     1      26.924 -14.569   0.013 -0.32 -0.00    +0.000 C 
DOCKED: ATOM      3  N   UNL     1      27.787 -14.884   1.117 -0.29 -0.00    +0.000 N 
DOCKED: ATOM      4  O   UNL     1      25.959 -13.771   0.157 -0.40 -0.00    +0.000 OA
DOCKED: ATOM      5  H   UNL     1      28.422 -15.628   1.008 -0.62 -0.00    +0.000 HD
DOCKED: BRANCH   3   6
DOCKED: ATOM      6  C   UNL     1      27.780 -14.183   2.372 -0.29 -0.00    +0.000 A 
DOCKED: ATOM      7  C   UNL     1      27.656 -12.787   2.386 -0.25 -0.00    +0.000 A 
DOCKED: ATOM      8  C   UNL     1      27.627 -12.098   3.600 -0.26 +0.00    +0.000 A 
DOCKED: ATOM      9  C   UNL     1      27.704 -12.813   4.794 -0.37 -0.00    +0.000 A 
DOCKED: ATOM     10  N   UNL     1      27.797 -14.169   4.770 -0.57 -0.00    +0.000 NA
DOCKED: ATOM     11  C   UNL     1      27.833 -14.864   3.601 -0.21 -0.00    +0.000 A 
DOCKED: ENDBRANCH   3   6
DOCKED: ENDBRANCH   1   2
DOCKED: BRANCH   1  12
DOCKED: ATOM     12  C   UNL     1      26.512 -16.587  -1.387 -0.49 -0.00    +0.000 C 
DOCKED: BRANCH  12  13
DOCKED: ATOM     13  C   UNL     1      25.144 -16.631  -0.683 -0.53 -0.00    +0.000 C 
DOCKED: BRANCH  13  14
DOCKED: ATOM     14  C   UNL     1      24.960 -17.824   0.273 -0.26 -0.00    +0.000 C 
DOCKED: BRANCH  14  15
DOCKED: ATOM     15  C   UNL     1      24.183 -18.985  -0.371 -0.39 -0.00    +0.000 C 
DOCKED: BRANCH  15  16
DOCKED: ATOM     16  C   UNL     1      23.358 -18.532  -1.583 -0.71 -0.00    +0.000 C 
DOCKED: BRANCH  16  18
DOCKED: ATOM     17  O   UNL     1      21.341 -17.717  -0.588 -1.77 -0.00    +0.000 OA
DOCKED: ATOM     18  C   UNL     1      21.882 -18.597  -1.311 -0.59 -0.00    +0.000 C 
DOCKED: ATOM     19  N   UNL     1      21.095 -19.663  -1.846 -0.62 -0.00    +0.000 N 
DOCKED: ATOM     20  O   UNL     1      19.764 -19.723  -1.601 -2.25 -0.00    +0.000 OA
DOCKED: ATOM     21  H   UNL     1      21.522 -20.359  -2.396 -0.57 -0.00    +0.000 HD
DOCKED: ENDBRANCH  16  18
DOCKED: ENDBRANCH  15  16
DOCKED: ENDBRANCH  14  15
DOCKED: ENDBRANCH  13  14
DOCKED: ENDBRANCH  12  13
DOCKED: ENDBRANCH   1  12
DOCKED: TORSDOF 8
DOCKED: TER
DOCKED: ENDMDL
________________________________________________________________________________


	BEGINNING GENETIC ALGORITHM DOCKING 34 of 100
Run: 34 Seed: 758197676 2117871103 [ Run 34 of 100 GA/GALS ]
Beginning LAMARCKIAN GENETIC ALGORITHM (LGA), with a maximum of 2500000 energy evaluations.

Final-Value: -13.048


	FINAL GENETIC ALGORITHM DOCKED STATE
	_______________________________________________


Detailed state:  trans 27.924 -17.266 -2.452 quatxyzw -0.134559 0.852524 -0.074565 0.499536 center -0.033 -0.045 -0.218 ntor 8 -154.5089 129.7297 80.5485 -68.9643 136.9850 -157.0297 -66.1097 -22.2538
State:	 27.924 -17.266  -2.452  -0.155  0.984 -0.086 120.061   -154.51  129.73   80.55  -68.96  136.98 -157.03  -66.11  -22.25

DOCKED: MODEL       34
DOCKED: USER    Run = 34
DOCKED: USER    DPF = ligand_dock.biased.dpf
DOCKED: USER  
DOCKED: USER    Estimated Free Energy of Binding    =   -9.98 kcal/mol  [=(1)+(2)+(3)-(4)]
DOCKED: USER    Estimated Inhibition Constant, Ki   =   48.16 nM (nanomolar)  [Temperature = 298.15 K]
DOCKED: USER    
DOCKED: USER    (1) Final Intermolecular Energy     =  -12.37 kcal/mol
DOCKED: USER        vdW + Hbond + desolv Energy     =  -12.37 kcal/mol
DOCKED: USER        Electrostatic Energy            =   +0.00 kcal/mol
DOCKED: USER    (2) Final Total Internal Energy     =   -0.68 kcal/mol
DOCKED: USER    (3) Torsional Free Energy           =   +2.39 kcal/mol
DOCKED: USER    (4) Unbound System's Energy  [=(2)] =   -0.68 kcal/mol
DOCKED: USER    
DOCKED: USER    
DOCKED: USER    NEWDPF move ligand.pdbqt
DOCKED: USER    NEWDPF about -0.033000 -0.045000 -0.218000
DOCKED: USER    NEWDPF tran0 27.923566 -17.265839 -2.452158
DOCKED: USER    NEWDPF quaternion0 -0.134559 0.852524 -0.074565 0.499536
DOCKED: USER    NEWDPF axisangle0 -0.155327 0.984106 -0.086074 120.061396
DOCKED: USER    NEWDPF quat0 -0.155327 0.984106 -0.086074 120.061396
DOCKED: USER    NEWDPF dihe0 -154.51 129.73 80.55 -68.96 136.98 -157.03 -66.11 -22.25 
DOCKED: USER  keepresnum = 1 
DOCKED: USER  
DOCKED: REMARK  Name = 
DOCKED: REMARK  8 active torsions:
DOCKED: REMARK  status: ('A' for Active; 'I' for Inactive)
DOCKED: REMARK    1  A    between atoms: C_2  and  C_5
DOCKED: REMARK    2  A    between atoms: C_5  and  C_6
DOCKED: REMARK    3  A    between atoms: C_6  and  C_7
DOCKED: REMARK    4  A    between atoms: C_7  and  C_8
DOCKED: REMARK    5  A    between atoms: C_8  and  C_9
DOCKED: REMARK    6  A    between atoms: C_9  and  C_10
DOCKED: REMARK    7  A    between atoms: C_10  and  C_11
DOCKED: REMARK    8  A    between atoms: N_12  and  C_13
DOCKED: REMARK                            x       y       z     vdW  Elec       q    Type
DOCKED: REMARK                         _______ _______ _______ _____ _____    ______ ____
DOCKED: USER                              x       y       z     vdW  Elec       q    Type
DOCKED: USER                           _______ _______ _______ _____ _____    ______ ____
DOCKED: ROOT
DOCKED: ATOM      1  C   UNL     1      27.722 -15.557  -2.742 -0.30 -0.00    +0.000 C 
DOCKED: ENDROOT
DOCKED: BRANCH   1   2
DOCKED: ATOM      2  C   UNL     1      28.209 -15.630  -4.159 -0.33 -0.00    +0.000 C 
DOCKED: ATOM      3  N   UNL     1      29.618 -15.647  -4.432 -0.20 -0.00    +0.000 N 
DOCKED: ATOM      4  O   UNL     1      27.370 -15.671  -5.100 -0.91 +0.00    +0.000 OA
DOCKED: ATOM      5  H   UNL     1      30.234 -15.451  -3.689 +0.00 -0.00    +0.000 HD
DOCKED: BRANCH   3   6
DOCKED: ATOM      6  C   UNL     1      30.188 -15.929  -5.721 -0.25 -0.00    +0.000 A 
DOCKED: ATOM      7  C   UNL     1      30.356 -17.259  -6.128 -0.31 -0.00    +0.000 A 
DOCKED: ATOM      8  C   UNL     1      30.889 -17.546  -7.387 -0.30 -0.00    +0.000 A 
DOCKED: ATOM      9  C   UNL     1      31.232 -16.496  -8.238 -0.18 -0.00    +0.000 A 
DOCKED: ATOM     10  N   UNL     1      31.040 -15.210  -7.844 -0.24 -0.00    +0.000 NA
DOCKED: ATOM     11  C   UNL     1      30.529 -14.904  -6.621 -0.22 -0.00    +0.000 A 
DOCKED: ENDBRANCH   3   6
DOCKED: ENDBRANCH   1   2
DOCKED: BRANCH   1  12
DOCKED: ATOM     12  C   UNL     1      26.439 -16.383  -2.577 -0.41 -0.00    +0.000 C 
DOCKED: BRANCH  12  13
DOCKED: ATOM     13  C   UNL     1      26.118 -16.693  -1.104 -0.54 -0.00    +0.000 C 
DOCKED: BRANCH  13  14
DOCKED: ATOM     14  C   UNL     1      24.667 -16.386  -0.692 -0.44 -0.00    +0.000 C 
DOCKED: BRANCH  14  15
DOCKED: ATOM     15  C   UNL     1      23.639 -17.228  -1.468 -0.61 -0.00    +0.000 C 
DOCKED: BRANCH  15  16
DOCKED: ATOM     16  C   UNL     1      22.939 -18.260  -0.574 -0.83 -0.00    +0.000 C 
DOCKED: BRANCH  16  18
DOCKED: ATOM     17  O   UNL     1      20.630 -17.655  -0.714 -2.20 +0.00    +0.000 OA
DOCKED: ATOM     18  C   UNL     1      21.520 -18.500  -1.000 -0.79 -0.00    +0.000 C 
DOCKED: ATOM     19  N   UNL     1      21.169 -19.694  -1.704 -0.62 -0.00    +0.000 N 
DOCKED: ATOM     20  O   UNL     1      19.888 -19.912  -2.089 -2.25 -0.00    +0.000 OA
DOCKED: ATOM     21  H   UNL     1      21.861 -20.362  -1.912 -0.45 -0.00    +0.000 HD
DOCKED: ENDBRANCH  16  18
DOCKED: ENDBRANCH  15  16
DOCKED: ENDBRANCH  14  15
DOCKED: ENDBRANCH  13  14
DOCKED: ENDBRANCH  12  13
DOCKED: ENDBRANCH   1  12
DOCKED: TORSDOF 8
DOCKED: TER
DOCKED: ENDMDL
________________________________________________________________________________


	BEGINNING GENETIC ALGORITHM DOCKING 35 of 100
Run: 35 Seed: 2098373618 580648561 [ Run 35 of 100 GA/GALS ]
Beginning LAMARCKIAN GENETIC ALGORITHM (LGA), with a maximum of 2500000 energy evaluations.

Final-Value: -14.851


	FINAL GENETIC ALGORITHM DOCKED STATE
	_______________________________________________


Detailed state:  trans 26.154 -14.514 -0.440 quatxyzw 0.471778 0.148614 -0.721296 -0.484841 center -0.033 -0.045 -0.218 ntor 8 -145.2251 179.8904 119.9781 61.4162 -177.9365 -130.2101 -173.7684 -50.7335
State:	 26.154 -14.514  -0.440   0.539  0.170 -0.825 -121.996   -145.23  179.89  119.98   61.42 -177.94 -130.21 -173.77  -50.73

DOCKED: MODEL       35
DOCKED: USER    Run = 35
DOCKED: USER    DPF = ligand_dock.biased.dpf
DOCKED: USER  
DOCKED: USER    Estimated Free Energy of Binding    =  -11.83 kcal/mol  [=(1)+(2)+(3)-(4)]
DOCKED: USER    Estimated Inhibition Constant, Ki   =    2.13 nM (nanomolar)  [Temperature = 298.15 K]
DOCKED: USER    
DOCKED: USER    (1) Final Intermolecular Energy     =  -14.22 kcal/mol
DOCKED: USER        vdW + Hbond + desolv Energy     =  -14.22 kcal/mol
DOCKED: USER        Electrostatic Energy            =   +0.00 kcal/mol
DOCKED: USER    (2) Final Total Internal Energy     =   -0.63 kcal/mol
DOCKED: USER    (3) Torsional Free Energy           =   +2.39 kcal/mol
DOCKED: USER    (4) Unbound System's Energy  [=(2)] =   -0.63 kcal/mol
DOCKED: USER    
DOCKED: USER    
DOCKED: USER    NEWDPF move ligand.pdbqt
DOCKED: USER    NEWDPF about -0.033000 -0.045000 -0.218000
DOCKED: USER    NEWDPF tran0 26.154334 -14.513610 -0.439808
DOCKED: USER    NEWDPF quaternion0 0.471778 0.148614 -0.721296 -0.484841
DOCKED: USER    NEWDPF axisangle0 0.539420 0.169922 -0.824713 -121.995866
DOCKED: USER    NEWDPF quat0 0.539420 0.169922 -0.824713 -121.995866
DOCKED: USER    NEWDPF dihe0 -145.23 179.89 119.98 61.42 -177.94 -130.21 -173.77 -50.73 
DOCKED: USER  keepresnum = 1 
DOCKED: USER  
DOCKED: REMARK  Name = 
DOCKED: REMARK  8 active torsions:
DOCKED: REMARK  status: ('A' for Active; 'I' for Inactive)
DOCKED: REMARK    1  A    between atoms: C_2  and  C_5
DOCKED: REMARK    2  A    between atoms: C_5  and  C_6
DOCKED: REMARK    3  A    between atoms: C_6  and  C_7
DOCKED: REMARK    4  A    between atoms: C_7  and  C_8
DOCKED: REMARK    5  A    between atoms: C_8  and  C_9
DOCKED: REMARK    6  A    between atoms: C_9  and  C_10
DOCKED: REMARK    7  A    between atoms: C_10  and  C_11
DOCKED: REMARK    8  A    between atoms: N_12  and  C_13
DOCKED: REMARK                            x       y       z     vdW  Elec       q    Type
DOCKED: REMARK                         _______ _______ _______ _____ _____    ______ ____
DOCKED: USER                              x       y       z     vdW  Elec       q    Type
DOCKED: USER                           _______ _______ _______ _____ _____    ______ ____
DOCKED: ROOT
DOCKED: ATOM      1  C   UNL     1      27.680 -15.004   0.250 -0.29 -0.00    +0.000 C 
DOCKED: ENDROOT
DOCKED: BRANCH   1   2
DOCKED: ATOM      2  C   UNL     1      27.446 -14.289   1.548 -0.27 -0.00    +0.000 C 
DOCKED: ATOM      3  N   UNL     1      28.341 -14.498   2.651 -0.30 -0.00    +0.000 N 
DOCKED: ATOM      4  O   UNL     1      26.458 -13.514   1.657 -0.35 -0.00    +0.000 OA
DOCKED: ATOM      5  H   UNL     1      28.999 -15.226   2.580 -1.97 -0.00    +0.000 HD
DOCKED: BRANCH   3   6
DOCKED: ATOM      6  C   UNL     1      28.337 -13.710   3.854 -0.38 -0.00    +0.000 A 
DOCKED: ATOM      7  C   UNL     1      27.984 -12.355   3.795 -0.28 -0.00    +0.000 A 
DOCKED: ATOM      8  C   UNL     1      27.955 -11.586   4.959 -0.34 +0.00    +0.000 A 
DOCKED: ATOM      9  C   UNL     1      28.262 -12.184   6.181 -0.36 +0.00    +0.000 A 
DOCKED: ATOM     10  N   UNL     1      28.576 -13.506   6.232 -0.42 -0.00    +0.000 NA
DOCKED: ATOM     11  C   UNL     1      28.617 -14.275   5.111 -0.44 -0.00    +0.000 A 
DOCKED: ENDBRANCH   3   6
DOCKED: ENDBRANCH   1   2
DOCKED: BRANCH   1  12
DOCKED: ATOM     12  C   UNL     1      26.629 -16.104   0.052 -0.28 -0.00    +0.000 C 
DOCKED: BRANCH  12  13
DOCKED: ATOM     13  C   UNL     1      26.039 -16.113  -1.370 -0.50 -0.00    +0.000 C 
DOCKED: BRANCH  13  14
DOCKED: ATOM     14  C   UNL     1      25.423 -17.459  -1.794 -0.57 -0.00    +0.000 C 
DOCKED: BRANCH  14  15
DOCKED: ATOM     15  C   UNL     1      23.886 -17.418  -1.837 -0.47 -0.00    +0.000 C 
DOCKED: BRANCH  15  16
DOCKED: ATOM     16  C   UNL     1      23.248 -18.411  -0.856 -0.82 -0.00    +0.000 C 
DOCKED: BRANCH  16  18
DOCKED: ATOM     17  O   UNL     1      21.051 -17.481  -0.704 -2.03 -0.00    +0.000 OA
DOCKED: ATOM     18  C   UNL     1      21.757 -18.478  -1.015 -0.79 -0.00    +0.000 C 
DOCKED: ATOM     19  N   UNL     1      21.133 -19.673  -1.491 -0.71 -0.00    +0.000 N 
DOCKED: ATOM     20  O   UNL     1      19.788 -19.734  -1.633 -2.28 -0.00    +0.000 OA
DOCKED: ATOM     21  H   UNL     1      21.685 -20.457  -1.716 -0.38 -0.00    +0.000 HD
DOCKED: ENDBRANCH  16  18
DOCKED: ENDBRANCH  15  16
DOCKED: ENDBRANCH  14  15
DOCKED: ENDBRANCH  13  14
DOCKED: ENDBRANCH  12  13
DOCKED: ENDBRANCH   1  12
DOCKED: TORSDOF 8
DOCKED: TER
DOCKED: ENDMDL
________________________________________________________________________________


	BEGINNING GENETIC ALGORITHM DOCKING 36 of 100
Run: 36 Seed: 311622638 200060472 [ Run 36 of 100 GA/GALS ]
Beginning LAMARCKIAN GENETIC ALGORITHM (LGA), with a maximum of 2500000 energy evaluations.

Final-Value: -12.949


	FINAL GENETIC ALGORITHM DOCKED STATE
	_______________________________________________


Detailed state:  trans 25.780 -16.281 -0.330 quatxyzw 0.281961 -0.605161 0.472694 0.575185 center -0.033 -0.045 -0.218 ntor 8 -30.1501 127.9640 176.5397 80.0361 -138.7686 76.4841 -34.2381 -77.4317
State:	 25.780 -16.281  -0.330   0.345 -0.740  0.578 109.775    -30.15  127.96  176.54   80.04 -138.77   76.48  -34.24  -77.43

DOCKED: MODEL       36
DOCKED: USER    Run = 36
DOCKED: USER    DPF = ligand_dock.biased.dpf
DOCKED: USER  
DOCKED: USER    Estimated Free Energy of Binding    =   -9.64 kcal/mol  [=(1)+(2)+(3)-(4)]
DOCKED: USER    Estimated Inhibition Constant, Ki   =   86.22 nM (nanomolar)  [Temperature = 298.15 K]
DOCKED: USER    
DOCKED: USER    (1) Final Intermolecular Energy     =  -12.02 kcal/mol
DOCKED: USER        vdW + Hbond + desolv Energy     =  -12.02 kcal/mol
DOCKED: USER        Electrostatic Energy            =   +0.00 kcal/mol
DOCKED: USER    (2) Final Total Internal Energy     =   -0.92 kcal/mol
DOCKED: USER    (3) Torsional Free Energy           =   +2.39 kcal/mol
DOCKED: USER    (4) Unbound System's Energy  [=(2)] =   -0.92 kcal/mol
DOCKED: USER    
DOCKED: USER    
DOCKED: USER    NEWDPF move ligand.pdbqt
DOCKED: USER    NEWDPF about -0.033000 -0.045000 -0.218000
DOCKED: USER    NEWDPF tran0 25.779832 -16.281160 -0.330181
DOCKED: USER    NEWDPF quaternion0 0.281961 -0.605161 0.472694 0.575185
DOCKED: USER    NEWDPF axisangle0 0.344686 -0.739785 0.577849 109.774792
DOCKED: USER    NEWDPF quat0 0.344686 -0.739785 0.577849 109.774792
DOCKED: USER    NEWDPF dihe0 -30.15 127.96 176.54 80.04 -138.77 76.48 -34.24 -77.43 
DOCKED: USER  keepresnum = 1 
DOCKED: USER  
DOCKED: REMARK  Name = 
DOCKED: REMARK  8 active torsions:
DOCKED: REMARK  status: ('A' for Active; 'I' for Inactive)
DOCKED: REMARK    1  A    between atoms: C_2  and  C_5
DOCKED: REMARK    2  A    between atoms: C_5  and  C_6
DOCKED: REMARK    3  A    between atoms: C_6  and  C_7
DOCKED: REMARK    4  A    between atoms: C_7  and  C_8
DOCKED: REMARK    5  A    between atoms: C_8  and  C_9
DOCKED: REMARK    6  A    between atoms: C_9  and  C_10
DOCKED: REMARK    7  A    between atoms: C_10  and  C_11
DOCKED: REMARK    8  A    between atoms: N_12  and  C_13
DOCKED: REMARK                            x       y       z     vdW  Elec       q    Type
DOCKED: REMARK                         _______ _______ _______ _____ _____    ______ ____
DOCKED: USER                              x       y       z     vdW  Elec       q    Type
DOCKED: USER                           _______ _______ _______ _____ _____    ______ ____
DOCKED: ROOT
DOCKED: ATOM      1  C   UNL     1      26.066 -15.207  -1.675 -0.42 -0.00    +0.000 C 
DOCKED: ENDROOT
DOCKED: BRANCH   1   2
DOCKED: ATOM      2  C   UNL     1      26.576 -14.090  -0.815 -0.30 -0.00    +0.000 C 
DOCKED: ATOM      3  N   UNL     1      25.826 -13.673   0.337 -0.31 -0.00    +0.000 N 
DOCKED: ATOM      4  O   UNL     1      27.661 -13.523  -1.117 -0.17 -0.00    +0.000 OA
DOCKED: ATOM      5  H   UNL     1      24.914 -14.026   0.446 -0.03 -0.00    +0.000 HD
DOCKED: BRANCH   3   6
DOCKED: ATOM      6  C   UNL     1      26.322 -12.771   1.340 -0.32 -0.00    +0.000 A 
DOCKED: ATOM      7  C   UNL     1      27.107 -13.266   2.391 -0.31 -0.00    +0.000 A 
DOCKED: ATOM      8  C   UNL     1      27.612 -12.397   3.359 -0.27 -0.00    +0.000 A 
DOCKED: ATOM      9  C   UNL     1      27.343 -11.032   3.259 -0.26 +0.00    +0.000 A 
DOCKED: ATOM     10  N   UNL     1      26.604 -10.559   2.222 -0.42 +0.00    +0.000 NA
DOCKED: ATOM     11  C   UNL     1      26.095 -11.385   1.269 -0.35 +0.00    +0.000 A 
DOCKED: ENDBRANCH   3   6
DOCKED: ENDBRANCH   1   2
DOCKED: BRANCH   1  12
DOCKED: ATOM     12  C   UNL     1      26.987 -16.429  -1.563 -0.42 -0.00    +0.000 C 
DOCKED: BRANCH  12  13
DOCKED: ATOM     13  C   UNL     1      26.351 -17.581  -0.765 -0.59 -0.00    +0.000 C 
DOCKED: BRANCH  13  14
DOCKED: ATOM     14  C   UNL     1      24.894 -17.327  -0.333 -0.58 -0.00    +0.000 C 
DOCKED: BRANCH  14  15
DOCKED: ATOM     15  C   UNL     1      24.050 -18.613  -0.312 -0.71 -0.00    +0.000 C 
DOCKED: BRANCH  15  16
DOCKED: ATOM     16  C   UNL     1      23.176 -18.757  -1.564 -0.71 -0.00    +0.000 C 
DOCKED: BRANCH  16  18
DOCKED: ATOM     17  O   UNL     1      21.256 -17.858  -0.457 -1.82 -0.00    +0.000 OA
DOCKED: ATOM     18  C   UNL     1      21.712 -18.743  -1.231 -0.69 -0.00    +0.000 C 
DOCKED: ATOM     19  N   UNL     1      20.840 -19.743  -1.763 -0.73 -0.00    +0.000 N 
DOCKED: ATOM     20  O   UNL     1      19.520 -19.732  -1.462 -2.10 -0.00    +0.000 OA
DOCKED: ATOM     21  H   UNL     1      21.201 -20.444  -2.352 -0.51 -0.00    +0.000 HD
DOCKED: ENDBRANCH  16  18
DOCKED: ENDBRANCH  15  16
DOCKED: ENDBRANCH  14  15
DOCKED: ENDBRANCH  13  14
DOCKED: ENDBRANCH  12  13
DOCKED: ENDBRANCH   1  12
DOCKED: TORSDOF 8
DOCKED: TER
DOCKED: ENDMDL
________________________________________________________________________________


	BEGINNING GENETIC ALGORITHM DOCKING 37 of 100
Run: 37 Seed: 1277407096 1167001678 [ Run 37 of 100 GA/GALS ]
Beginning LAMARCKIAN GENETIC ALGORITHM (LGA), with a maximum of 2500000 energy evaluations.

Final-Value: -12.826


	FINAL GENETIC ALGORITHM DOCKED STATE
	_______________________________________________


Detailed state:  trans 26.085 -14.916 -1.818 quatxyzw -0.133695 0.831751 -0.523367 0.128073 center -0.033 -0.045 -0.218 ntor 8 165.7613 169.3072 93.2547 24.4591 142.6860 -164.9559 118.2903 -139.3276
State:	 26.085 -14.916  -1.818  -0.135  0.839 -0.528 165.284    165.76  169.31   93.25   24.46  142.69 -164.96  118.29 -139.33

DOCKED: MODEL       37
DOCKED: USER    Run = 37
DOCKED: USER    DPF = ligand_dock.biased.dpf
DOCKED: USER  
DOCKED: USER    Estimated Free Energy of Binding    =   -9.59 kcal/mol  [=(1)+(2)+(3)-(4)]
DOCKED: USER    Estimated Inhibition Constant, Ki   =   93.00 nM (nanomolar)  [Temperature = 298.15 K]
DOCKED: USER    
DOCKED: USER    (1) Final Intermolecular Energy     =  -11.98 kcal/mol
DOCKED: USER        vdW + Hbond + desolv Energy     =  -11.98 kcal/mol
DOCKED: USER        Electrostatic Energy            =   +0.00 kcal/mol
DOCKED: USER    (2) Final Total Internal Energy     =   -0.85 kcal/mol
DOCKED: USER    (3) Torsional Free Energy           =   +2.39 kcal/mol
DOCKED: USER    (4) Unbound System's Energy  [=(2)] =   -0.85 kcal/mol
DOCKED: USER    
DOCKED: USER    
DOCKED: USER    NEWDPF move ligand.pdbqt
DOCKED: USER    NEWDPF about -0.033000 -0.045000 -0.218000
DOCKED: USER    NEWDPF tran0 26.085393 -14.916196 -1.818439
DOCKED: USER    NEWDPF quaternion0 -0.133695 0.831751 -0.523367 0.128073
DOCKED: USER    NEWDPF axisangle0 -0.134805 0.838658 -0.527713 165.283535
DOCKED: USER    NEWDPF quat0 -0.134805 0.838658 -0.527713 165.283535
DOCKED: USER    NEWDPF dihe0 165.76 169.31 93.25 24.46 142.69 -164.96 118.29 -139.33 
DOCKED: USER  keepresnum = 1 
DOCKED: USER  
DOCKED: REMARK  Name = 
DOCKED: REMARK  8 active torsions:
DOCKED: REMARK  status: ('A' for Active; 'I' for Inactive)
DOCKED: REMARK    1  A    between atoms: C_2  and  C_5
DOCKED: REMARK    2  A    between atoms: C_5  and  C_6
DOCKED: REMARK    3  A    between atoms: C_6  and  C_7
DOCKED: REMARK    4  A    between atoms: C_7  and  C_8
DOCKED: REMARK    5  A    between atoms: C_8  and  C_9
DOCKED: REMARK    6  A    between atoms: C_9  and  C_10
DOCKED: REMARK    7  A    between atoms: C_10  and  C_11
DOCKED: REMARK    8  A    between atoms: N_12  and  C_13
DOCKED: REMARK                            x       y       z     vdW  Elec       q    Type
DOCKED: REMARK                         _______ _______ _______ _____ _____    ______ ____
DOCKED: USER                              x       y       z     vdW  Elec       q    Type
DOCKED: USER                           _______ _______ _______ _____ _____    ______ ____
DOCKED: ROOT
DOCKED: ATOM      1  C   UNL     1      25.889 -14.052  -3.322 -0.43 -0.00    +0.000 C 
DOCKED: ENDROOT
DOCKED: BRANCH   1   2
DOCKED: ATOM      2  C   UNL     1      27.298 -14.298  -3.772 -0.32 -0.00    +0.000 C 
DOCKED: ATOM      3  N   UNL     1      27.569 -15.299  -4.766 -0.41 -0.00    +0.000 N 
DOCKED: ATOM      4  O   UNL     1      28.235 -13.623  -3.265 -0.14 -0.00    +0.000 OA
DOCKED: ATOM      5  H   UNL     1      26.839 -15.910  -5.015 -0.05 +0.00    +0.000 HD
DOCKED: BRANCH   3   6
DOCKED: ATOM      6  C   UNL     1      28.838 -15.466  -5.419 -0.33 -0.00    +0.000 A 
DOCKED: ATOM      7  C   UNL     1      29.546 -14.339  -5.858 -0.22 -0.00    +0.000 A 
DOCKED: ATOM      8  C   UNL     1      30.789 -14.487  -6.474 -0.16 -0.00    +0.000 A 
DOCKED: ATOM      9  C   UNL     1      31.326 -15.764  -6.630 -0.18 -0.00    +0.000 A 
DOCKED: ATOM     10  N   UNL     1      30.645 -16.849  -6.177 -0.27 -0.00    +0.000 NA
DOCKED: ATOM     11  C   UNL     1      29.429 -16.732  -5.578 -0.20 -0.00    +0.000 A 
DOCKED: ENDBRANCH   3   6
DOCKED: ENDBRANCH   1   2
DOCKED: BRANCH   1  12
DOCKED: ATOM     12  C   UNL     1      25.134 -15.382  -3.188 -0.40 -0.00    +0.000 C 
DOCKED: BRANCH  12  13
DOCKED: ATOM     13  C   UNL     1      25.948 -16.455  -2.445 -0.49 -0.00    +0.000 C 
DOCKED: BRANCH  13  14
DOCKED: ATOM     14  C   UNL     1      25.253 -17.030  -1.197 -0.64 -0.00    +0.000 C 
DOCKED: BRANCH  14  15
DOCKED: ATOM     15  C   UNL     1      24.010 -17.868  -1.545 -0.72 -0.00    +0.000 C 
DOCKED: BRANCH  15  16
DOCKED: ATOM     16  C   UNL     1      23.009 -17.934  -0.384 -0.80 -0.00    +0.000 C 
DOCKED: BRANCH  16  18
DOCKED: ATOM     17  O   UNL     1      20.682 -17.493  -0.714 -2.09 +0.00    +0.000 OA
DOCKED: ATOM     18  C   UNL     1      21.632 -18.309  -0.852 -0.80 -0.00    +0.000 C 
DOCKED: ATOM     19  N   UNL     1      21.390 -19.595  -1.426 -0.67 -0.00    +0.000 N 
DOCKED: ATOM     20  O   UNL     1      20.148 -19.935  -1.847 -2.30 -0.00    +0.000 OA
DOCKED: ATOM     21  H   UNL     1      22.130 -20.239  -1.517 -0.35 -0.00    +0.000 HD
DOCKED: ENDBRANCH  16  18
DOCKED: ENDBRANCH  15  16
DOCKED: ENDBRANCH  14  15
DOCKED: ENDBRANCH  13  14
DOCKED: ENDBRANCH  12  13
DOCKED: ENDBRANCH   1  12
DOCKED: TORSDOF 8
DOCKED: TER
DOCKED: ENDMDL
________________________________________________________________________________


	BEGINNING GENETIC ALGORITHM DOCKING 38 of 100
Run: 38 Seed: 2110732257 502398044 [ Run 38 of 100 GA/GALS ]
Beginning LAMARCKIAN GENETIC ALGORITHM (LGA), with a maximum of 2500000 energy evaluations.

Final-Value: -12.417


	FINAL GENETIC ALGORITHM DOCKED STATE
	_______________________________________________


Detailed state:  trans 26.114 -15.834 0.244 quatxyzw -0.909437 -0.228163 -0.019448 -0.347114 center -0.033 -0.045 -0.218 ntor 8 -180.0000 -3.8370 -106.5467 -30.8825 180.0000 146.1027 -75.1539 -82.8420
State:	 26.114 -15.834   0.244  -0.970 -0.243 -0.021 -139.378   -180.00   -3.84 -106.55  -30.88  180.00  146.10  -75.15  -82.84

DOCKED: MODEL       38
DOCKED: USER    Run = 38
DOCKED: USER    DPF = ligand_dock.biased.dpf
DOCKED: USER  
DOCKED: USER    Estimated Free Energy of Binding    =   -9.23 kcal/mol  [=(1)+(2)+(3)-(4)]
DOCKED: USER    Estimated Inhibition Constant, Ki   =  170.87 nM (nanomolar)  [Temperature = 298.15 K]
DOCKED: USER    
DOCKED: USER    (1) Final Intermolecular Energy     =  -11.62 kcal/mol
DOCKED: USER        vdW + Hbond + desolv Energy     =  -11.62 kcal/mol
DOCKED: USER        Electrostatic Energy            =   +0.00 kcal/mol
DOCKED: USER    (2) Final Total Internal Energy     =   -0.80 kcal/mol
DOCKED: USER    (3) Torsional Free Energy           =   +2.39 kcal/mol
DOCKED: USER    (4) Unbound System's Energy  [=(2)] =   -0.80 kcal/mol
DOCKED: USER    
DOCKED: USER    
DOCKED: USER    NEWDPF move ligand.pdbqt
DOCKED: USER    NEWDPF about -0.033000 -0.045000 -0.218000
DOCKED: USER    NEWDPF tran0 26.114305 -15.834086 0.243847
DOCKED: USER    NEWDPF quaternion0 -0.909437 -0.228163 -0.019448 -0.347114
DOCKED: USER    NEWDPF axisangle0 -0.969732 -0.243290 -0.020737 -139.378238
DOCKED: USER    NEWDPF quat0 -0.969732 -0.243290 -0.020737 -139.378238
DOCKED: USER    NEWDPF dihe0 -180.00 -3.84 -106.55 -30.88 180.00 146.10 -75.15 -82.84 
DOCKED: USER  keepresnum = 1 
DOCKED: USER  
DOCKED: REMARK  Name = 
DOCKED: REMARK  8 active torsions:
DOCKED: REMARK  status: ('A' for Active; 'I' for Inactive)
DOCKED: REMARK    1  A    between atoms: C_2  and  C_5
DOCKED: REMARK    2  A    between atoms: C_5  and  C_6
DOCKED: REMARK    3  A    between atoms: C_6  and  C_7
DOCKED: REMARK    4  A    between atoms: C_7  and  C_8
DOCKED: REMARK    5  A    between atoms: C_8  and  C_9
DOCKED: REMARK    6  A    between atoms: C_9  and  C_10
DOCKED: REMARK    7  A    between atoms: C_10  and  C_11
DOCKED: REMARK    8  A    between atoms: N_12  and  C_13
DOCKED: REMARK                            x       y       z     vdW  Elec       q    Type
DOCKED: REMARK                         _______ _______ _______ _____ _____    ______ ____
DOCKED: USER                              x       y       z     vdW  Elec       q    Type
DOCKED: USER                           _______ _______ _______ _____ _____    ______ ____
DOCKED: ROOT
DOCKED: ATOM      1  C   UNL     1      26.475 -17.197  -0.785 -0.56 -0.00    +0.000 C 
DOCKED: ENDROOT
DOCKED: BRANCH   1   2
DOCKED: ATOM      2  C   UNL     1      25.041 -17.433  -1.157 -0.68 -0.00    +0.000 C 
DOCKED: ATOM      3  N   UNL     1      24.233 -18.320  -0.369 -0.70 -0.00    +0.000 N 
DOCKED: ATOM      4  O   UNL     1      24.561 -16.850  -2.168 -0.64 -0.00    +0.000 OA
DOCKED: ATOM      5  H   UNL     1      24.683 -18.875   0.307 -0.04 -0.00    +0.000 HD
DOCKED: BRANCH   3   6
DOCKED: ATOM      6  C   UNL     1      22.808 -18.450  -0.506 -0.74 -0.00    +0.000 A 
DOCKED: ATOM      7  C   UNL     1      22.207 -19.706  -0.341 -0.22 -0.00    +0.000 A 
DOCKED: ATOM      8  C   UNL     1      20.822 -19.841  -0.451 -0.65 -0.00    +0.000 A 
DOCKED: ATOM      9  C   UNL     1      20.044 -18.712  -0.705 -0.64 -0.00    +0.000 A 
DOCKED: ATOM     10  N   UNL     1      20.633 -17.494  -0.836 -1.90 +0.00    +0.000 NA
DOCKED: ATOM     11  C   UNL     1      21.981 -17.337  -0.740 -0.58 -0.00    +0.000 A 
DOCKED: ENDBRANCH   3   6
DOCKED: ENDBRANCH   1   2
DOCKED: BRANCH   1  12
DOCKED: ATOM     12  C   UNL     1      26.934 -15.819  -1.281 -0.39 -0.00    +0.000 C 
DOCKED: BRANCH  12  13
DOCKED: ATOM     13  C   UNL     1      26.987 -14.770  -0.157 -0.32 -0.00    +0.000 C 
DOCKED: BRANCH  13  14
DOCKED: ATOM     14  C   UNL     1      28.170 -14.939   0.814 -0.24 -0.00    +0.000 C 
DOCKED: BRANCH  14  15
DOCKED: ATOM     15  C   UNL     1      29.276 -13.894   0.587 -0.13 -0.00    +0.000 C 
DOCKED: BRANCH  15  16
DOCKED: ATOM     16  C   UNL     1      30.018 -13.540   1.883 -0.12 -0.00    +0.000 C 
DOCKED: BRANCH  16  18
DOCKED: ATOM     17  O   UNL     1      28.737 -12.299   3.476 -0.20 -0.00    +0.000 OA
DOCKED: ATOM     18  C   UNL     1      29.083 -13.435   3.053 -0.24 -0.00    +0.000 C 
DOCKED: ATOM     19  N   UNL     1      28.607 -14.614   3.706 -0.40 -0.00    +0.000 N 
DOCKED: ATOM     20  O   UNL     1      27.764 -14.520   4.762 -0.69 -0.00    +0.000 OA
DOCKED: ATOM     21  H   UNL     1      28.892 -15.500   3.386 -1.52 -0.00    +0.000 HD
DOCKED: ENDBRANCH  16  18
DOCKED: ENDBRANCH  15  16
DOCKED: ENDBRANCH  14  15
DOCKED: ENDBRANCH  13  14
DOCKED: ENDBRANCH  12  13
DOCKED: ENDBRANCH   1  12
DOCKED: TORSDOF 8
DOCKED: TER
DOCKED: ENDMDL
________________________________________________________________________________


	BEGINNING GENETIC ALGORITHM DOCKING 39 of 100
Run: 39 Seed: 1050180759 47853544 [ Run 39 of 100 GA/GALS ]
Beginning LAMARCKIAN GENETIC ALGORITHM (LGA), with a maximum of 2500000 energy evaluations.

Final-Value: -12.457


	FINAL GENETIC ALGORITHM DOCKED STATE
	_______________________________________________


Detailed state:  trans 26.001 -16.521 -3.420 quatxyzw -0.089224 -0.617207 -0.684877 -0.376879 center -0.033 -0.045 -0.218 ntor 8 -69.1090 135.4474 -150.1852 118.7506 -45.7855 -162.4691 -7.9339 -54.6696
State:	 26.001 -16.521  -3.420  -0.096 -0.666 -0.739 -135.719    -69.11  135.45 -150.19  118.75  -45.79 -162.47   -7.93  -54.67

DOCKED: MODEL       39
DOCKED: USER    Run = 39
DOCKED: USER    DPF = ligand_dock.biased.dpf
DOCKED: USER  
DOCKED: USER    Estimated Free Energy of Binding    =   -9.28 kcal/mol  [=(1)+(2)+(3)-(4)]
DOCKED: USER    Estimated Inhibition Constant, Ki   =  158.08 nM (nanomolar)  [Temperature = 298.15 K]
DOCKED: USER    
DOCKED: USER    (1) Final Intermolecular Energy     =  -11.66 kcal/mol
DOCKED: USER        vdW + Hbond + desolv Energy     =  -11.66 kcal/mol
DOCKED: USER        Electrostatic Energy            =   +0.00 kcal/mol
DOCKED: USER    (2) Final Total Internal Energy     =   -0.79 kcal/mol
DOCKED: USER    (3) Torsional Free Energy           =   +2.39 kcal/mol
DOCKED: USER    (4) Unbound System's Energy  [=(2)] =   -0.79 kcal/mol
DOCKED: USER    
DOCKED: USER    
DOCKED: USER    NEWDPF move ligand.pdbqt
DOCKED: USER    NEWDPF about -0.033000 -0.045000 -0.218000
DOCKED: USER    NEWDPF tran0 26.000871 -16.521425 -3.419753
DOCKED: USER    NEWDPF quaternion0 -0.089224 -0.617207 -0.684877 -0.376879
DOCKED: USER    NEWDPF axisangle0 -0.096327 -0.666342 -0.739398 -135.719002
DOCKED: USER    NEWDPF quat0 -0.096327 -0.666342 -0.739398 -135.719002
DOCKED: USER    NEWDPF dihe0 -69.11 135.45 -150.19 118.75 -45.79 -162.47 -7.93 -54.67 
DOCKED: USER  keepresnum = 1 
DOCKED: USER  
DOCKED: REMARK  Name = 
DOCKED: REMARK  8 active torsions:
DOCKED: REMARK  status: ('A' for Active; 'I' for Inactive)
DOCKED: REMARK    1  A    between atoms: C_2  and  C_5
DOCKED: REMARK    2  A    between atoms: C_5  and  C_6
DOCKED: REMARK    3  A    between atoms: C_6  and  C_7
DOCKED: REMARK    4  A    between atoms: C_7  and  C_8
DOCKED: REMARK    5  A    between atoms: C_8  and  C_9
DOCKED: REMARK    6  A    between atoms: C_9  and  C_10
DOCKED: REMARK    7  A    between atoms: C_10  and  C_11
DOCKED: REMARK    8  A    between atoms: N_12  and  C_13
DOCKED: REMARK                            x       y       z     vdW  Elec       q    Type
DOCKED: REMARK                         _______ _______ _______ _____ _____    ______ ____
DOCKED: USER                              x       y       z     vdW  Elec       q    Type
DOCKED: USER                           _______ _______ _______ _____ _____    ______ ____
DOCKED: ROOT
DOCKED: ATOM      1  C   UNL     1      27.401 -16.397  -2.386 -0.32 -0.00    +0.000 C 
DOCKED: ENDROOT
DOCKED: BRANCH   1   2
DOCKED: ATOM      2  C   UNL     1      28.168 -15.537  -3.347 -0.29 -0.00    +0.000 C 
DOCKED: ATOM      3  N   UNL     1      27.846 -15.564  -4.746 -0.39 -0.00    +0.000 N 
DOCKED: ATOM      4  O   UNL     1      29.096 -14.801  -2.913 -0.14 -0.00    +0.000 OA
DOCKED: ATOM      5  H   UNL     1      27.232 -16.264  -5.065 -0.03 +0.00    +0.000 HD
DOCKED: BRANCH   3   6
DOCKED: ATOM      6  C   UNL     1      28.363 -14.634  -5.712 -0.34 -0.00    +0.000 A 
DOCKED: ATOM      7  C   UNL     1      27.836 -13.337  -5.778 -0.23 -0.00    +0.000 A 
DOCKED: ATOM      8  C   UNL     1      28.345 -12.418  -6.698 -0.19 -0.00    +0.000 A 
DOCKED: ATOM      9  C   UNL     1      29.395 -12.799  -7.533 -0.21 -0.00    +0.000 A 
DOCKED: ATOM     10  N   UNL     1      29.918 -14.050  -7.443 -0.26 -0.00    +0.000 NA
DOCKED: ATOM     11  C   UNL     1      29.435 -14.965  -6.560 -0.31 -0.00    +0.000 A 
DOCKED: ENDBRANCH   3   6
DOCKED: ENDBRANCH   1   2
DOCKED: BRANCH   1  12
DOCKED: ATOM     12  C   UNL     1      26.133 -15.670  -1.918 -0.47 -0.00    +0.000 C 
DOCKED: BRANCH  12  13
DOCKED: ATOM     13  C   UNL     1      24.872 -16.546  -2.029 -0.58 -0.00    +0.000 C 
DOCKED: BRANCH  13  14
DOCKED: ATOM     14  C   UNL     1      24.075 -16.681  -0.719 -0.52 -0.00    +0.000 C 
DOCKED: BRANCH  14  15
DOCKED: ATOM     15  C   UNL     1      23.947 -18.140  -0.251 -0.75 -0.00    +0.000 C 
DOCKED: BRANCH  15  16
DOCKED: ATOM     16  C   UNL     1      23.203 -19.015  -1.269 -0.78 -0.00    +0.000 C 
DOCKED: BRANCH  16  18
DOCKED: ATOM     17  O   UNL     1      21.225 -18.048  -0.337 -1.76 -0.00    +0.000 OA
DOCKED: ATOM     18  C   UNL     1      21.713 -18.910  -1.116 -0.81 -0.00    +0.000 C 
DOCKED: ATOM     19  N   UNL     1      20.849 -19.800  -1.827 -0.64 -0.00    +0.000 N 
DOCKED: ATOM     20  O   UNL     1      19.505 -19.707  -1.689 -2.09 -0.00    +0.000 OA
DOCKED: ATOM     21  H   UNL     1      21.233 -20.485  -2.421 -0.52 -0.00    +0.000 HD
DOCKED: ENDBRANCH  16  18
DOCKED: ENDBRANCH  15  16
DOCKED: ENDBRANCH  14  15
DOCKED: ENDBRANCH  13  14
DOCKED: ENDBRANCH  12  13
DOCKED: ENDBRANCH   1  12
DOCKED: TORSDOF 8
DOCKED: TER
DOCKED: ENDMDL
________________________________________________________________________________


	BEGINNING GENETIC ALGORITHM DOCKING 40 of 100
Run: 40 Seed: 1885780388 135775787 [ Run 40 of 100 GA/GALS ]
Beginning LAMARCKIAN GENETIC ALGORITHM (LGA), with a maximum of 2500000 energy evaluations.

Final-Value: -15.077


	FINAL GENETIC ALGORITHM DOCKED STATE
	_______________________________________________


Detailed state:  trans 26.594 -14.764 -0.946 quatxyzw 0.508286 0.061507 -0.709199 -0.484663 center -0.033 -0.045 -0.218 ntor 8 -142.3888 160.3658 169.3814 52.5824 179.5171 -117.0681 -166.1950 -93.7346
State:	 26.594 -14.764  -0.946   0.581  0.070 -0.811 -122.019   -142.39  160.37  169.38   52.58  179.52 -117.07 -166.20  -93.73

DOCKED: MODEL       40
DOCKED: USER    Run = 40
DOCKED: USER    DPF = ligand_dock.biased.dpf
DOCKED: USER  
DOCKED: USER    Estimated Free Energy of Binding    =  -11.95 kcal/mol  [=(1)+(2)+(3)-(4)]
DOCKED: USER    Estimated Inhibition Constant, Ki   =    1.75 nM (nanomolar)  [Temperature = 298.15 K]
DOCKED: USER    
DOCKED: USER    (1) Final Intermolecular Energy     =  -14.33 kcal/mol
DOCKED: USER        vdW + Hbond + desolv Energy     =  -14.33 kcal/mol
DOCKED: USER        Electrostatic Energy            =   +0.00 kcal/mol
DOCKED: USER    (2) Final Total Internal Energy     =   -0.75 kcal/mol
DOCKED: USER    (3) Torsional Free Energy           =   +2.39 kcal/mol
DOCKED: USER    (4) Unbound System's Energy  [=(2)] =   -0.75 kcal/mol
DOCKED: USER    
DOCKED: USER    
DOCKED: USER    NEWDPF move ligand.pdbqt
DOCKED: USER    NEWDPF about -0.033000 -0.045000 -0.218000
DOCKED: USER    NEWDPF tran0 26.593909 -14.764193 -0.946070
DOCKED: USER    NEWDPF quaternion0 0.508286 0.061507 -0.709199 -0.484663
DOCKED: USER    NEWDPF axisangle0 0.581097 0.070317 -0.810791 -122.019154
DOCKED: USER    NEWDPF quat0 0.581097 0.070317 -0.810791 -122.019154
DOCKED: USER    NEWDPF dihe0 -142.39 160.37 169.38 52.58 179.52 -117.07 -166.20 -93.73 
DOCKED: USER  keepresnum = 1 
DOCKED: USER  
DOCKED: REMARK  Name = 
DOCKED: REMARK  8 active torsions:
DOCKED: REMARK  status: ('A' for Active; 'I' for Inactive)
DOCKED: REMARK    1  A    between atoms: C_2  and  C_5
DOCKED: REMARK    2  A    between atoms: C_5  and  C_6
DOCKED: REMARK    3  A    between atoms: C_6  and  C_7
DOCKED: REMARK    4  A    between atoms: C_7  and  C_8
DOCKED: REMARK    5  A    between atoms: C_8  and  C_9
DOCKED: REMARK    6  A    between atoms: C_9  and  C_10
DOCKED: REMARK    7  A    between atoms: C_10  and  C_11
DOCKED: REMARK    8  A    between atoms: N_12  and  C_13
DOCKED: REMARK                            x       y       z     vdW  Elec       q    Type
DOCKED: REMARK                         _______ _______ _______ _____ _____    ______ ____
DOCKED: USER                              x       y       z     vdW  Elec       q    Type
DOCKED: USER                           _______ _______ _______ _____ _____    ______ ____
DOCKED: ROOT
DOCKED: ATOM      1  C   UNL     1      27.955 -15.301   0.004 -0.28 -0.00    +0.000 C 
DOCKED: ENDROOT
DOCKED: BRANCH   1   2
DOCKED: ATOM      2  C   UNL     1      27.600 -14.455   1.190 -0.29 -0.00    +0.000 C 
DOCKED: ATOM      3  N   UNL     1      28.407 -14.510   2.376 -0.26 -0.00    +0.000 N 
DOCKED: ATOM      4  O   UNL     1      26.588 -13.705   1.132 -0.37 -0.00    +0.000 OA
DOCKED: ATOM      5  H   UNL     1      29.085 -15.220   2.440 -1.95 -0.00    +0.000 HD
DOCKED: BRANCH   3   6
DOCKED: ATOM      6  C   UNL     1      28.287 -13.594   3.478 -0.33 -0.00    +0.000 A 
DOCKED: ATOM      7  C   UNL     1      28.318 -12.214   3.239 -0.20 -0.00    +0.000 A 
DOCKED: ATOM      8  C   UNL     1      28.180 -11.315   4.298 -0.27 +0.00    +0.000 A 
DOCKED: ATOM      9  C   UNL     1      27.993 -11.805   5.590 -0.36 +0.00    +0.000 A 
DOCKED: ATOM     10  N   UNL     1      27.937 -13.145   5.807 -0.45 -0.00    +0.000 NA
DOCKED: ATOM     11  C   UNL     1      28.074 -14.042   4.794 -0.51 -0.00    +0.000 A 
DOCKED: ENDBRANCH   3   6
DOCKED: ENDBRANCH   1   2
DOCKED: BRANCH   1  12
DOCKED: ATOM     12  C   UNL     1      26.852 -16.334  -0.263 -0.43 -0.00    +0.000 C 
DOCKED: BRANCH  12  13
DOCKED: ATOM     13  C   UNL     1      25.789 -15.825  -1.253 -0.49 -0.00    +0.000 C 
DOCKED: BRANCH  13  14
DOCKED: ATOM     14  C   UNL     1      24.790 -16.900  -1.720 -0.64 -0.00    +0.000 C 
DOCKED: BRANCH  14  15
DOCKED: ATOM     15  C   UNL     1      23.410 -16.753  -1.056 -0.49 -0.00    +0.000 C 
DOCKED: BRANCH  15  16
DOCKED: ATOM     16  C   UNL     1      22.935 -18.059  -0.405 -0.81 -0.00    +0.000 C 
DOCKED: BRANCH  16  18
DOCKED: ATOM     17  O   UNL     1      20.579 -17.778  -0.707 -2.24 +0.00    +0.000 OA
DOCKED: ATOM     18  C   UNL     1      21.595 -18.491  -0.927 -0.81 -0.00    +0.000 C 
DOCKED: ATOM     19  N   UNL     1      21.462 -19.718  -1.648 -0.48 -0.00    +0.000 N 
DOCKED: ATOM     20  O   UNL     1      20.254 -20.110  -2.118 -2.26 -0.00    +0.000 OA
DOCKED: ATOM     21  H   UNL     1      22.254 -20.283  -1.804 -0.42 -0.00    +0.000 HD
DOCKED: ENDBRANCH  16  18
DOCKED: ENDBRANCH  15  16
DOCKED: ENDBRANCH  14  15
DOCKED: ENDBRANCH  13  14
DOCKED: ENDBRANCH  12  13
DOCKED: ENDBRANCH   1  12
DOCKED: TORSDOF 8
DOCKED: TER
DOCKED: ENDMDL
________________________________________________________________________________


	BEGINNING GENETIC ALGORITHM DOCKING 41 of 100
Run: 41 Seed: 759987372 1004098968 [ Run 41 of 100 GA/GALS ]
Beginning LAMARCKIAN GENETIC ALGORITHM (LGA), with a maximum of 2500000 energy evaluations.

Final-Value: -13.108


	FINAL GENETIC ALGORITHM DOCKED STATE
	_______________________________________________


Detailed state:  trans 26.048 -17.466 -1.020 quatxyzw 0.202792 -0.851665 -0.134250 -0.464240 center -0.033 -0.045 -0.218 ntor 8 150.8253 1.8697 31.2346 -89.1783 90.9904 -148.6531 -36.3870 -129.8081
State:	 26.048 -17.466  -1.020   0.229 -0.962 -0.152 -124.678    150.83    1.87   31.23  -89.18   90.99 -148.65  -36.39 -129.81

DOCKED: MODEL       41
DOCKED: USER    Run = 41
DOCKED: USER    DPF = ligand_dock.biased.dpf
DOCKED: USER  
DOCKED: USER    Estimated Free Energy of Binding    =   -9.83 kcal/mol  [=(1)+(2)+(3)-(4)]
DOCKED: USER    Estimated Inhibition Constant, Ki   =   62.48 nM (nanomolar)  [Temperature = 298.15 K]
DOCKED: USER    
DOCKED: USER    (1) Final Intermolecular Energy     =  -12.21 kcal/mol
DOCKED: USER        vdW + Hbond + desolv Energy     =  -12.21 kcal/mol
DOCKED: USER        Electrostatic Energy            =   +0.00 kcal/mol
DOCKED: USER    (2) Final Total Internal Energy     =   -0.89 kcal/mol
DOCKED: USER    (3) Torsional Free Energy           =   +2.39 kcal/mol
DOCKED: USER    (4) Unbound System's Energy  [=(2)] =   -0.89 kcal/mol
DOCKED: USER    
DOCKED: USER    
DOCKED: USER    NEWDPF move ligand.pdbqt
DOCKED: USER    NEWDPF about -0.033000 -0.045000 -0.218000
DOCKED: USER    NEWDPF tran0 26.047554 -17.466195 -1.020444
DOCKED: USER    NEWDPF quaternion0 0.202792 -0.851665 -0.134250 -0.464240
DOCKED: USER    NEWDPF axisangle0 0.228960 -0.961563 -0.151573 -124.677934
DOCKED: USER    NEWDPF quat0 0.228960 -0.961563 -0.151573 -124.677934
DOCKED: USER    NEWDPF dihe0 150.83 1.87 31.23 -89.18 90.99 -148.65 -36.39 -129.81 
DOCKED: USER  keepresnum = 1 
DOCKED: USER  
DOCKED: REMARK  Name = 
DOCKED: REMARK  8 active torsions:
DOCKED: REMARK  status: ('A' for Active; 'I' for Inactive)
DOCKED: REMARK    1  A    between atoms: C_2  and  C_5
DOCKED: REMARK    2  A    between atoms: C_5  and  C_6
DOCKED: REMARK    3  A    between atoms: C_6  and  C_7
DOCKED: REMARK    4  A    between atoms: C_7  and  C_8
DOCKED: REMARK    5  A    between atoms: C_8  and  C_9
DOCKED: REMARK    6  A    between atoms: C_9  and  C_10
DOCKED: REMARK    7  A    between atoms: C_10  and  C_11
DOCKED: REMARK    8  A    between atoms: N_12  and  C_13
DOCKED: REMARK                            x       y       z     vdW  Elec       q    Type
DOCKED: REMARK                         _______ _______ _______ _____ _____    ______ ____
DOCKED: USER                              x       y       z     vdW  Elec       q    Type
DOCKED: USER                           _______ _______ _______ _____ _____    ______ ____
DOCKED: ROOT
DOCKED: ATOM      1  C   UNL     1      25.997 -15.785  -0.556 -0.38 -0.00    +0.000 C 
DOCKED: ENDROOT
DOCKED: BRANCH   1   2
DOCKED: ATOM      2  C   UNL     1      26.493 -15.292  -1.883 -0.39 -0.00    +0.000 C 
DOCKED: ATOM      3  N   UNL     1      27.691 -15.845  -2.450 -0.27 -0.00    +0.000 N 
DOCKED: ATOM      4  O   UNL     1      25.851 -14.389  -2.486 -0.40 -0.00    +0.000 OA
DOCKED: ATOM      5  H   UNL     1      28.246 -16.424  -1.881 -0.01 -0.00    +0.000 HD
DOCKED: BRANCH   3   6
DOCKED: ATOM      6  C   UNL     1      28.132 -15.603  -3.797 -0.28 -0.00    +0.000 A 
DOCKED: ATOM      7  C   UNL     1      29.503 -15.605  -4.088 -0.19 -0.00    +0.000 A 
DOCKED: ATOM      8  C   UNL     1      29.943 -15.393  -5.396 -0.22 -0.00    +0.000 A 
DOCKED: ATOM      9  C   UNL     1      29.005 -15.200  -6.409 -0.32 -0.00    +0.000 A 
DOCKED: ATOM     10  N   UNL     1      27.677 -15.228  -6.121 -0.80 +0.00    +0.000 NA
DOCKED: ATOM     11  C   UNL     1      27.223 -15.426  -4.854 -0.38 -0.00    +0.000 A 
DOCKED: ENDBRANCH   3   6
DOCKED: ENDBRANCH   1   2
DOCKED: BRANCH   1  12
DOCKED: ATOM     12  C   UNL     1      24.646 -16.494  -0.723 -0.50 -0.00    +0.000 C 
DOCKED: BRANCH  12  13
DOCKED: ATOM     13  C   UNL     1      24.700 -17.641  -1.747 -0.65 -0.00    +0.000 C 
DOCKED: BRANCH  13  14
DOCKED: ATOM     14  C   UNL     1      23.918 -18.901  -1.332 -0.63 -0.00    +0.000 C 
DOCKED: BRANCH  14  15
DOCKED: ATOM     15  C   UNL     1      22.926 -18.631  -0.188 -0.78 -0.00    +0.000 C 
DOCKED: BRANCH  15  16
DOCKED: ATOM     16  C   UNL     1      21.536 -18.233  -0.702 -0.83 -0.00    +0.000 C 
DOCKED: BRANCH  16  18
DOCKED: ATOM     17  O   UNL     1      19.907 -19.628  -1.760 -2.28 -0.00    +0.000 OA
DOCKED: ATOM     18  C   UNL     1      20.592 -19.400  -0.727 -0.90 -0.00    +0.000 C 
DOCKED: ATOM     19  N   UNL     1      20.446 -20.236   0.424 -0.68 -0.00    +0.000 N 
DOCKED: ATOM     20  O   UNL     1      19.593 -21.288   0.403 -0.80 -0.00    +0.000 OA
DOCKED: ATOM     21  H   UNL     1      20.968 -20.046   1.237 -0.51 -0.00    +0.000 HD
DOCKED: ENDBRANCH  16  18
DOCKED: ENDBRANCH  15  16
DOCKED: ENDBRANCH  14  15
DOCKED: ENDBRANCH  13  14
DOCKED: ENDBRANCH  12  13
DOCKED: ENDBRANCH   1  12
DOCKED: TORSDOF 8
DOCKED: TER
DOCKED: ENDMDL
________________________________________________________________________________


	BEGINNING GENETIC ALGORITHM DOCKING 42 of 100
Run: 42 Seed: 870591372 60939100 [ Run 42 of 100 GA/GALS ]
Beginning LAMARCKIAN GENETIC ALGORITHM (LGA), with a maximum of 2500000 energy evaluations.

Final-Value: -12.633


	FINAL GENETIC ALGORITHM DOCKED STATE
	_______________________________________________


Detailed state:  trans 27.893 -14.859 -2.696 quatxyzw -0.633280 0.401881 0.648787 0.128544 center -0.033 -0.045 -0.218 ntor 8 72.0182 94.5022 96.6619 136.4677 -141.3743 96.0807 -178.7716 42.2525
State:	 27.893 -14.859  -2.696  -0.639  0.405  0.654 165.229     72.02   94.50   96.66  136.47 -141.37   96.08 -178.77   42.25

DOCKED: MODEL       42
DOCKED: USER    Run = 42
DOCKED: USER    DPF = ligand_dock.biased.dpf
DOCKED: USER  
DOCKED: USER    Estimated Free Energy of Binding    =   -9.34 kcal/mol  [=(1)+(2)+(3)-(4)]
DOCKED: USER    Estimated Inhibition Constant, Ki   =  143.66 nM (nanomolar)  [Temperature = 298.15 K]
DOCKED: USER    
DOCKED: USER    (1) Final Intermolecular Energy     =  -11.72 kcal/mol
DOCKED: USER        vdW + Hbond + desolv Energy     =  -11.72 kcal/mol
DOCKED: USER        Electrostatic Energy            =   +0.00 kcal/mol
DOCKED: USER    (2) Final Total Internal Energy     =   -0.91 kcal/mol
DOCKED: USER    (3) Torsional Free Energy           =   +2.39 kcal/mol
DOCKED: USER    (4) Unbound System's Energy  [=(2)] =   -0.91 kcal/mol
DOCKED: USER    
DOCKED: USER    
DOCKED: USER    NEWDPF move ligand.pdbqt
DOCKED: USER    NEWDPF about -0.033000 -0.045000 -0.218000
DOCKED: USER    NEWDPF tran0 27.893329 -14.859447 -2.696220
DOCKED: USER    NEWDPF quaternion0 -0.633280 0.401881 0.648787 0.128544
DOCKED: USER    NEWDPF axisangle0 -0.638578 0.405243 0.654215 165.229044
DOCKED: USER    NEWDPF quat0 -0.638578 0.405243 0.654215 165.229044
DOCKED: USER    NEWDPF dihe0 72.02 94.50 96.66 136.47 -141.37 96.08 -178.77 42.25 
DOCKED: USER  keepresnum = 1 
DOCKED: USER  
DOCKED: REMARK  Name = 
DOCKED: REMARK  8 active torsions:
DOCKED: REMARK  status: ('A' for Active; 'I' for Inactive)
DOCKED: REMARK    1  A    between atoms: C_2  and  C_5
DOCKED: REMARK    2  A    between atoms: C_5  and  C_6
DOCKED: REMARK    3  A    between atoms: C_6  and  C_7
DOCKED: REMARK    4  A    between atoms: C_7  and  C_8
DOCKED: REMARK    5  A    between atoms: C_8  and  C_9
DOCKED: REMARK    6  A    between atoms: C_9  and  C_10
DOCKED: REMARK    7  A    between atoms: C_10  and  C_11
DOCKED: REMARK    8  A    between atoms: N_12  and  C_13
DOCKED: REMARK                            x       y       z     vdW  Elec       q    Type
DOCKED: REMARK                         _______ _______ _______ _____ _____    ______ ____
DOCKED: USER                              x       y       z     vdW  Elec       q    Type
DOCKED: USER                           _______ _______ _______ _____ _____    ______ ____
DOCKED: ROOT
DOCKED: ATOM      1  C   UNL     1      27.513 -15.708  -1.220 -0.32 -0.00    +0.000 C 
DOCKED: ENDROOT
DOCKED: BRANCH   1   2
DOCKED: ATOM      2  C   UNL     1      27.545 -14.471  -0.373 -0.26 -0.00    +0.000 C 
DOCKED: ATOM      3  N   UNL     1      26.999 -14.498   0.955 -0.26 -0.00    +0.000 N 
DOCKED: ATOM      4  O   UNL     1      28.049 -13.414  -0.842 -0.14 -0.00    +0.000 OA
DOCKED: ATOM      5  H   UNL     1      26.474 -15.287   1.221 +0.08 -0.00    +0.000 HD
DOCKED: BRANCH   3   6
DOCKED: ATOM      6  C   UNL     1      27.169 -13.446   1.919 -0.28 -0.00    +0.000 A 
DOCKED: ATOM      7  C   UNL     1      27.844 -13.707   3.119 -0.34 -0.00    +0.000 A 
DOCKED: ATOM      8  C   UNL     1      28.033 -12.688   4.054 -0.32 -0.00    +0.000 A 
DOCKED: ATOM      9  C   UNL     1      27.562 -11.406   3.772 -0.26 +0.00    +0.000 A 
DOCKED: ATOM     10  N   UNL     1      26.933 -11.156   2.594 -0.31 +0.00    +0.000 NA
DOCKED: ATOM     11  C   UNL     1      26.730 -12.133   1.669 -0.30 +0.00    +0.000 A 
DOCKED: ENDBRANCH   3   6
DOCKED: ENDBRANCH   1   2
DOCKED: BRANCH   1  12
DOCKED: ATOM     12  C   UNL     1      26.393 -15.609  -2.265 -0.44 -0.00    +0.000 C 
DOCKED: BRANCH  12  13
DOCKED: ATOM     13  C   UNL     1      25.527 -16.879  -2.330 -0.52 -0.00    +0.000 C 
DOCKED: BRANCH  13  14
DOCKED: ATOM     14  C   UNL     1      25.532 -17.718  -1.039 -0.65 -0.00    +0.000 C 
DOCKED: BRANCH  14  15
DOCKED: ATOM     15  C   UNL     1      24.166 -18.364  -0.747 -0.79 -0.00    +0.000 C 
DOCKED: BRANCH  15  16
DOCKED: ATOM     16  C   UNL     1      23.002 -17.391  -0.974 -0.70 -0.00    +0.000 C 
DOCKED: BRANCH  16  18
DOCKED: ATOM     17  O   UNL     1      20.630 -17.535  -0.707 -2.11 +0.00    +0.000 OA
DOCKED: ATOM     18  C   UNL     1      21.687 -18.107  -1.086 -0.64 -0.00    +0.000 C 
DOCKED: ATOM     19  N   UNL     1      21.632 -19.442  -1.595 -0.63 -0.00    +0.000 N 
DOCKED: ATOM     20  O   UNL     1      20.446 -20.090  -1.695 -2.13 -0.00    +0.000 OA
DOCKED: ATOM     21  H   UNL     1      22.461 -19.894  -1.874 -0.42 -0.00    +0.000 HD
DOCKED: ENDBRANCH  16  18
DOCKED: ENDBRANCH  15  16
DOCKED: ENDBRANCH  14  15
DOCKED: ENDBRANCH  13  14
DOCKED: ENDBRANCH  12  13
DOCKED: ENDBRANCH   1  12
DOCKED: TORSDOF 8
DOCKED: TER
DOCKED: ENDMDL
________________________________________________________________________________


	BEGINNING GENETIC ALGORITHM DOCKING 43 of 100
Run: 43 Seed: 295681571 688611639 [ Run 43 of 100 GA/GALS ]
Beginning LAMARCKIAN GENETIC ALGORITHM (LGA), with a maximum of 2500000 energy evaluations.

Final-Value: -12.971


	FINAL GENETIC ALGORITHM DOCKED STATE
	_______________________________________________


Detailed state:  trans 26.935 -17.523 -1.215 quatxyzw 0.177903 0.917581 0.103929 0.339992 center -0.033 -0.045 -0.218 ntor 8 89.2977 64.3992 92.2148 -166.5224 -69.8603 -1.0994 117.3468 -60.2920
State:	 26.935 -17.523  -1.215   0.189  0.976  0.111 140.247     89.30   64.40   92.21 -166.52  -69.86   -1.10  117.35  -60.29

DOCKED: MODEL       43
DOCKED: USER    Run = 43
DOCKED: USER    DPF = ligand_dock.biased.dpf
DOCKED: USER  
DOCKED: USER    Estimated Free Energy of Binding    =   -9.82 kcal/mol  [=(1)+(2)+(3)-(4)]
DOCKED: USER    Estimated Inhibition Constant, Ki   =   63.36 nM (nanomolar)  [Temperature = 298.15 K]
DOCKED: USER    
DOCKED: USER    (1) Final Intermolecular Energy     =  -12.21 kcal/mol
DOCKED: USER        vdW + Hbond + desolv Energy     =  -12.21 kcal/mol
DOCKED: USER        Electrostatic Energy            =   +0.00 kcal/mol
DOCKED: USER    (2) Final Total Internal Energy     =   -0.76 kcal/mol
DOCKED: USER    (3) Torsional Free Energy           =   +2.39 kcal/mol
DOCKED: USER    (4) Unbound System's Energy  [=(2)] =   -0.76 kcal/mol
DOCKED: USER    
DOCKED: USER    
DOCKED: USER    NEWDPF move ligand.pdbqt
DOCKED: USER    NEWDPF about -0.033000 -0.045000 -0.218000
DOCKED: USER    NEWDPF tran0 26.934934 -17.523491 -1.214824
DOCKED: USER    NEWDPF quaternion0 0.177903 0.917581 0.103929 0.339992
DOCKED: USER    NEWDPF axisangle0 0.189172 0.975705 0.110512 140.247212
DOCKED: USER    NEWDPF quat0 0.189172 0.975705 0.110512 140.247212
DOCKED: USER    NEWDPF dihe0 89.30 64.40 92.21 -166.52 -69.86 -1.10 117.35 -60.29 
DOCKED: USER  keepresnum = 1 
DOCKED: USER  
DOCKED: REMARK  Name = 
DOCKED: REMARK  8 active torsions:
DOCKED: REMARK  status: ('A' for Active; 'I' for Inactive)
DOCKED: REMARK    1  A    between atoms: C_2  and  C_5
DOCKED: REMARK    2  A    between atoms: C_5  and  C_6
DOCKED: REMARK    3  A    between atoms: C_6  and  C_7
DOCKED: REMARK    4  A    between atoms: C_7  and  C_8
DOCKED: REMARK    5  A    between atoms: C_8  and  C_9
DOCKED: REMARK    6  A    between atoms: C_9  and  C_10
DOCKED: REMARK    7  A    between atoms: C_10  and  C_11
DOCKED: REMARK    8  A    between atoms: N_12  and  C_13
DOCKED: REMARK                            x       y       z     vdW  Elec       q    Type
DOCKED: REMARK                         _______ _______ _______ _____ _____    ______ ____
DOCKED: USER                              x       y       z     vdW  Elec       q    Type
DOCKED: USER                           _______ _______ _______ _____ _____    ______ ____
DOCKED: ROOT
DOCKED: ATOM      1  C   UNL     1      27.984 -16.131  -1.275 -0.33 -0.00    +0.000 C 
DOCKED: ENDROOT
DOCKED: BRANCH   1   2
DOCKED: ATOM      2  C   UNL     1      28.736 -16.614  -2.479 -0.27 -0.00    +0.000 C 
DOCKED: ATOM      3  N   UNL     1      28.446 -16.063  -3.773 -0.28 -0.00    +0.000 N 
DOCKED: ATOM      4  O   UNL     1      29.615 -17.509  -2.342 -0.26 -0.00    +0.000 OA
DOCKED: ATOM      5  H   UNL     1      27.650 -15.492  -3.863 -0.01 -0.00    +0.000 HD
DOCKED: BRANCH   3   6
DOCKED: ATOM      6  C   UNL     1      29.244 -16.294  -4.947 -0.28 -0.00    +0.000 A 
DOCKED: ATOM      7  C   UNL     1      29.348 -15.294  -5.922 -0.32 -0.00    +0.000 A 
DOCKED: ATOM      8  C   UNL     1      30.137 -15.498  -7.056 -0.27 -0.00    +0.000 A 
DOCKED: ATOM      9  C   UNL     1      30.834 -16.699  -7.196 -0.29 -0.00    +0.000 A 
DOCKED: ATOM     10  N   UNL     1      30.748 -17.652  -6.231 -0.30 -0.00    +0.000 NA
DOCKED: ATOM     11  C   UNL     1      29.981 -17.479  -5.120 -0.28 -0.00    +0.000 A 
DOCKED: ENDBRANCH   3   6
DOCKED: ENDBRANCH   1   2
DOCKED: BRANCH   1  12
DOCKED: ATOM     12  C   UNL     1      26.509 -15.897  -1.627 -0.44 -0.00    +0.000 C 
DOCKED: BRANCH  12  13
DOCKED: ATOM     13  C   UNL     1      25.549 -16.670  -0.706 -0.55 -0.00    +0.000 C 
DOCKED: BRANCH  13  14
DOCKED: ATOM     14  C   UNL     1      25.504 -18.187  -0.965 -0.60 -0.00    +0.000 C 
DOCKED: BRANCH  14  15
DOCKED: ATOM     15  C   UNL     1      24.100 -18.781  -0.758 -0.73 -0.00    +0.000 C 
DOCKED: BRANCH  15  16
DOCKED: ATOM     16  C   UNL     1      23.016 -17.699  -0.667 -0.79 -0.00    +0.000 C 
DOCKED: BRANCH  16  18
DOCKED: ATOM     17  O   UNL     1      20.630 -17.557  -0.708 -2.13 +0.00    +0.000 OA
DOCKED: ATOM     18  C   UNL     1      21.652 -18.244  -0.977 -0.75 -0.00    +0.000 C 
DOCKED: ATOM     19  N   UNL     1      21.506 -19.545  -1.549 -0.61 -0.00    +0.000 N 
DOCKED: ATOM     20  O   UNL     1      20.276 -20.038  -1.828 -2.30 -0.00    +0.000 OA
DOCKED: ATOM     21  H   UNL     1      22.305 -20.088  -1.742 -0.44 -0.00    +0.000 HD
DOCKED: ENDBRANCH  16  18
DOCKED: ENDBRANCH  15  16
DOCKED: ENDBRANCH  14  15
DOCKED: ENDBRANCH  13  14
DOCKED: ENDBRANCH  12  13
DOCKED: ENDBRANCH   1  12
DOCKED: TORSDOF 8
DOCKED: TER
DOCKED: ENDMDL
________________________________________________________________________________


	BEGINNING GENETIC ALGORITHM DOCKING 44 of 100
Run: 44 Seed: 777841786 1040631317 [ Run 44 of 100 GA/GALS ]
Beginning LAMARCKIAN GENETIC ALGORITHM (LGA), with a maximum of 2500000 energy evaluations.

Final-Value: -13.408


	FINAL GENETIC ALGORITHM DOCKED STATE
	_______________________________________________


Detailed state:  trans 27.103 -15.065 -2.082 quatxyzw -0.514419 0.068577 0.714914 0.468580 center -0.033 -0.045 -0.218 ntor 8 -76.8809 -179.8444 -174.7600 50.2411 -171.9451 -133.5389 175.5340 174.4771
State:	 27.103 -15.065  -2.082  -0.582  0.078  0.809 124.116    -76.88 -179.84 -174.76   50.24 -171.95 -133.54  175.53  174.48

DOCKED: MODEL       44
DOCKED: USER    Run = 44
DOCKED: USER    DPF = ligand_dock.biased.dpf
DOCKED: USER  
DOCKED: USER    Estimated Free Energy of Binding    =  -10.22 kcal/mol  [=(1)+(2)+(3)-(4)]
DOCKED: USER    Estimated Inhibition Constant, Ki   =   32.09 nM (nanomolar)  [Temperature = 298.15 K]
DOCKED: USER    
DOCKED: USER    (1) Final Intermolecular Energy     =  -12.61 kcal/mol
DOCKED: USER        vdW + Hbond + desolv Energy     =  -12.61 kcal/mol
DOCKED: USER        Electrostatic Energy            =   +0.00 kcal/mol
DOCKED: USER    (2) Final Total Internal Energy     =   -0.80 kcal/mol
DOCKED: USER    (3) Torsional Free Energy           =   +2.39 kcal/mol
DOCKED: USER    (4) Unbound System's Energy  [=(2)] =   -0.80 kcal/mol
DOCKED: USER    
DOCKED: USER    
DOCKED: USER    NEWDPF move ligand.pdbqt
DOCKED: USER    NEWDPF about -0.033000 -0.045000 -0.218000
DOCKED: USER    NEWDPF tran0 27.103174 -15.065324 -2.081586
DOCKED: USER    NEWDPF quaternion0 -0.514419 0.068577 0.714914 0.468580
DOCKED: USER    NEWDPF axisangle0 -0.582304 0.077627 0.809257 124.115687
DOCKED: USER    NEWDPF quat0 -0.582304 0.077627 0.809257 124.115687
DOCKED: USER    NEWDPF dihe0 -76.88 -179.84 -174.76 50.24 -171.95 -133.54 175.53 174.48 
DOCKED: USER  keepresnum = 1 
DOCKED: USER  
DOCKED: REMARK  Name = 
DOCKED: REMARK  8 active torsions:
DOCKED: REMARK  status: ('A' for Active; 'I' for Inactive)
DOCKED: REMARK    1  A    between atoms: C_2  and  C_5
DOCKED: REMARK    2  A    between atoms: C_5  and  C_6
DOCKED: REMARK    3  A    between atoms: C_6  and  C_7
DOCKED: REMARK    4  A    between atoms: C_7  and  C_8
DOCKED: REMARK    5  A    between atoms: C_8  and  C_9
DOCKED: REMARK    6  A    between atoms: C_9  and  C_10
DOCKED: REMARK    7  A    between atoms: C_10  and  C_11
DOCKED: REMARK    8  A    between atoms: N_12  and  C_13
DOCKED: REMARK                            x       y       z     vdW  Elec       q    Type
DOCKED: REMARK                         _______ _______ _______ _____ _____    ______ ____
DOCKED: USER                              x       y       z     vdW  Elec       q    Type
DOCKED: USER                           _______ _______ _______ _____ _____    ______ ____
DOCKED: ROOT
DOCKED: ATOM      1  C   UNL     1      28.237 -15.629  -0.881 -0.27 -0.00    +0.000 C 
DOCKED: ENDROOT
DOCKED: BRANCH   1   2
DOCKED: ATOM      2  C   UNL     1      27.900 -14.548   0.102 -0.25 -0.00    +0.000 C 
DOCKED: ATOM      3  N   UNL     1      28.223 -14.717   1.491 -0.24 -0.00    +0.000 N 
DOCKED: ATOM      4  O   UNL     1      27.329 -13.499  -0.305 -0.22 -0.00    +0.000 OA
DOCKED: ATOM      5  H   UNL     1      28.516 -15.607   1.791 -1.22 -0.00    +0.000 HD
DOCKED: BRANCH   3   6
DOCKED: ATOM      6  C   UNL     1      28.142 -13.669   2.472 -0.26 -0.00    +0.000 A 
DOCKED: ATOM      7  C   UNL     1      28.397 -12.344   2.094 -0.15 -0.00    +0.000 A 
DOCKED: ATOM      8  C   UNL     1      28.301 -11.316   3.033 -0.17 +0.00    +0.000 A 
DOCKED: ATOM      9  C   UNL     1      27.930 -11.619   4.342 -0.30 +0.00    +0.000 A 
DOCKED: ATOM     10  N   UNL     1      27.658 -12.904   4.692 -0.42 -0.00    +0.000 NA
DOCKED: ATOM     11  C   UNL     1      27.751 -13.925   3.798 -0.45 -0.00    +0.000 A 
DOCKED: ENDBRANCH   3   6
DOCKED: ENDBRANCH   1   2
DOCKED: BRANCH   1  12
DOCKED: ATOM     12  C   UNL     1      27.011 -16.515  -1.139 -0.45 -0.00    +0.000 C 
DOCKED: BRANCH  12  13
DOCKED: ATOM     13  C   UNL     1      25.778 -16.072  -0.333 -0.25 -0.00    +0.000 C 
DOCKED: BRANCH  13  14
DOCKED: ATOM     14  C   UNL     1      24.430 -16.468  -0.963 -0.50 -0.00    +0.000 C 
DOCKED: BRANCH  14  15
DOCKED: ATOM     15  C   UNL     1      23.665 -17.503  -0.121 -0.51 -0.00    +0.000 C 
DOCKED: BRANCH  15  16
DOCKED: ATOM     16  C   UNL     1      23.193 -18.700  -0.958 -0.82 -0.00    +0.000 C 
DOCKED: BRANCH  16  18
DOCKED: ATOM     17  O   UNL     1      21.016 -17.750  -0.683 -2.10 -0.00    +0.000 OA
DOCKED: ATOM     18  C   UNL     1      21.706 -18.687  -1.168 -0.73 -0.00    +0.000 C 
DOCKED: ATOM     19  N   UNL     1      21.068 -19.743  -1.889 -0.58 -0.00    +0.000 N 
DOCKED: ATOM     20  O   UNL     1      19.727 -19.733  -2.077 -2.19 -0.00    +0.000 OA
DOCKED: ATOM     21  H   UNL     1      21.607 -20.484  -2.251 -0.53 -0.00    +0.000 HD
DOCKED: ENDBRANCH  16  18
DOCKED: ENDBRANCH  15  16
DOCKED: ENDBRANCH  14  15
DOCKED: ENDBRANCH  13  14
DOCKED: ENDBRANCH  12  13
DOCKED: ENDBRANCH   1  12
DOCKED: TORSDOF 8
DOCKED: TER
DOCKED: ENDMDL
________________________________________________________________________________


	BEGINNING GENETIC ALGORITHM DOCKING 45 of 100
Run: 45 Seed: 1664089597 206874714 [ Run 45 of 100 GA/GALS ]
Beginning LAMARCKIAN GENETIC ALGORITHM (LGA), with a maximum of 2500000 energy evaluations.

Final-Value: -13.631


	FINAL GENETIC ALGORITHM DOCKED STATE
	_______________________________________________


Detailed state:  trans 25.995 -15.526 -1.705 quatxyzw 0.326529 -0.765518 0.551077 -0.060627 center -0.033 -0.045 -0.218 ntor 8 170.8136 -31.0513 91.7925 30.6762 100.6471 -164.4944 135.4506 -112.2732
State:	 25.995 -15.526  -1.705   0.327 -0.767  0.552 -173.048    170.81  -31.05   91.79   30.68  100.65 -164.49  135.45 -112.27

DOCKED: MODEL       45
DOCKED: USER    Run = 45
DOCKED: USER    DPF = ligand_dock.biased.dpf
DOCKED: USER  
DOCKED: USER    Estimated Free Energy of Binding    =  -10.38 kcal/mol  [=(1)+(2)+(3)-(4)]
DOCKED: USER    Estimated Inhibition Constant, Ki   =   24.43 nM (nanomolar)  [Temperature = 298.15 K]
DOCKED: USER    
DOCKED: USER    (1) Final Intermolecular Energy     =  -12.77 kcal/mol
DOCKED: USER        vdW + Hbond + desolv Energy     =  -12.77 kcal/mol
DOCKED: USER        Electrostatic Energy            =   +0.00 kcal/mol
DOCKED: USER    (2) Final Total Internal Energy     =   -0.86 kcal/mol
DOCKED: USER    (3) Torsional Free Energy           =   +2.39 kcal/mol
DOCKED: USER    (4) Unbound System's Energy  [=(2)] =   -0.86 kcal/mol
DOCKED: USER    
DOCKED: USER    
DOCKED: USER    NEWDPF move ligand.pdbqt
DOCKED: USER    NEWDPF about -0.033000 -0.045000 -0.218000
DOCKED: USER    NEWDPF tran0 25.994680 -15.526386 -1.704576
DOCKED: USER    NEWDPF quaternion0 0.326529 -0.765518 0.551077 -0.060627
DOCKED: USER    NEWDPF axisangle0 0.327130 -0.766928 0.552093 -173.048410
DOCKED: USER    NEWDPF quat0 0.327130 -0.766928 0.552093 -173.048410
DOCKED: USER    NEWDPF dihe0 170.81 -31.05 91.79 30.68 100.65 -164.49 135.45 -112.27 
DOCKED: USER  keepresnum = 1 
DOCKED: USER  
DOCKED: REMARK  Name = 
DOCKED: REMARK  8 active torsions:
DOCKED: REMARK  status: ('A' for Active; 'I' for Inactive)
DOCKED: REMARK    1  A    between atoms: C_2  and  C_5
DOCKED: REMARK    2  A    between atoms: C_5  and  C_6
DOCKED: REMARK    3  A    between atoms: C_6  and  C_7
DOCKED: REMARK    4  A    between atoms: C_7  and  C_8
DOCKED: REMARK    5  A    between atoms: C_8  and  C_9
DOCKED: REMARK    6  A    between atoms: C_9  and  C_10
DOCKED: REMARK    7  A    between atoms: C_10  and  C_11
DOCKED: REMARK    8  A    between atoms: N_12  and  C_13
DOCKED: REMARK                            x       y       z     vdW  Elec       q    Type
DOCKED: REMARK                         _______ _______ _______ _____ _____    ______ ____
DOCKED: USER                              x       y       z     vdW  Elec       q    Type
DOCKED: USER                           _______ _______ _______ _____ _____    ______ ____
DOCKED: ROOT
DOCKED: ATOM      1  C   UNL     1      25.332 -14.919  -3.200 -0.50 -0.00    +0.000 C 
DOCKED: ENDROOT
DOCKED: BRANCH   1   2
DOCKED: ATOM      2  C   UNL     1      26.674 -14.604  -3.792 -0.43 -0.00    +0.000 C 
DOCKED: ATOM      3  N   UNL     1      27.083 -15.234  -5.016 -0.49 -0.00    +0.000 N 
DOCKED: ATOM      4  O   UNL     1      27.434 -13.789  -3.201 -0.21 -0.00    +0.000 OA
DOCKED: ATOM      5  H   UNL     1      26.536 -15.979  -5.356 -0.07 +0.00    +0.000 HD
DOCKED: BRANCH   3   6
DOCKED: ATOM      6  C   UNL     1      28.241 -14.848  -5.775 -0.37 -0.00    +0.000 A 
DOCKED: ATOM      7  C   UNL     1      29.294 -15.758  -5.944 -0.33 -0.00    +0.000 A 
DOCKED: ATOM      8  C   UNL     1      30.414 -15.402  -6.697 -0.27 -0.00    +0.000 A 
DOCKED: ATOM      9  C   UNL     1      30.464 -14.142  -7.294 -0.21 -0.00    +0.000 A 
DOCKED: ATOM     10  N   UNL     1      29.426 -13.278  -7.147 -0.23 -0.00    +0.000 NA
DOCKED: ATOM     11  C   UNL     1      28.326 -13.598  -6.413 -0.25 -0.00    +0.000 A 
DOCKED: ENDBRANCH   3   6
DOCKED: ENDBRANCH   1   2
DOCKED: BRANCH   1  12
DOCKED: ATOM     12  C   UNL     1      25.201 -16.428  -2.952 -0.36 -0.00    +0.000 C 
DOCKED: BRANCH  12  13
DOCKED: ATOM     13  C   UNL     1      26.044 -16.908  -1.757 -0.53 -0.00    +0.000 C 
DOCKED: BRANCH  13  14
DOCKED: ATOM     14  C   UNL     1      25.238 -17.632  -0.662 -0.68 -0.00    +0.000 C 
DOCKED: BRANCH  14  15
DOCKED: ATOM     15  C   UNL     1      23.956 -18.286  -1.205 -0.78 -0.00    +0.000 C 
DOCKED: BRANCH  15  16
DOCKED: ATOM     16  C   UNL     1      22.836 -18.331  -0.157 -0.80 -0.00    +0.000 C 
DOCKED: BRANCH  16  18
DOCKED: ATOM     17  O   UNL     1      20.665 -17.507  -0.730 -2.10 +0.00    +0.000 OA
DOCKED: ATOM     18  C   UNL     1      21.481 -18.467  -0.790 -0.83 -0.00    +0.000 C 
DOCKED: ATOM     19  N   UNL     1      21.103 -19.685  -1.433 -0.72 -0.00    +0.000 N 
DOCKED: ATOM     20  O   UNL     1      19.880 -19.809  -2.003 -2.31 -0.00    +0.000 OA
DOCKED: ATOM     21  H   UNL     1      21.734 -20.440  -1.463 -0.30 -0.00    +0.000 HD
DOCKED: ENDBRANCH  16  18
DOCKED: ENDBRANCH  15  16
DOCKED: ENDBRANCH  14  15
DOCKED: ENDBRANCH  13  14
DOCKED: ENDBRANCH  12  13
DOCKED: ENDBRANCH   1  12
DOCKED: TORSDOF 8
DOCKED: TER
DOCKED: ENDMDL
________________________________________________________________________________


	BEGINNING GENETIC ALGORITHM DOCKING 46 of 100
Run: 46 Seed: 569419985 1475414821 [ Run 46 of 100 GA/GALS ]
Beginning LAMARCKIAN GENETIC ALGORITHM (LGA), with a maximum of 2500000 energy evaluations.

Final-Value: -13.860


	FINAL GENETIC ALGORITHM DOCKED STATE
	_______________________________________________


Detailed state:  trans 25.368 -14.798 -0.276 quatxyzw 0.336529 0.255537 -0.737791 -0.526416 center -0.033 -0.045 -0.218 ntor 8 -179.9005 175.2855 59.6999 179.9804 -172.6743 175.3845 165.7229 -71.8337
State:	 25.368 -14.798  -0.276   0.396  0.301 -0.868 -116.473   -179.90  175.29   59.70  179.98 -172.67  175.38  165.72  -71.83

DOCKED: MODEL       46
DOCKED: USER    Run = 46
DOCKED: USER    DPF = ligand_dock.biased.dpf
DOCKED: USER  
DOCKED: USER    Estimated Free Energy of Binding    =  -10.70 kcal/mol  [=(1)+(2)+(3)-(4)]
DOCKED: USER    Estimated Inhibition Constant, Ki   =   14.27 nM (nanomolar)  [Temperature = 298.15 K]
DOCKED: USER    
DOCKED: USER    (1) Final Intermolecular Energy     =  -13.09 kcal/mol
DOCKED: USER        vdW + Hbond + desolv Energy     =  -13.09 kcal/mol
DOCKED: USER        Electrostatic Energy            =   +0.00 kcal/mol
DOCKED: USER    (2) Final Total Internal Energy     =   -0.77 kcal/mol
DOCKED: USER    (3) Torsional Free Energy           =   +2.39 kcal/mol
DOCKED: USER    (4) Unbound System's Energy  [=(2)] =   -0.77 kcal/mol
DOCKED: USER    
DOCKED: USER    
DOCKED: USER    NEWDPF move ligand.pdbqt
DOCKED: USER    NEWDPF about -0.033000 -0.045000 -0.218000
DOCKED: USER    NEWDPF tran0 25.367976 -14.798151 -0.275985
DOCKED: USER    NEWDPF quaternion0 0.336529 0.255537 -0.737791 -0.526416
DOCKED: USER    NEWDPF axisangle0 0.395810 0.300551 -0.867758 -116.472724
DOCKED: USER    NEWDPF quat0 0.395810 0.300551 -0.867758 -116.472724
DOCKED: USER    NEWDPF dihe0 -179.90 175.29 59.70 179.98 -172.67 175.38 165.72 -71.83 
DOCKED: USER  keepresnum = 1 
DOCKED: USER  
DOCKED: REMARK  Name = 
DOCKED: REMARK  8 active torsions:
DOCKED: REMARK  status: ('A' for Active; 'I' for Inactive)
DOCKED: REMARK    1  A    between atoms: C_2  and  C_5
DOCKED: REMARK    2  A    between atoms: C_5  and  C_6
DOCKED: REMARK    3  A    between atoms: C_6  and  C_7
DOCKED: REMARK    4  A    between atoms: C_7  and  C_8
DOCKED: REMARK    5  A    between atoms: C_8  and  C_9
DOCKED: REMARK    6  A    between atoms: C_9  and  C_10
DOCKED: REMARK    7  A    between atoms: C_10  and  C_11
DOCKED: REMARK    8  A    between atoms: N_12  and  C_13
DOCKED: REMARK                            x       y       z     vdW  Elec       q    Type
DOCKED: REMARK                         _______ _______ _______ _____ _____    ______ ____
DOCKED: USER                              x       y       z     vdW  Elec       q    Type
DOCKED: USER                           _______ _______ _______ _____ _____    ______ ____
DOCKED: ROOT
DOCKED: ATOM      1  C   UNL     1      27.093 -14.973  -0.078 -0.33 -0.00    +0.000 C 
DOCKED: ENDROOT
DOCKED: BRANCH   1   2
DOCKED: ATOM      2  C   UNL     1      27.124 -14.250   1.236 -0.20 -0.00    +0.000 C 
DOCKED: ATOM      3  N   UNL     1      28.122 -14.583   2.213 -0.27 -0.00    +0.000 N 
DOCKED: ATOM      4  O   UNL     1      26.265 -13.356   1.470 -0.40 -0.00    +0.000 OA
DOCKED: ATOM      5  H   UNL     1      28.667 -15.388   2.060 -1.53 -0.00    +0.000 HD
DOCKED: BRANCH   3   6
DOCKED: ATOM      6  C   UNL     1      28.376 -13.815   3.401 -0.33 -0.00    +0.000 A 
DOCKED: ATOM      7  C   UNL     1      28.288 -12.417   3.356 -0.22 -0.00    +0.000 A 
DOCKED: ATOM      8  C   UNL     1      28.511 -11.662   4.509 -0.24 +0.00    +0.000 A 
DOCKED: ATOM      9  C   UNL     1      28.803 -12.315   5.707 -0.32 -0.00    +0.000 A 
DOCKED: ATOM     10  N   UNL     1      28.859 -13.672   5.746 -0.43 -0.00    +0.000 NA
DOCKED: ATOM     11  C   UNL     1      28.652 -14.430   4.636 -0.47 -0.00    +0.000 A 
DOCKED: ENDBRANCH   3   6
DOCKED: ENDBRANCH   1   2
DOCKED: BRANCH   1  12
DOCKED: ATOM     12  C   UNL     1      26.253 -16.252   0.039 -0.08 -0.00    +0.000 C 
DOCKED: BRANCH  12  13
DOCKED: ATOM     13  C   UNL     1      24.966 -16.197  -0.803 -0.45 -0.00    +0.000 C 
DOCKED: BRANCH  13  14
DOCKED: ATOM     14  C   UNL     1      25.028 -17.008  -2.111 -0.60 -0.00    +0.000 C 
DOCKED: BRANCH  14  15
DOCKED: ATOM     15  C   UNL     1      24.083 -18.222  -2.100 -0.37 -0.00    +0.000 C 
DOCKED: BRANCH  15  16
DOCKED: ATOM     16  C   UNL     1      23.301 -18.340  -0.785 -0.82 -0.00    +0.000 C 
DOCKED: BRANCH  16  18
DOCKED: ATOM     17  O   UNL     1      21.100 -17.407  -0.829 -1.89 -0.00    +0.000 OA
DOCKED: ATOM     18  C   UNL     1      21.820 -18.424  -1.018 -0.78 -0.00    +0.000 C 
DOCKED: ATOM     19  N   UNL     1      21.221 -19.655  -1.426 -0.69 -0.00    +0.000 N 
DOCKED: ATOM     20  O   UNL     1      19.885 -19.732  -1.636 -2.33 -0.00    +0.000 OA
DOCKED: ATOM     21  H   UNL     1      21.782 -20.454  -1.556 -0.32 -0.00    +0.000 HD
DOCKED: ENDBRANCH  16  18
DOCKED: ENDBRANCH  15  16
DOCKED: ENDBRANCH  14  15
DOCKED: ENDBRANCH  13  14
DOCKED: ENDBRANCH  12  13
DOCKED: ENDBRANCH   1  12
DOCKED: TORSDOF 8
DOCKED: TER
DOCKED: ENDMDL
________________________________________________________________________________


	BEGINNING GENETIC ALGORITHM DOCKING 47 of 100
Run: 47 Seed: 986649863 1603254488 [ Run 47 of 100 GA/GALS ]
Beginning LAMARCKIAN GENETIC ALGORITHM (LGA), with a maximum of 2500000 energy evaluations.

Final-Value: -12.297


	FINAL GENETIC ALGORITHM DOCKED STATE
	_______________________________________________


Detailed state:  trans 27.770 -18.565 -1.207 quatxyzw -0.253161 0.738991 0.125182 0.611662 center -0.033 -0.045 -0.218 ntor 8 24.3485 60.9679 179.7500 -16.6641 156.1268 -158.1544 -83.1589 109.0838
State:	 27.770 -18.565  -1.207  -0.320  0.934  0.158 104.580     24.35   60.97  179.75  -16.66  156.13 -158.15  -83.16  109.08

DOCKED: MODEL       47
DOCKED: USER    Run = 47
DOCKED: USER    DPF = ligand_dock.biased.dpf
DOCKED: USER  
DOCKED: USER    Estimated Free Energy of Binding    =   -9.30 kcal/mol  [=(1)+(2)+(3)-(4)]
DOCKED: USER    Estimated Inhibition Constant, Ki   =  153.05 nM (nanomolar)  [Temperature = 298.15 K]
DOCKED: USER    
DOCKED: USER    (1) Final Intermolecular Energy     =  -11.68 kcal/mol
DOCKED: USER        vdW + Hbond + desolv Energy     =  -11.68 kcal/mol
DOCKED: USER        Electrostatic Energy            =   +0.00 kcal/mol
DOCKED: USER    (2) Final Total Internal Energy     =   -0.61 kcal/mol
DOCKED: USER    (3) Torsional Free Energy           =   +2.39 kcal/mol
DOCKED: USER    (4) Unbound System's Energy  [=(2)] =   -0.61 kcal/mol
DOCKED: USER    
DOCKED: USER    
DOCKED: USER    NEWDPF move ligand.pdbqt
DOCKED: USER    NEWDPF about -0.033000 -0.045000 -0.218000
DOCKED: USER    NEWDPF tran0 27.769650 -18.564565 -1.207165
DOCKED: USER    NEWDPF quaternion0 -0.253161 0.738991 0.125182 0.611662
DOCKED: USER    NEWDPF axisangle0 -0.320004 0.934109 0.158234 104.580432
DOCKED: USER    NEWDPF quat0 -0.320004 0.934109 0.158234 104.580432
DOCKED: USER    NEWDPF dihe0 24.35 60.97 179.75 -16.66 156.13 -158.15 -83.16 109.08 
DOCKED: USER  keepresnum = 1 
DOCKED: USER  
DOCKED: REMARK  Name = 
DOCKED: REMARK  8 active torsions:
DOCKED: REMARK  status: ('A' for Active; 'I' for Inactive)
DOCKED: REMARK    1  A    between atoms: C_2  and  C_5
DOCKED: REMARK    2  A    between atoms: C_5  and  C_6
DOCKED: REMARK    3  A    between atoms: C_6  and  C_7
DOCKED: REMARK    4  A    between atoms: C_7  and  C_8
DOCKED: REMARK    5  A    between atoms: C_8  and  C_9
DOCKED: REMARK    6  A    between atoms: C_9  and  C_10
DOCKED: REMARK    7  A    between atoms: C_10  and  C_11
DOCKED: REMARK    8  A    between atoms: N_12  and  C_13
DOCKED: REMARK                            x       y       z     vdW  Elec       q    Type
DOCKED: REMARK                         _______ _______ _______ _____ _____    ______ ____
DOCKED: USER                              x       y       z     vdW  Elec       q    Type
DOCKED: USER                           _______ _______ _______ _____ _____    ______ ____
DOCKED: ROOT
DOCKED: ATOM      1  C   UNL     1      27.582 -16.906  -0.699 -0.43 -0.00    +0.000 C 
DOCKED: ENDROOT
DOCKED: BRANCH   1   2
DOCKED: ATOM      2  C   UNL     1      27.513 -16.371  -2.098 -0.36 -0.00    +0.000 C 
DOCKED: ATOM      3  N   UNL     1      28.684 -15.806  -2.707 -0.21 -0.00    +0.000 N 
DOCKED: ATOM      4  O   UNL     1      26.420 -16.420  -2.726 -0.46 -0.00    +0.000 OA
DOCKED: ATOM      5  H   UNL     1      29.467 -15.639  -2.134 +0.00 -0.00    +0.000 HD
DOCKED: BRANCH   3   6
DOCKED: ATOM      6  C   UNL     1      28.786 -15.465  -4.100 -0.24 -0.00    +0.000 A 
DOCKED: ATOM      7  C   UNL     1      30.036 -15.503  -4.733 -0.17 -0.00    +0.000 A 
DOCKED: ATOM      8  C   UNL     1      30.144 -15.195  -6.090 -0.24 -0.00    +0.000 A 
DOCKED: ATOM      9  C   UNL     1      28.995 -14.870  -6.811 -0.25 -0.00    +0.000 A 
DOCKED: ATOM     10  N   UNL     1      27.784 -14.864  -6.194 -0.65 +0.00    +0.000 NA
DOCKED: ATOM     11  C   UNL     1      27.653 -15.153  -4.871 -0.39 -0.00    +0.000 A 
DOCKED: ENDBRANCH   3   6
DOCKED: ENDBRANCH   1   2
DOCKED: BRANCH   1  12
DOCKED: ATOM     12  C   UNL     1      26.399 -17.846  -0.430 -0.61 -0.00    +0.000 C 
DOCKED: BRANCH  12  13
DOCKED: ATOM     13  C   UNL     1      25.043 -17.118  -0.456 -0.55 -0.00    +0.000 C 
DOCKED: BRANCH  13  14
DOCKED: ATOM     14  C   UNL     1      23.981 -17.786  -1.348 -0.75 -0.00    +0.000 C 
DOCKED: BRANCH  14  15
DOCKED: ATOM     15  C   UNL     1      23.277 -18.963  -0.650 -0.79 -0.00    +0.000 C 
DOCKED: BRANCH  15  16
DOCKED: ATOM     16  C   UNL     1      21.970 -19.358  -1.350 -0.66 -0.00    +0.000 C 
DOCKED: BRANCH  16  18
DOCKED: ATOM     17  O   UNL     1      20.060 -18.069  -0.710 -2.02 -0.00    +0.000 OA
DOCKED: ATOM     18  C   UNL     1      20.770 -19.087  -0.490 -0.87 -0.00    +0.000 C 
DOCKED: ATOM     19  N   UNL     1      20.444 -19.962   0.593 -0.68 -0.00    +0.000 N 
DOCKED: ATOM     20  O   UNL     1      19.362 -19.717   1.370 -0.75 -0.00    +0.000 OA
DOCKED: ATOM     21  H   UNL     1      21.009 -20.747   0.776 -0.59 -0.00    +0.000 HD
DOCKED: ENDBRANCH  16  18
DOCKED: ENDBRANCH  15  16
DOCKED: ENDBRANCH  14  15
DOCKED: ENDBRANCH  13  14
DOCKED: ENDBRANCH  12  13
DOCKED: ENDBRANCH   1  12
DOCKED: TORSDOF 8
DOCKED: TER
DOCKED: ENDMDL
________________________________________________________________________________


	BEGINNING GENETIC ALGORITHM DOCKING 48 of 100
Run: 48 Seed: 1864197677 1813501970 [ Run 48 of 100 GA/GALS ]
Beginning LAMARCKIAN GENETIC ALGORITHM (LGA), with a maximum of 2500000 energy evaluations.

Final-Value: -14.380


	FINAL GENETIC ALGORITHM DOCKED STATE
	_______________________________________________


Detailed state:  trans 26.399 -15.972 -1.785 quatxyzw -0.259646 0.760140 -0.463028 0.374670 center -0.033 -0.045 -0.218 ntor 8 124.8795 -62.6864 80.9484 143.4740 10.1864 -74.8491 -35.7867 -74.5074
State:	 26.399 -15.972  -1.785  -0.280  0.820 -0.499 135.992    124.88  -62.69   80.95  143.47   10.19  -74.85  -35.79  -74.51

DOCKED: MODEL       48
DOCKED: USER    Run = 48
DOCKED: USER    DPF = ligand_dock.biased.dpf
DOCKED: USER  
DOCKED: USER    Estimated Free Energy of Binding    =  -11.06 kcal/mol  [=(1)+(2)+(3)-(4)]
DOCKED: USER    Estimated Inhibition Constant, Ki   =    7.78 nM (nanomolar)  [Temperature = 298.15 K]
DOCKED: USER    
DOCKED: USER    (1) Final Intermolecular Energy     =  -13.45 kcal/mol
DOCKED: USER        vdW + Hbond + desolv Energy     =  -13.45 kcal/mol
DOCKED: USER        Electrostatic Energy            =   +0.00 kcal/mol
DOCKED: USER    (2) Final Total Internal Energy     =   -0.93 kcal/mol
DOCKED: USER    (3) Torsional Free Energy           =   +2.39 kcal/mol
DOCKED: USER    (4) Unbound System's Energy  [=(2)] =   -0.93 kcal/mol
DOCKED: USER    
DOCKED: USER    
DOCKED: USER    NEWDPF move ligand.pdbqt
DOCKED: USER    NEWDPF about -0.033000 -0.045000 -0.218000
DOCKED: USER    NEWDPF tran0 26.399270 -15.971930 -1.785116
DOCKED: USER    NEWDPF quaternion0 -0.259646 0.760140 -0.463028 0.374670
DOCKED: USER    NEWDPF axisangle0 -0.280045 0.819859 -0.499405 135.992193
DOCKED: USER    NEWDPF quat0 -0.280045 0.819859 -0.499405 135.992193
DOCKED: USER    NEWDPF dihe0 124.88 -62.69 80.95 143.47 10.19 -74.85 -35.79 -74.51 
DOCKED: USER  keepresnum = 1 
DOCKED: USER  
DOCKED: REMARK  Name = 
DOCKED: REMARK  8 active torsions:
DOCKED: REMARK  status: ('A' for Active; 'I' for Inactive)
DOCKED: REMARK    1  A    between atoms: C_2  and  C_5
DOCKED: REMARK    2  A    between atoms: C_5  and  C_6
DOCKED: REMARK    3  A    between atoms: C_6  and  C_7
DOCKED: REMARK    4  A    between atoms: C_7  and  C_8
DOCKED: REMARK    5  A    between atoms: C_8  and  C_9
DOCKED: REMARK    6  A    between atoms: C_9  and  C_10
DOCKED: REMARK    7  A    between atoms: C_10  and  C_11
DOCKED: REMARK    8  A    between atoms: N_12  and  C_13
DOCKED: REMARK                            x       y       z     vdW  Elec       q    Type
DOCKED: REMARK                         _______ _______ _______ _____ _____    ______ ____
DOCKED: USER                              x       y       z     vdW  Elec       q    Type
DOCKED: USER                           _______ _______ _______ _____ _____    ______ ____
DOCKED: ROOT
DOCKED: ATOM      1  C   UNL     1      25.441 -15.092  -2.948 -0.52 -0.00    +0.000 C 
DOCKED: ENDROOT
DOCKED: BRANCH   1   2
DOCKED: ATOM      2  C   UNL     1      26.356 -15.399  -4.096 -0.53 -0.00    +0.000 C 
DOCKED: ATOM      3  N   UNL     1      27.765 -15.149  -3.975 -0.30 -0.00    +0.000 N 
DOCKED: ATOM      4  O   UNL     1      25.874 -15.871  -5.162 -1.10 +0.00    +0.000 OA
DOCKED: ATOM      5  H   UNL     1      28.077 -14.634  -3.197 +0.00 -0.00    +0.000 HD
DOCKED: BRANCH   3   6
DOCKED: ATOM      6  C   UNL     1      28.749 -15.601  -4.921 -0.31 -0.00    +0.000 A 
DOCKED: ATOM      7  C   UNL     1      29.019 -14.833  -6.061 -0.33 -0.00    +0.000 A 
DOCKED: ATOM      8  C   UNL     1      29.988 -15.250  -6.975 -0.28 -0.00    +0.000 A 
DOCKED: ATOM      9  C   UNL     1      30.695 -16.428  -6.732 -0.28 -0.00    +0.000 A 
DOCKED: ATOM     10  N   UNL     1      30.444 -17.152  -5.609 -0.28 -0.00    +0.000 NA
DOCKED: ATOM     11  C   UNL     1      29.501 -16.769  -4.706 -0.23 -0.00    +0.000 A 
DOCKED: ENDBRANCH   3   6
DOCKED: ENDBRANCH   1   2
DOCKED: BRANCH   1  12
DOCKED: ATOM     12  C   UNL     1      24.832 -16.387  -2.392 -0.40 -0.00    +0.000 C 
DOCKED: BRANCH  12  13
DOCKED: ATOM     13  C   UNL     1      25.359 -16.736  -0.989 -0.59 -0.00    +0.000 C 
DOCKED: BRANCH  13  14
DOCKED: ATOM     14  C   UNL     1      25.471 -18.247  -0.711 -0.67 -0.00    +0.000 C 
DOCKED: BRANCH  14  15
DOCKED: ATOM     15  C   UNL     1      24.105 -18.953  -0.715 -0.67 -0.00    +0.000 C 
DOCKED: BRANCH  15  16
DOCKED: ATOM     16  C   UNL     1      22.996 -18.080  -0.112 -0.76 -0.00    +0.000 C 
DOCKED: BRANCH  16  18
DOCKED: ATOM     17  O   UNL     1      20.767 -17.452  -0.708 -2.04 +0.00    +0.000 OA
DOCKED: ATOM     18  C   UNL     1      21.667 -18.334  -0.762 -0.83 -0.00    +0.000 C 
DOCKED: ATOM     19  N   UNL     1      21.407 -19.578  -1.416 -0.67 -0.00    +0.000 N 
DOCKED: ATOM     20  O   UNL     1      20.208 -19.808  -2.002 -2.33 -0.00    +0.000 OA
DOCKED: ATOM     21  H   UNL     1      22.105 -20.273  -1.442 -0.32 -0.00    +0.000 HD
DOCKED: ENDBRANCH  16  18
DOCKED: ENDBRANCH  15  16
DOCKED: ENDBRANCH  14  15
DOCKED: ENDBRANCH  13  14
DOCKED: ENDBRANCH  12  13
DOCKED: ENDBRANCH   1  12
DOCKED: TORSDOF 8
DOCKED: TER
DOCKED: ENDMDL
________________________________________________________________________________


	BEGINNING GENETIC ALGORITHM DOCKING 49 of 100
Run: 49 Seed: 23896055 2134994839 [ Run 49 of 100 GA/GALS ]
Beginning LAMARCKIAN GENETIC ALGORITHM (LGA), with a maximum of 2500000 energy evaluations.

Final-Value: -12.889


	FINAL GENETIC ALGORITHM DOCKED STATE
	_______________________________________________


Detailed state:  trans 25.633 -17.120 -1.453 quatxyzw -0.158447 -0.267202 0.611636 0.727598 center -0.033 -0.045 -0.218 ntor 8 -10.2086 158.1597 -168.0748 47.5457 154.1127 142.4867 151.4387 -162.8095
State:	 25.633 -17.120  -1.453  -0.231 -0.390  0.892 86.629    -10.21  158.16 -168.07   47.55  154.11  142.49  151.44 -162.81

DOCKED: MODEL       49
DOCKED: USER    Run = 49
DOCKED: USER    DPF = ligand_dock.biased.dpf
DOCKED: USER  
DOCKED: USER    Estimated Free Energy of Binding    =   -9.49 kcal/mol  [=(1)+(2)+(3)-(4)]
DOCKED: USER    Estimated Inhibition Constant, Ki   =  110.50 nM (nanomolar)  [Temperature = 298.15 K]
DOCKED: USER    
DOCKED: USER    (1) Final Intermolecular Energy     =  -11.88 kcal/mol
DOCKED: USER        vdW + Hbond + desolv Energy     =  -11.88 kcal/mol
DOCKED: USER        Electrostatic Energy            =   +0.00 kcal/mol
DOCKED: USER    (2) Final Total Internal Energy     =   -1.01 kcal/mol
DOCKED: USER    (3) Torsional Free Energy           =   +2.39 kcal/mol
DOCKED: USER    (4) Unbound System's Energy  [=(2)] =   -1.01 kcal/mol
DOCKED: USER    
DOCKED: USER    
DOCKED: USER    NEWDPF move ligand.pdbqt
DOCKED: USER    NEWDPF about -0.033000 -0.045000 -0.218000
DOCKED: USER    NEWDPF tran0 25.633000 -17.120170 -1.453002
DOCKED: USER    NEWDPF quaternion0 -0.158447 -0.267202 0.611636 0.727598
DOCKED: USER    NEWDPF axisangle0 -0.230971 -0.389505 0.891593 86.629133
DOCKED: USER    NEWDPF quat0 -0.230971 -0.389505 0.891593 86.629133
DOCKED: USER    NEWDPF dihe0 -10.21 158.16 -168.07 47.55 154.11 142.49 151.44 -162.81 
DOCKED: USER  keepresnum = 1 
DOCKED: USER  
DOCKED: REMARK  Name = 
DOCKED: REMARK  8 active torsions:
DOCKED: REMARK  status: ('A' for Active; 'I' for Inactive)
DOCKED: REMARK    1  A    between atoms: C_2  and  C_5
DOCKED: REMARK    2  A    between atoms: C_5  and  C_6
DOCKED: REMARK    3  A    between atoms: C_6  and  C_7
DOCKED: REMARK    4  A    between atoms: C_7  and  C_8
DOCKED: REMARK    5  A    between atoms: C_8  and  C_9
DOCKED: REMARK    6  A    between atoms: C_9  and  C_10
DOCKED: REMARK    7  A    between atoms: C_10  and  C_11
DOCKED: REMARK    8  A    between atoms: N_12  and  C_13
DOCKED: REMARK                            x       y       z     vdW  Elec       q    Type
DOCKED: REMARK                         _______ _______ _______ _____ _____    ______ ____
DOCKED: USER                              x       y       z     vdW  Elec       q    Type
DOCKED: USER                           _______ _______ _______ _____ _____    ______ ____
DOCKED: ROOT
DOCKED: ATOM      1  C   UNL     1      27.204 -16.362  -1.479 -0.40 -0.00    +0.000 C 
DOCKED: ENDROOT
DOCKED: BRANCH   1   2
DOCKED: ATOM      2  C   UNL     1      26.884 -15.412  -0.364 -0.36 -0.00    +0.000 C 
DOCKED: ATOM      3  N   UNL     1      27.843 -15.185   0.681 -0.28 -0.00    +0.000 N 
DOCKED: ATOM      4  O   UNL     1      25.768 -14.825  -0.353 -0.41 -0.00    +0.000 OA
DOCKED: ATOM      5  H   UNL     1      28.626 -15.779   0.725 -0.48 -0.00    +0.000 HD
DOCKED: BRANCH   3   6
DOCKED: ATOM      6  C   UNL     1      27.730 -14.147   1.669 -0.26 -0.00    +0.000 A 
DOCKED: ATOM      7  C   UNL     1      27.557 -12.818   1.261 -0.21 -0.00    +0.000 A 
DOCKED: ATOM      8  C   UNL     1      27.424 -11.804   2.212 -0.23 +0.00    +0.000 A 
DOCKED: ATOM      9  C   UNL     1      27.447 -12.131   3.567 -0.24 +0.00    +0.000 A 
DOCKED: ATOM     10  N   UNL     1      27.587 -13.426   3.952 -0.43 -0.00    +0.000 NA
DOCKED: ATOM     11  C   UNL     1      27.724 -14.432   3.046 -0.28 -0.00    +0.000 A 
DOCKED: ENDBRANCH   3   6
DOCKED: ENDBRANCH   1   2
DOCKED: BRANCH   1  12
DOCKED: ATOM     12  C   UNL     1      27.147 -17.811  -0.977 -0.40 -0.00    +0.000 C 
DOCKED: BRANCH  12  13
DOCKED: ATOM     13  C   UNL     1      26.280 -17.969   0.285 -0.53 -0.00    +0.000 C 
DOCKED: BRANCH  13  14
DOCKED: ATOM     14  C   UNL     1      24.770 -17.792   0.044 -0.56 -0.00    +0.000 C 
DOCKED: BRANCH  14  15
DOCKED: ATOM     15  C   UNL     1      24.115 -19.049  -0.555 -0.42 -0.00    +0.000 C 
DOCKED: BRANCH  15  16
DOCKED: ATOM     16  C   UNL     1      23.213 -18.721  -1.753 -0.62 -0.00    +0.000 C 
DOCKED: BRANCH  16  18
DOCKED: ATOM     17  O   UNL     1      21.317 -17.833  -0.598 -1.83 -0.00    +0.000 OA
DOCKED: ATOM     18  C   UNL     1      21.760 -18.720  -1.377 -0.56 -0.00    +0.000 C 
DOCKED: ATOM     19  N   UNL     1      20.884 -19.733  -1.875 -0.69 -0.00    +0.000 N 
DOCKED: ATOM     20  O   UNL     1      19.573 -19.734  -1.535 -2.14 -0.00    +0.000 OA
DOCKED: ATOM     21  H   UNL     1      21.235 -20.436  -2.468 -0.53 -0.00    +0.000 HD
DOCKED: ENDBRANCH  16  18
DOCKED: ENDBRANCH  15  16
DOCKED: ENDBRANCH  14  15
DOCKED: ENDBRANCH  13  14
DOCKED: ENDBRANCH  12  13
DOCKED: ENDBRANCH   1  12
DOCKED: TORSDOF 8
DOCKED: TER
DOCKED: ENDMDL
________________________________________________________________________________


	BEGINNING GENETIC ALGORITHM DOCKING 50 of 100
Run: 50 Seed: 252148047 1753503480 [ Run 50 of 100 GA/GALS ]
Beginning LAMARCKIAN GENETIC ALGORITHM (LGA), with a maximum of 2500000 energy evaluations.

Final-Value: -12.850


	FINAL GENETIC ALGORITHM DOCKED STATE
	_______________________________________________


Detailed state:  trans 26.745 -15.401 -2.247 quatxyzw 0.217324 -0.746343 0.473839 -0.413786 center -0.033 -0.045 -0.218 ntor 8 -61.4829 147.1037 -175.0628 -93.3158 -32.1641 -55.0908 -55.7208 -72.5594
State:	 26.745 -15.401  -2.247   0.239 -0.820  0.520 -131.114    -61.48  147.10 -175.06  -93.32  -32.16  -55.09  -55.72  -72.56

DOCKED: MODEL       50
DOCKED: USER    Run = 50
DOCKED: USER    DPF = ligand_dock.biased.dpf
DOCKED: USER  
DOCKED: USER    Estimated Free Energy of Binding    =   -9.50 kcal/mol  [=(1)+(2)+(3)-(4)]
DOCKED: USER    Estimated Inhibition Constant, Ki   =  107.88 nM (nanomolar)  [Temperature = 298.15 K]
DOCKED: USER    
DOCKED: USER    (1) Final Intermolecular Energy     =  -11.89 kcal/mol
DOCKED: USER        vdW + Hbond + desolv Energy     =  -11.89 kcal/mol
DOCKED: USER        Electrostatic Energy            =   +0.00 kcal/mol
DOCKED: USER    (2) Final Total Internal Energy     =   -0.96 kcal/mol
DOCKED: USER    (3) Torsional Free Energy           =   +2.39 kcal/mol
DOCKED: USER    (4) Unbound System's Energy  [=(2)] =   -0.96 kcal/mol
DOCKED: USER    
DOCKED: USER    
DOCKED: USER    NEWDPF move ligand.pdbqt
DOCKED: USER    NEWDPF about -0.033000 -0.045000 -0.218000
DOCKED: USER    NEWDPF tran0 26.745205 -15.401203 -2.246641
DOCKED: USER    NEWDPF quaternion0 0.217324 -0.746343 0.473839 -0.413786
DOCKED: USER    NEWDPF axisangle0 0.238719 -0.819820 0.520488 -131.114185
DOCKED: USER    NEWDPF quat0 0.238719 -0.819820 0.520488 -131.114185
DOCKED: USER    NEWDPF dihe0 -61.48 147.10 -175.06 -93.32 -32.16 -55.09 -55.72 -72.56 
DOCKED: USER  keepresnum = 1 
DOCKED: USER  
DOCKED: REMARK  Name = 
DOCKED: REMARK  8 active torsions:
DOCKED: REMARK  status: ('A' for Active; 'I' for Inactive)
DOCKED: REMARK    1  A    between atoms: C_2  and  C_5
DOCKED: REMARK    2  A    between atoms: C_5  and  C_6
DOCKED: REMARK    3  A    between atoms: C_6  and  C_7
DOCKED: REMARK    4  A    between atoms: C_7  and  C_8
DOCKED: REMARK    5  A    between atoms: C_8  and  C_9
DOCKED: REMARK    6  A    between atoms: C_9  and  C_10
DOCKED: REMARK    7  A    between atoms: C_10  and  C_11
DOCKED: REMARK    8  A    between atoms: N_12  and  C_13
DOCKED: REMARK                            x       y       z     vdW  Elec       q    Type
DOCKED: REMARK                         _______ _______ _______ _____ _____    ______ ____
DOCKED: USER                              x       y       z     vdW  Elec       q    Type
DOCKED: USER                           _______ _______ _______ _____ _____    ______ ____
DOCKED: ROOT
DOCKED: ATOM      1  C   UNL     1      25.832 -14.538  -3.457 -0.51 -0.00    +0.000 C 
DOCKED: ENDROOT
DOCKED: BRANCH   1   2
DOCKED: ATOM      2  C   UNL     1      26.685 -15.014  -4.595 -0.52 -0.00    +0.000 C 
DOCKED: ATOM      3  N   UNL     1      28.023 -14.516  -4.744 -0.28 -0.00    +0.000 N 
DOCKED: ATOM      4  O   UNL     1      26.211 -15.846  -5.417 -1.13 +0.00    +0.000 OA
DOCKED: ATOM      5  H   UNL     1      28.297 -13.754  -4.184 +0.00 -0.00    +0.000 HD
DOCKED: BRANCH   3   6
DOCKED: ATOM      6  C   UNL     1      28.990 -15.058  -5.659 -0.32 -0.00    +0.000 A 
DOCKED: ATOM      7  C   UNL     1      29.459 -16.366  -5.478 -0.29 -0.00    +0.000 A 
DOCKED: ATOM      8  C   UNL     1      30.381 -16.912  -6.372 -0.31 -0.00    +0.000 A 
DOCKED: ATOM      9  C   UNL     1      30.814 -16.149  -7.456 -0.27 -0.00    +0.000 A 
DOCKED: ATOM     10  N   UNL     1      30.332 -14.891  -7.639 -0.25 -0.00    +0.000 NA
DOCKED: ATOM     11  C   UNL     1      29.438 -14.335  -6.778 -0.29 -0.00    +0.000 A 
DOCKED: ENDBRANCH   3   6
DOCKED: ENDBRANCH   1   2
DOCKED: BRANCH   1  12
DOCKED: ATOM     12  C   UNL     1      25.132 -15.727  -2.784 -0.48 -0.00    +0.000 C 
DOCKED: BRANCH  12  13
DOCKED: ATOM     13  C   UNL     1      25.634 -15.977  -1.351 -0.52 -0.00    +0.000 C 
DOCKED: BRANCH  13  14
DOCKED: ATOM     14  C   UNL     1      26.093 -17.422  -1.082 -0.59 -0.00    +0.000 C 
DOCKED: BRANCH  14  15
DOCKED: ATOM     15  C   UNL     1      25.100 -18.205  -0.205 -0.69 -0.00    +0.000 C 
DOCKED: BRANCH  15  16
DOCKED: ATOM     16  C   UNL     1      23.990 -18.868  -1.032 -0.73 -0.00    +0.000 C 
DOCKED: BRANCH  16  18
DOCKED: ATOM     17  O   UNL     1      22.620 -17.043  -0.318 -0.81 -0.00    +0.000 OA
DOCKED: ATOM     18  C   UNL     1      22.665 -18.192  -0.835 -0.82 -0.00    +0.000 C 
DOCKED: ATOM     19  N   UNL     1      21.453 -18.854  -1.205 -0.75 -0.00    +0.000 N 
DOCKED: ATOM     20  O   UNL     1      20.257 -18.245  -1.027 -2.10 -0.00    +0.000 OA
DOCKED: ATOM     21  H   UNL     1      21.488 -19.758  -1.592 -0.22 -0.00    +0.000 HD
DOCKED: ENDBRANCH  16  18
DOCKED: ENDBRANCH  15  16
DOCKED: ENDBRANCH  14  15
DOCKED: ENDBRANCH  13  14
DOCKED: ENDBRANCH  12  13
DOCKED: ENDBRANCH   1  12
DOCKED: TORSDOF 8
DOCKED: TER
DOCKED: ENDMDL
________________________________________________________________________________


	BEGINNING GENETIC ALGORITHM DOCKING 51 of 100
Run: 51 Seed: 2018498979 1740379974 [ Run 51 of 100 GA/GALS ]
Beginning LAMARCKIAN GENETIC ALGORITHM (LGA), with a maximum of 2500000 energy evaluations.

Final-Value: -13.050


	FINAL GENETIC ALGORITHM DOCKED STATE
	_______________________________________________


Detailed state:  trans 26.096 -16.901 -2.802 quatxyzw 0.115874 0.862326 0.241226 0.429857 center -0.033 -0.045 -0.218 ntor 8 -106.5973 130.2379 178.4729 -67.0237 -178.0682 133.9390 -115.4968 -89.8085
State:	 26.096 -16.901  -2.802   0.128  0.955  0.267 129.083   -106.60  130.24  178.47  -67.02 -178.07  133.94 -115.50  -89.81

DOCKED: MODEL       51
DOCKED: USER    Run = 51
DOCKED: USER    DPF = ligand_dock.biased.dpf
DOCKED: USER  
DOCKED: USER    Estimated Free Energy of Binding    =   -9.88 kcal/mol  [=(1)+(2)+(3)-(4)]
DOCKED: USER    Estimated Inhibition Constant, Ki   =   57.31 nM (nanomolar)  [Temperature = 298.15 K]
DOCKED: USER    
DOCKED: USER    (1) Final Intermolecular Energy     =  -12.27 kcal/mol
DOCKED: USER        vdW + Hbond + desolv Energy     =  -12.27 kcal/mol
DOCKED: USER        Electrostatic Energy            =   +0.00 kcal/mol
DOCKED: USER    (2) Final Total Internal Energy     =   -0.78 kcal/mol
DOCKED: USER    (3) Torsional Free Energy           =   +2.39 kcal/mol
DOCKED: USER    (4) Unbound System's Energy  [=(2)] =   -0.78 kcal/mol
DOCKED: USER    
DOCKED: USER    
DOCKED: USER    NEWDPF move ligand.pdbqt
DOCKED: USER    NEWDPF about -0.033000 -0.045000 -0.218000
DOCKED: USER    NEWDPF tran0 26.095993 -16.901203 -2.801667
DOCKED: USER    NEWDPF quaternion0 0.115874 0.862326 0.241226 0.429857
DOCKED: USER    NEWDPF axisangle0 0.128336 0.955066 0.267169 129.083041
DOCKED: USER    NEWDPF quat0 0.128336 0.955066 0.267169 129.083041
DOCKED: USER    NEWDPF dihe0 -106.60 130.24 178.47 -67.02 -178.07 133.94 -115.50 -89.81 
DOCKED: USER  keepresnum = 1 
DOCKED: USER  
DOCKED: REMARK  Name = 
DOCKED: REMARK  8 active torsions:
DOCKED: REMARK  status: ('A' for Active; 'I' for Inactive)
DOCKED: REMARK    1  A    between atoms: C_2  and  C_5
DOCKED: REMARK    2  A    between atoms: C_5  and  C_6
DOCKED: REMARK    3  A    between atoms: C_6  and  C_7
DOCKED: REMARK    4  A    between atoms: C_7  and  C_8
DOCKED: REMARK    5  A    between atoms: C_8  and  C_9
DOCKED: REMARK    6  A    between atoms: C_9  and  C_10
DOCKED: REMARK    7  A    between atoms: C_10  and  C_11
DOCKED: REMARK    8  A    between atoms: N_12  and  C_13
DOCKED: REMARK                            x       y       z     vdW  Elec       q    Type
DOCKED: REMARK                         _______ _______ _______ _____ _____    ______ ____
DOCKED: USER                              x       y       z     vdW  Elec       q    Type
DOCKED: USER                           _______ _______ _______ _____ _____    ______ ____
DOCKED: ROOT
DOCKED: ATOM      1  C   UNL     1      27.133 -15.523  -2.535 -0.35 -0.00    +0.000 C 
DOCKED: ENDROOT
DOCKED: BRANCH   1   2
DOCKED: ATOM      2  C   UNL     1      27.704 -15.549  -3.922 -0.35 -0.00    +0.000 C 
DOCKED: ATOM      3  N   UNL     1      29.126 -15.490  -4.112 -0.21 -0.00    +0.000 N 
DOCKED: ATOM      4  O   UNL     1      26.924 -15.617  -4.911 -0.96 +0.00    +0.000 OA
DOCKED: ATOM      5  H   UNL     1      29.687 -15.275  -3.332 +0.00 -0.00    +0.000 HD
DOCKED: BRANCH   3   6
DOCKED: ATOM      6  C   UNL     1      29.783 -15.722  -5.369 -0.26 -0.00    +0.000 A 
DOCKED: ATOM      7  C   UNL     1      30.033 -17.036  -5.788 -0.31 -0.00    +0.000 A 
DOCKED: ATOM      8  C   UNL     1      30.651 -17.274  -7.017 -0.30 -0.00    +0.000 A 
DOCKED: ATOM      9  C   UNL     1      30.999 -16.195  -7.828 -0.24 -0.00    +0.000 A 
DOCKED: ATOM     10  N   UNL     1      30.728 -14.925  -7.425 -0.24 -0.00    +0.000 NA
DOCKED: ATOM     11  C   UNL     1      30.132 -14.666  -6.229 -0.22 -0.00    +0.000 A 
DOCKED: ENDBRANCH   3   6
DOCKED: ENDBRANCH   1   2
DOCKED: BRANCH   1  12
DOCKED: ATOM     12  C   UNL     1      25.624 -15.249  -2.587 -0.50 -0.00    +0.000 C 
DOCKED: BRANCH  12  13
DOCKED: ATOM     13  C   UNL     1      24.784 -16.539  -2.546 -0.25 -0.00    +0.000 C 
DOCKED: BRANCH  13  14
DOCKED: ATOM     14  C   UNL     1      24.961 -17.372  -1.263 -0.68 -0.00    +0.000 C 
DOCKED: BRANCH  14  15
DOCKED: ATOM     15  C   UNL     1      23.739 -17.294  -0.333 -0.60 -0.00    +0.000 C 
DOCKED: BRANCH  15  16
DOCKED: ATOM     16  C   UNL     1      23.005 -18.637  -0.222 -0.78 -0.00    +0.000 C 
DOCKED: BRANCH  16  18
DOCKED: ATOM     17  O   UNL     1      20.991 -17.475  -0.782 -2.04 -0.00    +0.000 OA
DOCKED: ATOM     18  C   UNL     1      21.619 -18.568  -0.797 -0.85 -0.00    +0.000 C 
DOCKED: ATOM     19  N   UNL     1      21.000 -19.739  -1.334 -0.75 -0.00    +0.000 N 
DOCKED: ATOM     20  O   UNL     1      19.750 -19.678  -1.851 -2.24 -0.00    +0.000 OA
DOCKED: ATOM     21  H   UNL     1      21.485 -20.596  -1.329 -0.14 -0.00    +0.000 HD
DOCKED: ENDBRANCH  16  18
DOCKED: ENDBRANCH  15  16
DOCKED: ENDBRANCH  14  15
DOCKED: ENDBRANCH  13  14
DOCKED: ENDBRANCH  12  13
DOCKED: ENDBRANCH   1  12
DOCKED: TORSDOF 8
DOCKED: TER
DOCKED: ENDMDL
________________________________________________________________________________


	BEGINNING GENETIC ALGORITHM DOCKING 52 of 100
Run: 52 Seed: 1621522219 759951210 [ Run 52 of 100 GA/GALS ]
Beginning LAMARCKIAN GENETIC ALGORITHM (LGA), with a maximum of 2500000 energy evaluations.

Final-Value: -13.172


	FINAL GENETIC ALGORITHM DOCKED STATE
	_______________________________________________


Detailed state:  trans 25.784 -16.800 -3.320 quatxyzw -0.070130 -0.364002 -0.470136 -0.800972 center -0.033 -0.045 -0.218 ntor 8 -151.6180 -83.4889 -166.1276 1.9307 -164.3289 -171.9262 -180.0000 -145.4142
State:	 25.784 -16.800  -3.320  -0.117 -0.608 -0.785 -73.554   -151.62  -83.49 -166.13    1.93 -164.33 -171.93 -180.00 -145.41

DOCKED: MODEL       52
DOCKED: USER    Run = 52
DOCKED: USER    DPF = ligand_dock.biased.dpf
DOCKED: USER  
DOCKED: USER    Estimated Free Energy of Binding    =  -10.01 kcal/mol  [=(1)+(2)+(3)-(4)]
DOCKED: USER    Estimated Inhibition Constant, Ki   =   45.60 nM (nanomolar)  [Temperature = 298.15 K]
DOCKED: USER    
DOCKED: USER    (1) Final Intermolecular Energy     =  -12.40 kcal/mol
DOCKED: USER        vdW + Hbond + desolv Energy     =  -12.40 kcal/mol
DOCKED: USER        Electrostatic Energy            =   +0.00 kcal/mol
DOCKED: USER    (2) Final Total Internal Energy     =   -0.77 kcal/mol
DOCKED: USER    (3) Torsional Free Energy           =   +2.39 kcal/mol
DOCKED: USER    (4) Unbound System's Energy  [=(2)] =   -0.77 kcal/mol
DOCKED: USER    
DOCKED: USER    
DOCKED: USER    NEWDPF move ligand.pdbqt
DOCKED: USER    NEWDPF about -0.033000 -0.045000 -0.218000
DOCKED: USER    NEWDPF tran0 25.783788 -16.800432 -3.320418
DOCKED: USER    NEWDPF quaternion0 -0.070130 -0.364002 -0.470136 -0.800972
DOCKED: USER    NEWDPF axisangle0 -0.117136 -0.607986 -0.785259 -73.553973
DOCKED: USER    NEWDPF quat0 -0.117136 -0.607986 -0.785259 -73.553973
DOCKED: USER    NEWDPF dihe0 -151.62 -83.49 -166.13 1.93 -164.33 -171.93 -180.00 -145.41 
DOCKED: USER  keepresnum = 1 
DOCKED: USER  
DOCKED: REMARK  Name = 
DOCKED: REMARK  8 active torsions:
DOCKED: REMARK  status: ('A' for Active; 'I' for Inactive)
DOCKED: REMARK    1  A    between atoms: C_2  and  C_5
DOCKED: REMARK    2  A    between atoms: C_5  and  C_6
DOCKED: REMARK    3  A    between atoms: C_6  and  C_7
DOCKED: REMARK    4  A    between atoms: C_7  and  C_8
DOCKED: REMARK    5  A    between atoms: C_8  and  C_9
DOCKED: REMARK    6  A    between atoms: C_9  and  C_10
DOCKED: REMARK    7  A    between atoms: C_10  and  C_11
DOCKED: REMARK    8  A    between atoms: N_12  and  C_13
DOCKED: REMARK                            x       y       z     vdW  Elec       q    Type
DOCKED: REMARK                         _______ _______ _______ _____ _____    ______ ____
DOCKED: USER                              x       y       z     vdW  Elec       q    Type
DOCKED: USER                           _______ _______ _______ _____ _____    ______ ____
DOCKED: ROOT
DOCKED: ATOM      1  C   UNL     1      27.087 -15.640  -3.307 -0.38 -0.00    +0.000 C 
DOCKED: ENDROOT
DOCKED: BRANCH   1   2
DOCKED: ATOM      2  C   UNL     1      26.320 -14.607  -4.077 -0.51 -0.00    +0.000 C 
DOCKED: ATOM      3  N   UNL     1      26.782 -13.248  -4.110 -0.27 -0.00    +0.000 N 
DOCKED: ATOM      4  O   UNL     1      25.268 -14.945  -4.686 -0.85 -0.00    +0.000 OA
DOCKED: ATOM      5  H   UNL     1      27.508 -12.993  -3.495 +0.00 -0.00    +0.000 HD
DOCKED: BRANCH   3   6
DOCKED: ATOM      6  C   UNL     1      26.252 -12.235  -4.981 -0.24 -0.00    +0.000 A 
DOCKED: ATOM      7  C   UNL     1      24.918 -11.828  -4.840 -0.31 -0.00    +0.000 A 
DOCKED: ATOM      8  C   UNL     1      24.398 -10.831  -5.666 -0.38 -0.00    +0.000 A 
DOCKED: ATOM      9  C   UNL     1      25.224 -10.232  -6.618 -0.29 -0.00    +0.000 A 
DOCKED: ATOM     10  N   UNL     1      26.523 -10.615  -6.728 -0.18 -0.00    +0.000 NA
DOCKED: ATOM     11  C   UNL     1      27.052 -11.589  -5.939 -0.17 -0.00    +0.000 A 
DOCKED: ENDBRANCH   3   6
DOCKED: ENDBRANCH   1   2
DOCKED: BRANCH   1  12
DOCKED: ATOM     12  C   UNL     1      26.401 -15.920  -1.963 -0.45 -0.00    +0.000 C 
DOCKED: BRANCH  12  13
DOCKED: ATOM     13  C   UNL     1      24.867 -15.962  -2.077 -0.46 -0.00    +0.000 C 
DOCKED: BRANCH  13  14
DOCKED: ATOM     14  C   UNL     1      24.243 -17.332  -1.754 -0.63 -0.00    +0.000 C 
DOCKED: BRANCH  14  15
DOCKED: ATOM     15  C   UNL     1      23.243 -17.267  -0.587 -0.70 -0.00    +0.000 C 
DOCKED: BRANCH  15  16
DOCKED: ATOM     16  C   UNL     1      22.660 -18.644  -0.241 -0.80 -0.00    +0.000 C 
DOCKED: BRANCH  16  18
DOCKED: ATOM     17  O   UNL     1      20.304 -18.245  -0.334 -1.81 +0.00    +0.000 OA
DOCKED: ATOM     18  C   UNL     1      21.295 -18.841  -0.836 -0.86 -0.00    +0.000 C 
DOCKED: ATOM     19  N   UNL     1      21.111 -19.719  -1.948 -0.52 -0.00    +0.000 N 
DOCKED: ATOM     20  O   UNL     1      19.880 -19.898  -2.484 -2.02 -0.00    +0.000 OA
DOCKED: ATOM     21  H   UNL     1      21.883 -20.198  -2.327 -0.57 -0.00    +0.000 HD
DOCKED: ENDBRANCH  16  18
DOCKED: ENDBRANCH  15  16
DOCKED: ENDBRANCH  14  15
DOCKED: ENDBRANCH  13  14
DOCKED: ENDBRANCH  12  13
DOCKED: ENDBRANCH   1  12
DOCKED: TORSDOF 8
DOCKED: TER
DOCKED: ENDMDL
________________________________________________________________________________


	BEGINNING GENETIC ALGORITHM DOCKING 53 of 100
Run: 53 Seed: 1164090631 562291431 [ Run 53 of 100 GA/GALS ]
Beginning LAMARCKIAN GENETIC ALGORITHM (LGA), with a maximum of 2500000 energy evaluations.

Final-Value: -12.649


	FINAL GENETIC ALGORITHM DOCKED STATE
	_______________________________________________


Detailed state:  trans 25.887 -16.075 -4.271 quatxyzw -0.195345 0.622885 0.507899 0.562044 center -0.033 -0.045 -0.218 ntor 8 -48.7420 1.9473 163.7017 169.5985 -141.4007 168.2137 97.1880 -24.5253
State:	 25.887 -16.075  -4.271  -0.236  0.753  0.614 111.605    -48.74    1.95  163.70  169.60 -141.40  168.21   97.19  -24.53

DOCKED: MODEL       53
DOCKED: USER    Run = 53
DOCKED: USER    DPF = ligand_dock.biased.dpf
DOCKED: USER  
DOCKED: USER    Estimated Free Energy of Binding    =   -9.54 kcal/mol  [=(1)+(2)+(3)-(4)]
DOCKED: USER    Estimated Inhibition Constant, Ki   =  102.37 nM (nanomolar)  [Temperature = 298.15 K]
DOCKED: USER    
DOCKED: USER    (1) Final Intermolecular Energy     =  -11.92 kcal/mol
DOCKED: USER        vdW + Hbond + desolv Energy     =  -11.92 kcal/mol
DOCKED: USER        Electrostatic Energy            =   +0.00 kcal/mol
DOCKED: USER    (2) Final Total Internal Energy     =   -0.73 kcal/mol
DOCKED: USER    (3) Torsional Free Energy           =   +2.39 kcal/mol
DOCKED: USER    (4) Unbound System's Energy  [=(2)] =   -0.73 kcal/mol
DOCKED: USER    
DOCKED: USER    
DOCKED: USER    NEWDPF move ligand.pdbqt
DOCKED: USER    NEWDPF about -0.033000 -0.045000 -0.218000
DOCKED: USER    NEWDPF tran0 25.886551 -16.075221 -4.271192
DOCKED: USER    NEWDPF quaternion0 -0.195345 0.622885 0.507899 0.562044
DOCKED: USER    NEWDPF axisangle0 -0.236179 0.753089 0.614066 111.605479
DOCKED: USER    NEWDPF quat0 -0.236179 0.753089 0.614066 111.605479
DOCKED: USER    NEWDPF dihe0 -48.74 1.95 163.70 169.60 -141.40 168.21 97.19 -24.53 
DOCKED: USER  keepresnum = 1 
DOCKED: USER  
DOCKED: REMARK  Name = 
DOCKED: REMARK  8 active torsions:
DOCKED: REMARK  status: ('A' for Active; 'I' for Inactive)
DOCKED: REMARK    1  A    between atoms: C_2  and  C_5
DOCKED: REMARK    2  A    between atoms: C_5  and  C_6
DOCKED: REMARK    3  A    between atoms: C_6  and  C_7
DOCKED: REMARK    4  A    between atoms: C_7  and  C_8
DOCKED: REMARK    5  A    between atoms: C_8  and  C_9
DOCKED: REMARK    6  A    between atoms: C_9  and  C_10
DOCKED: REMARK    7  A    between atoms: C_10  and  C_11
DOCKED: REMARK    8  A    between atoms: N_12  and  C_13
DOCKED: REMARK                            x       y       z     vdW  Elec       q    Type
DOCKED: REMARK                         _______ _______ _______ _____ _____    ______ ____
DOCKED: USER                              x       y       z     vdW  Elec       q    Type
DOCKED: USER                           _______ _______ _______ _____ _____    ______ ____
DOCKED: ROOT
DOCKED: ATOM      1  C   UNL     1      26.686 -15.099  -3.066 -0.41 -0.00    +0.000 C 
DOCKED: ENDROOT
DOCKED: BRANCH   1   2
DOCKED: ATOM      2  C   UNL     1      26.758 -13.884  -3.943 -0.36 -0.00    +0.000 C 
DOCKED: ATOM      3  N   UNL     1      25.617 -13.021  -4.065 -0.39 -0.00    +0.000 N 
DOCKED: ATOM      4  O   UNL     1      27.824 -13.636  -4.570 -0.23 -0.00    +0.000 OA
DOCKED: ATOM      5  H   UNL     1      24.761 -13.332  -3.693 -0.06 -0.00    +0.000 HD
DOCKED: BRANCH   3   6
DOCKED: ATOM      6  C   UNL     1      25.645 -11.730  -4.698 -0.31 -0.00    +0.000 A 
DOCKED: ATOM      7  C   UNL     1      24.494 -11.245  -5.335 -0.31 -0.00    +0.000 A 
DOCKED: ATOM      8  C   UNL     1      24.503  -9.985  -5.935 -0.37 -0.00    +0.000 A 
DOCKED: ATOM      9  C   UNL     1      25.660  -9.208  -5.876 -0.16 -0.00    +0.000 A 
DOCKED: ATOM     10  N   UNL     1      26.761  -9.676  -5.232 -0.10 -0.00    +0.000 NA
DOCKED: ATOM     11  C   UNL     1      26.781 -10.903  -4.645 -0.16 -0.00    +0.000 A 
DOCKED: ENDBRANCH   3   6
DOCKED: ENDBRANCH   1   2
DOCKED: BRANCH   1  12
DOCKED: ATOM     12  C   UNL     1      25.223 -15.470  -2.791 -0.49 -0.00    +0.000 C 
DOCKED: BRANCH  12  13
DOCKED: ATOM     13  C   UNL     1      25.059 -16.925  -2.315 -0.55 -0.00    +0.000 C 
DOCKED: BRANCH  13  14
DOCKED: ATOM     14  C   UNL     1      24.987 -17.089  -0.786 -0.64 -0.00    +0.000 C 
DOCKED: BRANCH  14  15
DOCKED: ATOM     15  C   UNL     1      24.017 -18.202  -0.354 -0.77 -0.00    +0.000 C 
DOCKED: BRANCH  15  16
DOCKED: ATOM     16  C   UNL     1      23.161 -18.713  -1.521 -0.73 -0.00    +0.000 C 
DOCKED: BRANCH  16  18
DOCKED: ATOM     17  O   UNL     1      21.243 -17.920  -0.333 -1.77 -0.00    +0.000 OA
DOCKED: ATOM     18  C   UNL     1      21.700 -18.740  -1.174 -0.74 -0.00    +0.000 C 
DOCKED: ATOM     19  N   UNL     1      20.833 -19.706  -1.772 -0.74 -0.00    +0.000 N 
DOCKED: ATOM     20  O   UNL     1      19.516 -19.732  -1.459 -2.09 -0.00    +0.000 OA
DOCKED: ATOM     21  H   UNL     1      21.195 -20.358  -2.415 -0.52 -0.00    +0.000 HD
DOCKED: ENDBRANCH  16  18
DOCKED: ENDBRANCH  15  16
DOCKED: ENDBRANCH  14  15
DOCKED: ENDBRANCH  13  14
DOCKED: ENDBRANCH  12  13
DOCKED: ENDBRANCH   1  12
DOCKED: TORSDOF 8
DOCKED: TER
DOCKED: ENDMDL
________________________________________________________________________________


	BEGINNING GENETIC ALGORITHM DOCKING 54 of 100
Run: 54 Seed: 1311740258 2110476577 [ Run 54 of 100 GA/GALS ]
Beginning LAMARCKIAN GENETIC ALGORITHM (LGA), with a maximum of 2500000 energy evaluations.

Final-Value: -12.877


	FINAL GENETIC ALGORITHM DOCKED STATE
	_______________________________________________


Detailed state:  trans 24.762 -14.320 -3.052 quatxyzw 0.278568 0.157034 -0.862789 -0.391580 center -0.033 -0.045 -0.218 ntor 8 -45.1329 138.7706 -178.0529 130.9697 -163.9113 -158.2131 73.3992 98.9650
State:	 24.762 -14.320  -3.052   0.303  0.171 -0.938 -133.894    -45.13  138.77 -178.05  130.97 -163.91 -158.21   73.40   98.97

DOCKED: MODEL       54
DOCKED: USER    Run = 54
DOCKED: USER    DPF = ligand_dock.biased.dpf
DOCKED: USER  
DOCKED: USER    Estimated Free Energy of Binding    =   -9.44 kcal/mol  [=(1)+(2)+(3)-(4)]
DOCKED: USER    Estimated Inhibition Constant, Ki   =  121.12 nM (nanomolar)  [Temperature = 298.15 K]
DOCKED: USER    
DOCKED: USER    (1) Final Intermolecular Energy     =  -11.82 kcal/mol
DOCKED: USER        vdW + Hbond + desolv Energy     =  -11.82 kcal/mol
DOCKED: USER        Electrostatic Energy            =   +0.00 kcal/mol
DOCKED: USER    (2) Final Total Internal Energy     =   -1.05 kcal/mol
DOCKED: USER    (3) Torsional Free Energy           =   +2.39 kcal/mol
DOCKED: USER    (4) Unbound System's Energy  [=(2)] =   -1.05 kcal/mol
DOCKED: USER    
DOCKED: USER    
DOCKED: USER    NEWDPF move ligand.pdbqt
DOCKED: USER    NEWDPF about -0.033000 -0.045000 -0.218000
DOCKED: USER    NEWDPF tran0 24.761793 -14.319991 -3.052137
DOCKED: USER    NEWDPF quaternion0 0.278568 0.157034 -0.862789 -0.391580
DOCKED: USER    NEWDPF axisangle0 0.302744 0.170663 -0.937667 -133.894282
DOCKED: USER    NEWDPF quat0 0.302744 0.170663 -0.937667 -133.894282
DOCKED: USER    NEWDPF dihe0 -45.13 138.77 -178.05 130.97 -163.91 -158.21 73.40 98.97 
DOCKED: USER  keepresnum = 1 
DOCKED: USER  
DOCKED: REMARK  Name = 
DOCKED: REMARK  8 active torsions:
DOCKED: REMARK  status: ('A' for Active; 'I' for Inactive)
DOCKED: REMARK    1  A    between atoms: C_2  and  C_5
DOCKED: REMARK    2  A    between atoms: C_5  and  C_6
DOCKED: REMARK    3  A    between atoms: C_6  and  C_7
DOCKED: REMARK    4  A    between atoms: C_7  and  C_8
DOCKED: REMARK    5  A    between atoms: C_8  and  C_9
DOCKED: REMARK    6  A    between atoms: C_9  and  C_10
DOCKED: REMARK    7  A    between atoms: C_10  and  C_11
DOCKED: REMARK    8  A    between atoms: N_12  and  C_13
DOCKED: REMARK                            x       y       z     vdW  Elec       q    Type
DOCKED: REMARK                         _______ _______ _______ _____ _____    ______ ____
DOCKED: USER                              x       y       z     vdW  Elec       q    Type
DOCKED: USER                           _______ _______ _______ _____ _____    ______ ____
DOCKED: ROOT
DOCKED: ATOM      1  C   UNL     1      26.326 -15.090  -2.994 -0.45 -0.00    +0.000 C 
DOCKED: ENDROOT
DOCKED: BRANCH   1   2
DOCKED: ATOM      2  C   UNL     1      26.823 -14.241  -1.862 -0.28 -0.00    +0.000 C 
DOCKED: ATOM      3  N   UNL     1      26.111 -14.223  -0.615 -0.32 -0.00    +0.000 N 
DOCKED: ATOM      4  O   UNL     1      27.862 -13.544  -2.021 -0.15 -0.00    +0.000 OA
DOCKED: ATOM      5  H   UNL     1      25.224 -14.648  -0.584 -0.02 -0.00    +0.000 HD
DOCKED: BRANCH   3   6
DOCKED: ATOM      6  C   UNL     1      26.610 -13.622   0.591 -0.27 -0.00    +0.000 A 
DOCKED: ATOM      7  C   UNL     1      27.639 -14.251   1.305 -0.25 -0.00    +0.000 A 
DOCKED: ATOM      8  C   UNL     1      28.147 -13.666   2.467 -0.26 -0.00    +0.000 A 
DOCKED: ATOM      9  C   UNL     1      27.633 -12.442   2.896 -0.26 -0.00    +0.000 A 
DOCKED: ATOM     10  N   UNL     1      26.655 -11.827   2.181 -0.32 +0.00    +0.000 NA
DOCKED: ATOM     11  C   UNL     1      26.139 -12.379   1.050 -0.32 +0.00    +0.000 A 
DOCKED: ENDBRANCH   3   6
DOCKED: ENDBRANCH   1   2
DOCKED: BRANCH   1  12
DOCKED: ATOM     12  C   UNL     1      25.127 -15.934  -2.541 -0.52 -0.00    +0.000 C 
DOCKED: BRANCH  12  13
DOCKED: ATOM     13  C   UNL     1      25.539 -17.127  -1.662 -0.60 -0.00    +0.000 C 
DOCKED: BRANCH  13  14
DOCKED: ATOM     14  C   UNL     1      24.751 -17.248  -0.345 -0.55 -0.00    +0.000 C 
DOCKED: BRANCH  14  15
DOCKED: ATOM     15  C   UNL     1      24.013 -18.592  -0.217 -0.68 -0.00    +0.000 C 
DOCKED: BRANCH  15  16
DOCKED: ATOM     16  C   UNL     1      23.202 -18.932  -1.475 -0.76 -0.00    +0.000 C 
DOCKED: BRANCH  16  18
DOCKED: ATOM     17  O   UNL     1      21.262 -18.058  -0.382 -1.75 -0.00    +0.000 OA
DOCKED: ATOM     18  C   UNL     1      21.723 -18.881  -1.219 -0.74 -0.00    +0.000 C 
DOCKED: ATOM     19  N   UNL     1      20.840 -19.777  -1.898 -0.64 -0.00    +0.000 N 
DOCKED: ATOM     20  O   UNL     1      19.507 -19.732  -1.667 -2.12 -0.00    +0.000 OA
DOCKED: ATOM     21  H   UNL     1      21.204 -20.431  -2.538 -0.54 -0.00    +0.000 HD
DOCKED: ENDBRANCH  16  18
DOCKED: ENDBRANCH  15  16
DOCKED: ENDBRANCH  14  15
DOCKED: ENDBRANCH  13  14
DOCKED: ENDBRANCH  12  13
DOCKED: ENDBRANCH   1  12
DOCKED: TORSDOF 8
DOCKED: TER
DOCKED: ENDMDL
________________________________________________________________________________


	BEGINNING GENETIC ALGORITHM DOCKING 55 of 100
Run: 55 Seed: 593000051 1684095242 [ Run 55 of 100 GA/GALS ]
Beginning LAMARCKIAN GENETIC ALGORITHM (LGA), with a maximum of 2500000 energy evaluations.

Final-Value: -13.192


	FINAL GENETIC ALGORITHM DOCKED STATE
	_______________________________________________


Detailed state:  trans 27.182 -16.516 -3.389 quatxyzw -0.276479 0.796247 0.036644 0.536850 center -0.033 -0.045 -0.218 ntor 8 -167.9741 -179.9769 29.5811 -13.3350 -170.2621 -152.9324 -138.2120 -29.0956
State:	 27.182 -16.516  -3.389  -0.328  0.944  0.043 115.061   -167.97 -179.98   29.58  -13.33 -170.26 -152.93 -138.21  -29.10

DOCKED: MODEL       55
DOCKED: USER    Run = 55
DOCKED: USER    DPF = ligand_dock.biased.dpf
DOCKED: USER  
DOCKED: USER    Estimated Free Energy of Binding    =  -10.19 kcal/mol  [=(1)+(2)+(3)-(4)]
DOCKED: USER    Estimated Inhibition Constant, Ki   =   34.22 nM (nanomolar)  [Temperature = 298.15 K]
DOCKED: USER    
DOCKED: USER    (1) Final Intermolecular Energy     =  -12.57 kcal/mol
DOCKED: USER        vdW + Hbond + desolv Energy     =  -12.57 kcal/mol
DOCKED: USER        Electrostatic Energy            =   +0.00 kcal/mol
DOCKED: USER    (2) Final Total Internal Energy     =   -0.62 kcal/mol
DOCKED: USER    (3) Torsional Free Energy           =   +2.39 kcal/mol
DOCKED: USER    (4) Unbound System's Energy  [=(2)] =   -0.62 kcal/mol
DOCKED: USER    
DOCKED: USER    
DOCKED: USER    NEWDPF move ligand.pdbqt
DOCKED: USER    NEWDPF about -0.033000 -0.045000 -0.218000
DOCKED: USER    NEWDPF tran0 27.182309 -16.515526 -3.388948
DOCKED: USER    NEWDPF quaternion0 -0.276479 0.796247 0.036644 0.536850
DOCKED: USER    NEWDPF axisangle0 -0.327707 0.943780 0.043433 115.061115
DOCKED: USER    NEWDPF quat0 -0.327707 0.943780 0.043433 115.061115
DOCKED: USER    NEWDPF dihe0 -167.97 -179.98 29.58 -13.33 -170.26 -152.93 -138.21 -29.10 
DOCKED: USER  keepresnum = 1 
DOCKED: USER  
DOCKED: REMARK  Name = 
DOCKED: REMARK  8 active torsions:
DOCKED: REMARK  status: ('A' for Active; 'I' for Inactive)
DOCKED: REMARK    1  A    between atoms: C_2  and  C_5
DOCKED: REMARK    2  A    between atoms: C_5  and  C_6
DOCKED: REMARK    3  A    between atoms: C_6  and  C_7
DOCKED: REMARK    4  A    between atoms: C_7  and  C_8
DOCKED: REMARK    5  A    between atoms: C_8  and  C_9
DOCKED: REMARK    6  A    between atoms: C_9  and  C_10
DOCKED: REMARK    7  A    between atoms: C_10  and  C_11
DOCKED: REMARK    8  A    between atoms: N_12  and  C_13
DOCKED: REMARK                            x       y       z     vdW  Elec       q    Type
DOCKED: REMARK                         _______ _______ _______ _____ _____    ______ ____
DOCKED: USER                              x       y       z     vdW  Elec       q    Type
DOCKED: USER                           _______ _______ _______ _____ _____    ______ ____
DOCKED: ROOT
DOCKED: ATOM      1  C   UNL     1      26.741 -14.855  -3.086 -0.39 -0.00    +0.000 C 
DOCKED: ENDROOT
DOCKED: BRANCH   1   2
DOCKED: ATOM      2  C   UNL     1      26.955 -14.425  -4.507 -0.43 -0.00    +0.000 C 
DOCKED: ATOM      3  N   UNL     1      27.292 -13.061  -4.799 -0.24 -0.00    +0.000 N 
DOCKED: ATOM      4  O   UNL     1      26.830 -15.272  -5.434 -1.11 +0.00    +0.000 OA
DOCKED: ATOM      5  H   UNL     1      27.221 -12.402  -4.072 +0.00 -0.00    +0.000 HD
DOCKED: BRANCH   3   6
DOCKED: ATOM      6  C   UNL     1      27.726 -12.595  -6.088 -0.19 -0.00    +0.000 A 
DOCKED: ATOM      7  C   UNL     1      28.470 -13.444  -6.918 -0.24 -0.00    +0.000 A 
DOCKED: ATOM      8  C   UNL     1      28.878 -13.010  -8.181 -0.19 -0.00    +0.000 A 
DOCKED: ATOM      9  C   UNL     1      28.522 -11.732  -8.612 -0.20 -0.00    +0.000 A 
DOCKED: ATOM     10  N   UNL     1      27.777 -10.927  -7.811 -0.14 -0.00    +0.000 NA
DOCKED: ATOM     11  C   UNL     1      27.372 -11.324  -6.574 -0.16 -0.00    +0.000 A 
DOCKED: ENDBRANCH   3   6
DOCKED: ENDBRANCH   1   2
DOCKED: BRANCH   1  12
DOCKED: ATOM     12  C   UNL     1      25.612 -15.892  -3.008 -0.55 -0.00    +0.000 C 
DOCKED: BRANCH  12  13
DOCKED: ATOM     13  C   UNL     1      25.712 -16.785  -1.758 -0.58 -0.00    +0.000 C 
DOCKED: BRANCH  13  14
DOCKED: ATOM     14  C   UNL     1      24.378 -16.994  -1.019 -0.67 -0.00    +0.000 C 
DOCKED: BRANCH  14  15
DOCKED: ATOM     15  C   UNL     1      23.905 -18.457  -1.052 -0.80 -0.00    +0.000 C 
DOCKED: BRANCH  15  16
DOCKED: ATOM     16  C   UNL     1      22.770 -18.726  -0.055 -0.71 -0.00    +0.000 C 
DOCKED: BRANCH  16  18
DOCKED: ATOM     17  O   UNL     1      20.808 -17.540  -0.734 -2.10 +0.00    +0.000 OA
DOCKED: ATOM     18  C   UNL     1      21.420 -18.642  -0.705 -0.87 -0.00    +0.000 C 
DOCKED: ATOM     19  N   UNL     1      20.814 -19.808  -1.267 -0.74 -0.00    +0.000 N 
DOCKED: ATOM     20  O   UNL     1      19.595 -19.734  -1.853 -2.19 -0.00    +0.000 OA
DOCKED: ATOM     21  H   UNL     1      21.285 -20.672  -1.228 -0.10 -0.00    +0.000 HD
DOCKED: ENDBRANCH  16  18
DOCKED: ENDBRANCH  15  16
DOCKED: ENDBRANCH  14  15
DOCKED: ENDBRANCH  13  14
DOCKED: ENDBRANCH  12  13
DOCKED: ENDBRANCH   1  12
DOCKED: TORSDOF 8
DOCKED: TER
DOCKED: ENDMDL
________________________________________________________________________________


	BEGINNING GENETIC ALGORITHM DOCKING 56 of 100
Run: 56 Seed: 108683190 38002426 [ Run 56 of 100 GA/GALS ]
Beginning LAMARCKIAN GENETIC ALGORITHM (LGA), with a maximum of 2500000 energy evaluations.

Final-Value: -14.189


	FINAL GENETIC ALGORITHM DOCKED STATE
	_______________________________________________


Detailed state:  trans 26.252 -15.873 -0.600 quatxyzw 0.318767 0.210277 -0.639922 -0.666836 center -0.033 -0.045 -0.218 ntor 8 169.3015 -179.8105 146.6156 154.4124 -92.3328 163.7789 163.1853 -109.9447
State:	 26.252 -15.873  -0.600   0.428  0.282 -0.859 -96.353    169.30 -179.81  146.62  154.41  -92.33  163.78  163.19 -109.94

DOCKED: MODEL       56
DOCKED: USER    Run = 56
DOCKED: USER    DPF = ligand_dock.biased.dpf
DOCKED: USER  
DOCKED: USER    Estimated Free Energy of Binding    =  -10.98 kcal/mol  [=(1)+(2)+(3)-(4)]
DOCKED: USER    Estimated Inhibition Constant, Ki   =    8.89 nM (nanomolar)  [Temperature = 298.15 K]
DOCKED: USER    
DOCKED: USER    (1) Final Intermolecular Energy     =  -13.37 kcal/mol
DOCKED: USER        vdW + Hbond + desolv Energy     =  -13.37 kcal/mol
DOCKED: USER        Electrostatic Energy            =   +0.00 kcal/mol
DOCKED: USER    (2) Final Total Internal Energy     =   -0.82 kcal/mol
DOCKED: USER    (3) Torsional Free Energy           =   +2.39 kcal/mol
DOCKED: USER    (4) Unbound System's Energy  [=(2)] =   -0.82 kcal/mol
DOCKED: USER    
DOCKED: USER    
DOCKED: USER    NEWDPF move ligand.pdbqt
DOCKED: USER    NEWDPF about -0.033000 -0.045000 -0.218000
DOCKED: USER    NEWDPF tran0 26.251610 -15.873455 -0.599567
DOCKED: USER    NEWDPF quaternion0 0.318767 0.210277 -0.639922 -0.666836
DOCKED: USER    NEWDPF axisangle0 0.427758 0.282173 -0.858721 -96.353285
DOCKED: USER    NEWDPF quat0 0.427758 0.282173 -0.858721 -96.353285
DOCKED: USER    NEWDPF dihe0 169.30 -179.81 146.62 154.41 -92.33 163.78 163.19 -109.94 
DOCKED: USER  keepresnum = 1 
DOCKED: USER  
DOCKED: REMARK  Name = 
DOCKED: REMARK  8 active torsions:
DOCKED: REMARK  status: ('A' for Active; 'I' for Inactive)
DOCKED: REMARK    1  A    between atoms: C_2  and  C_5
DOCKED: REMARK    2  A    between atoms: C_5  and  C_6
DOCKED: REMARK    3  A    between atoms: C_6  and  C_7
DOCKED: REMARK    4  A    between atoms: C_7  and  C_8
DOCKED: REMARK    5  A    between atoms: C_8  and  C_9
DOCKED: REMARK    6  A    between atoms: C_9  and  C_10
DOCKED: REMARK    7  A    between atoms: C_10  and  C_11
DOCKED: REMARK    8  A    between atoms: N_12  and  C_13
DOCKED: REMARK                            x       y       z     vdW  Elec       q    Type
DOCKED: REMARK                         _______ _______ _______ _____ _____    ______ ____
DOCKED: USER                              x       y       z     vdW  Elec       q    Type
DOCKED: USER                           _______ _______ _______ _____ _____    ______ ____
DOCKED: ROOT
DOCKED: ATOM      1  C   UNL     1      27.896 -15.511  -0.142 -0.30 -0.00    +0.000 C 
DOCKED: ENDROOT
DOCKED: BRANCH   1   2
DOCKED: ATOM      2  C   UNL     1      27.497 -14.676   1.039 -0.27 -0.00    +0.000 C 
DOCKED: ATOM      3  N   UNL     1      28.334 -14.639   2.205 -0.20 -0.00    +0.000 N 
DOCKED: ATOM      4  O   UNL     1      26.422 -14.018   0.996 -0.27 -0.00    +0.000 OA
DOCKED: ATOM      5  H   UNL     1      29.073 -15.287   2.263 -1.88 -0.00    +0.000 HD
DOCKED: BRANCH   3   6
DOCKED: ATOM      6  C   UNL     1      28.161 -13.718   3.295 -0.33 -0.00    +0.000 A 
DOCKED: ATOM      7  C   UNL     1      27.657 -12.434   3.044 -0.27 -0.00    +0.000 A 
DOCKED: ATOM      8  C   UNL     1      27.464 -11.538   4.096 -0.20 +0.00    +0.000 A 
DOCKED: ATOM      9  C   UNL     1      27.760 -11.939   5.398 -0.36 +0.00    +0.000 A 
DOCKED: ATOM     10  N   UNL     1      28.223 -13.195   5.634 -0.45 -0.00    +0.000 NA
DOCKED: ATOM     11  C   UNL     1      28.425 -14.085   4.626 -0.47 -0.00    +0.000 A 
DOCKED: ENDBRANCH   3   6
DOCKED: ENDBRANCH   1   2
DOCKED: BRANCH   1  12
DOCKED: ATOM     12  C   UNL     1      27.432 -16.961   0.051 -0.36 -0.00    +0.000 C 
DOCKED: BRANCH  12  13
DOCKED: ATOM     13  C   UNL     1      25.919 -17.135  -0.174 -0.46 -0.00    +0.000 C 
DOCKED: BRANCH  13  14
DOCKED: ATOM     14  C   UNL     1      25.529 -17.501  -1.617 -0.57 -0.00    +0.000 C 
DOCKED: BRANCH  14  15
DOCKED: ATOM     15  C   UNL     1      24.020 -17.356  -1.878 -0.47 -0.00    +0.000 C 
DOCKED: BRANCH  15  16
DOCKED: ATOM     16  C   UNL     1      23.190 -17.505  -0.595 -0.76 -0.00    +0.000 C 
DOCKED: BRANCH  16  18
DOCKED: ATOM     17  O   UNL     1      20.802 -17.473  -0.708 -2.06 +0.00    +0.000 OA
DOCKED: ATOM     18  C   UNL     1      21.858 -18.145  -0.860 -0.78 -0.00    +0.000 C 
DOCKED: ATOM     19  N   UNL     1      21.780 -19.515  -1.258 -0.64 -0.00    +0.000 N 
DOCKED: ATOM     20  O   UNL     1      20.578 -20.093  -1.496 -1.98 -0.00    +0.000 OA
DOCKED: ATOM     21  H   UNL     1      22.604 -20.044  -1.359 -0.28 -0.00    +0.000 HD
DOCKED: ENDBRANCH  16  18
DOCKED: ENDBRANCH  15  16
DOCKED: ENDBRANCH  14  15
DOCKED: ENDBRANCH  13  14
DOCKED: ENDBRANCH  12  13
DOCKED: ENDBRANCH   1  12
DOCKED: TORSDOF 8
DOCKED: TER
DOCKED: ENDMDL
________________________________________________________________________________


	BEGINNING GENETIC ALGORITHM DOCKING 57 of 100
Run: 57 Seed: 2015281089 1201800434 [ Run 57 of 100 GA/GALS ]
Beginning LAMARCKIAN GENETIC ALGORITHM (LGA), with a maximum of 2500000 energy evaluations.

Final-Value: -13.013


	FINAL GENETIC ALGORITHM DOCKED STATE
	_______________________________________________


Detailed state:  trans 24.866 -16.252 -0.277 quatxyzw -0.993298 -0.103533 0.038264 0.034280 center -0.033 -0.045 -0.218 ntor 8 81.7969 125.6486 -138.8870 178.5548 -131.5309 -176.2444 -175.3838 -87.8049
State:	 24.866 -16.252  -0.277  -0.994 -0.104  0.038 176.071     81.80  125.65 -138.89  178.55 -131.53 -176.24 -175.38  -87.80

DOCKED: MODEL       57
DOCKED: USER    Run = 57
DOCKED: USER    DPF = ligand_dock.biased.dpf
DOCKED: USER  
DOCKED: USER    Estimated Free Energy of Binding    =   -9.77 kcal/mol  [=(1)+(2)+(3)-(4)]
DOCKED: USER    Estimated Inhibition Constant, Ki   =   69.48 nM (nanomolar)  [Temperature = 298.15 K]
DOCKED: USER    
DOCKED: USER    (1) Final Intermolecular Energy     =  -12.15 kcal/mol
DOCKED: USER        vdW + Hbond + desolv Energy     =  -12.15 kcal/mol
DOCKED: USER        Electrostatic Energy            =   +0.00 kcal/mol
DOCKED: USER    (2) Final Total Internal Energy     =   -0.86 kcal/mol
DOCKED: USER    (3) Torsional Free Energy           =   +2.39 kcal/mol
DOCKED: USER    (4) Unbound System's Energy  [=(2)] =   -0.86 kcal/mol
DOCKED: USER    
DOCKED: USER    
DOCKED: USER    NEWDPF move ligand.pdbqt
DOCKED: USER    NEWDPF about -0.033000 -0.045000 -0.218000
DOCKED: USER    NEWDPF tran0 24.865738 -16.252106 -0.276731
DOCKED: USER    NEWDPF quaternion0 -0.993298 -0.103533 0.038264 0.034280
DOCKED: USER    NEWDPF axisangle0 -0.993883 -0.103593 0.038287 176.071042
DOCKED: USER    NEWDPF quat0 -0.993883 -0.103593 0.038287 176.071042
DOCKED: USER    NEWDPF dihe0 81.80 125.65 -138.89 178.55 -131.53 -176.24 -175.38 -87.80 
DOCKED: USER  keepresnum = 1 
DOCKED: USER  
DOCKED: REMARK  Name = 
DOCKED: REMARK  8 active torsions:
DOCKED: REMARK  status: ('A' for Active; 'I' for Inactive)
DOCKED: REMARK    1  A    between atoms: C_2  and  C_5
DOCKED: REMARK    2  A    between atoms: C_5  and  C_6
DOCKED: REMARK    3  A    between atoms: C_6  and  C_7
DOCKED: REMARK    4  A    between atoms: C_7  and  C_8
DOCKED: REMARK    5  A    between atoms: C_8  and  C_9
DOCKED: REMARK    6  A    between atoms: C_9  and  C_10
DOCKED: REMARK    7  A    between atoms: C_10  and  C_11
DOCKED: REMARK    8  A    between atoms: N_12  and  C_13
DOCKED: REMARK                            x       y       z     vdW  Elec       q    Type
DOCKED: REMARK                         _______ _______ _______ _____ _____    ______ ____
DOCKED: USER                              x       y       z     vdW  Elec       q    Type
DOCKED: USER                           _______ _______ _______ _____ _____    ______ ____
DOCKED: ROOT
DOCKED: ATOM      1  C   UNL     1      24.813 -17.975  -0.004 -0.63 -0.00    +0.000 C 
DOCKED: ENDROOT
DOCKED: BRANCH   1   2
DOCKED: ATOM      2  C   UNL     1      23.330 -18.070  -0.203 -0.77 -0.00    +0.000 C 
DOCKED: ATOM      3  N   UNL     1      22.704 -19.357  -0.321 -0.67 -0.00    +0.000 N 
DOCKED: ATOM      4  O   UNL     1      22.646 -17.012  -0.272 -0.78 -0.00    +0.000 OA
DOCKED: ATOM      5  H   UNL     1      23.285 -20.144  -0.425 -0.24 -0.00    +0.000 HD
DOCKED: BRANCH   3   6
DOCKED: ATOM      6  C   UNL     1      21.282 -19.569  -0.298 -0.66 -0.00    +0.000 A 
DOCKED: ATOM      7  C   UNL     1      20.625 -19.728   0.929 -0.38 -0.00    +0.000 A 
DOCKED: ATOM      8  C   UNL     1      19.242 -19.914   0.965 -0.67 -0.00    +0.000 A 
DOCKED: ATOM      9  C   UNL     1      18.522 -19.919  -0.229 -0.34 -0.00    +0.000 A 
DOCKED: ATOM     10  N   UNL     1      19.165 -19.736  -1.412 -1.27 -0.00    +0.000 NA
DOCKED: ATOM     11  C   UNL     1      20.513 -19.560  -1.475 -0.66 -0.00    +0.000 A 
DOCKED: ENDBRANCH   3   6
DOCKED: ENDBRANCH   1   2
DOCKED: BRANCH   1  12
DOCKED: ATOM     12  C   UNL     1      25.494 -17.503  -1.295 -0.63 -0.00    +0.000 C 
DOCKED: BRANCH  12  13
DOCKED: ATOM     13  C   UNL     1      25.784 -15.992  -1.297 -0.51 -0.00    +0.000 C 
DOCKED: BRANCH  13  14
DOCKED: ATOM     14  C   UNL     1      27.279 -15.631  -1.234 -0.34 -0.00    +0.000 C 
DOCKED: BRANCH  14  15
DOCKED: ATOM     15  C   UNL     1      27.584 -14.260  -1.862 -0.21 -0.00    +0.000 C 
DOCKED: BRANCH  15  16
DOCKED: ATOM     16  C   UNL     1      26.329 -13.590  -2.438 -0.13 -0.00    +0.000 C 
DOCKED: BRANCH  16  18
DOCKED: ATOM     17  O   UNL     1      24.670 -14.112  -4.079 -1.12 -0.00    +0.000 OA
DOCKED: ATOM     18  C   UNL     1      25.862 -14.262  -3.696 -0.50 -0.00    +0.000 C 
DOCKED: ATOM     19  N   UNL     1      26.752 -15.092  -4.446 -0.47 -0.00    +0.000 N 
DOCKED: ATOM     20  O   UNL     1      26.332 -15.699  -5.581 -1.16 +0.00    +0.000 OA
DOCKED: ATOM     21  H   UNL     1      27.678 -15.223  -4.136 -0.01 -0.00    +0.000 HD
DOCKED: ENDBRANCH  16  18
DOCKED: ENDBRANCH  15  16
DOCKED: ENDBRANCH  14  15
DOCKED: ENDBRANCH  13  14
DOCKED: ENDBRANCH  12  13
DOCKED: ENDBRANCH   1  12
DOCKED: TORSDOF 8
DOCKED: TER
DOCKED: ENDMDL
________________________________________________________________________________


	BEGINNING GENETIC ALGORITHM DOCKING 58 of 100
Run: 58 Seed: 327373504 1721123419 [ Run 58 of 100 GA/GALS ]
Beginning LAMARCKIAN GENETIC ALGORITHM (LGA), with a maximum of 2500000 energy evaluations.

Final-Value: -14.682


	FINAL GENETIC ALGORITHM DOCKED STATE
	_______________________________________________


Detailed state:  trans 25.894 -15.089 -0.322 quatxyzw 0.336533 0.260103 -0.667110 -0.611602 center -0.033 -0.045 -0.218 ntor 8 -163.9312 -178.5408 91.9936 105.5658 -122.2394 -165.1849 156.7258 -86.8032
State:	 25.894 -15.089  -0.322   0.425  0.329 -0.843 -104.589   -163.93 -178.54   91.99  105.57 -122.24 -165.18  156.73  -86.80

DOCKED: MODEL       58
DOCKED: USER    Run = 58
DOCKED: USER    DPF = ligand_dock.biased.dpf
DOCKED: USER  
DOCKED: USER    Estimated Free Energy of Binding    =  -11.60 kcal/mol  [=(1)+(2)+(3)-(4)]
DOCKED: USER    Estimated Inhibition Constant, Ki   =    3.12 nM (nanomolar)  [Temperature = 298.15 K]
DOCKED: USER    
DOCKED: USER    (1) Final Intermolecular Energy     =  -13.99 kcal/mol
DOCKED: USER        vdW + Hbond + desolv Energy     =  -13.99 kcal/mol
DOCKED: USER        Electrostatic Energy            =   +0.00 kcal/mol
DOCKED: USER    (2) Final Total Internal Energy     =   -0.69 kcal/mol
DOCKED: USER    (3) Torsional Free Energy           =   +2.39 kcal/mol
DOCKED: USER    (4) Unbound System's Energy  [=(2)] =   -0.69 kcal/mol
DOCKED: USER    
DOCKED: USER    
DOCKED: USER    NEWDPF move ligand.pdbqt
DOCKED: USER    NEWDPF about -0.033000 -0.045000 -0.218000
DOCKED: USER    NEWDPF tran0 25.893846 -15.089351 -0.321950
DOCKED: USER    NEWDPF quaternion0 0.336533 0.260103 -0.667110 -0.611602
DOCKED: USER    NEWDPF axisangle0 0.425363 0.328759 -0.843198 -104.589157
DOCKED: USER    NEWDPF quat0 0.425363 0.328759 -0.843198 -104.589157
DOCKED: USER    NEWDPF dihe0 -163.93 -178.54 91.99 105.57 -122.24 -165.18 156.73 -86.80 
DOCKED: USER  keepresnum = 1 
DOCKED: USER  
DOCKED: REMARK  Name = 
DOCKED: REMARK  8 active torsions:
DOCKED: REMARK  status: ('A' for Active; 'I' for Inactive)
DOCKED: REMARK    1  A    between atoms: C_2  and  C_5
DOCKED: REMARK    2  A    between atoms: C_5  and  C_6
DOCKED: REMARK    3  A    between atoms: C_6  and  C_7
DOCKED: REMARK    4  A    between atoms: C_7  and  C_8
DOCKED: REMARK    5  A    between atoms: C_8  and  C_9
DOCKED: REMARK    6  A    between atoms: C_9  and  C_10
DOCKED: REMARK    7  A    between atoms: C_10  and  C_11
DOCKED: REMARK    8  A    between atoms: N_12  and  C_13
DOCKED: REMARK                            x       y       z     vdW  Elec       q    Type
DOCKED: REMARK                         _______ _______ _______ _____ _____    ______ ____
DOCKED: USER                              x       y       z     vdW  Elec       q    Type
DOCKED: USER                           _______ _______ _______ _____ _____    ______ ____
DOCKED: ROOT
DOCKED: ATOM      1  C   UNL     1      27.594 -14.910   0.025 -0.29 -0.00    +0.000 C 
DOCKED: ENDROOT
DOCKED: BRANCH   1   2
DOCKED: ATOM      2  C   UNL     1      27.365 -14.188   1.319 -0.28 -0.00    +0.000 C 
DOCKED: ATOM      3  N   UNL     1      28.211 -14.455   2.448 -0.30 -0.00    +0.000 N 
DOCKED: ATOM      4  O   UNL     1      26.423 -13.354   1.403 -0.39 -0.00    +0.000 OA
DOCKED: ATOM      5  H   UNL     1      28.825 -15.222   2.393 -1.87 -0.00    +0.000 HD
DOCKED: BRANCH   3   6
DOCKED: ATOM      6  C   UNL     1      28.218 -13.674   3.655 -0.36 -0.00    +0.000 A 
DOCKED: ATOM      7  C   UNL     1      27.918 -12.306   3.597 -0.27 -0.00    +0.000 A 
DOCKED: ATOM      8  C   UNL     1      27.900 -11.542   4.765 -0.33 +0.00    +0.000 A 
DOCKED: ATOM      9  C   UNL     1      28.165 -12.157   5.988 -0.37 +0.00    +0.000 A 
DOCKED: ATOM     10  N   UNL     1      28.428 -13.490   6.037 -0.44 -0.00    +0.000 NA
DOCKED: ATOM     11  C   UNL     1      28.457 -14.255   4.913 -0.49 -0.00    +0.000 A 
DOCKED: ENDBRANCH   3   6
DOCKED: ENDBRANCH   1   2
DOCKED: BRANCH   1  12
DOCKED: ATOM     12  C   UNL     1      27.023 -16.332   0.101 -0.36 -0.00    +0.000 C 
DOCKED: BRANCH  12  13
DOCKED: ATOM     13  C   UNL     1      25.633 -16.449  -0.550 -0.43 -0.00    +0.000 C 
DOCKED: BRANCH  13  14
DOCKED: ATOM     14  C   UNL     1      25.545 -17.493  -1.679 -0.56 -0.00    +0.000 C 
DOCKED: BRANCH  14  15
DOCKED: ATOM     15  C   UNL     1      24.095 -17.880  -2.015 -0.46 -0.00    +0.000 C 
DOCKED: BRANCH  15  16
DOCKED: ATOM     16  C   UNL     1      23.474 -18.794  -0.950 -0.81 -0.00    +0.000 C 
DOCKED: BRANCH  16  18
DOCKED: ATOM     17  O   UNL     1      21.357 -17.865  -0.336 -1.70 -0.00    +0.000 OA
DOCKED: ATOM     18  C   UNL     1      21.973 -18.754  -0.984 -0.83 -0.00    +0.000 C 
DOCKED: ATOM     19  N   UNL     1      21.240 -19.735  -1.722 -0.57 -0.00    +0.000 N 
DOCKED: ATOM     20  O   UNL     1      19.887 -19.701  -1.752 -2.35 -0.00    +0.000 OA
DOCKED: ATOM     21  H   UNL     1      21.722 -20.439  -2.213 -0.54 -0.00    +0.000 HD
DOCKED: ENDBRANCH  16  18
DOCKED: ENDBRANCH  15  16
DOCKED: ENDBRANCH  14  15
DOCKED: ENDBRANCH  13  14
DOCKED: ENDBRANCH  12  13
DOCKED: ENDBRANCH   1  12
DOCKED: TORSDOF 8
DOCKED: TER
DOCKED: ENDMDL
________________________________________________________________________________


	BEGINNING GENETIC ALGORITHM DOCKING 59 of 100
Run: 59 Seed: 299363724 255087690 [ Run 59 of 100 GA/GALS ]
Beginning LAMARCKIAN GENETIC ALGORITHM (LGA), with a maximum of 2500000 energy evaluations.

Final-Value: -12.567


	FINAL GENETIC ALGORITHM DOCKED STATE
	_______________________________________________


Detailed state:  trans 27.730 -16.312 -2.617 quatxyzw 0.510956 -0.429993 -0.628933 -0.398087 center -0.033 -0.045 -0.218 ntor 8 158.2643 -102.1456 94.8695 13.0619 175.5982 -171.9006 104.1271 41.0976
State:	 27.730 -16.312  -2.617   0.557 -0.469 -0.686 -133.083    158.26 -102.15   94.87   13.06  175.60 -171.90  104.13   41.10

DOCKED: MODEL       59
DOCKED: USER    Run = 59
DOCKED: USER    DPF = ligand_dock.biased.dpf
DOCKED: USER  
DOCKED: USER    Estimated Free Energy of Binding    =   -9.38 kcal/mol  [=(1)+(2)+(3)-(4)]
DOCKED: USER    Estimated Inhibition Constant, Ki   =  133.37 nM (nanomolar)  [Temperature = 298.15 K]
DOCKED: USER    
DOCKED: USER    (1) Final Intermolecular Energy     =  -11.77 kcal/mol
DOCKED: USER        vdW + Hbond + desolv Energy     =  -11.77 kcal/mol
DOCKED: USER        Electrostatic Energy            =   +0.00 kcal/mol
DOCKED: USER    (2) Final Total Internal Energy     =   -0.80 kcal/mol
DOCKED: USER    (3) Torsional Free Energy           =   +2.39 kcal/mol
DOCKED: USER    (4) Unbound System's Energy  [=(2)] =   -0.80 kcal/mol
DOCKED: USER    
DOCKED: USER    
DOCKED: USER    NEWDPF move ligand.pdbqt
DOCKED: USER    NEWDPF about -0.033000 -0.045000 -0.218000
DOCKED: USER    NEWDPF tran0 27.729743 -16.311626 -2.616717
DOCKED: USER    NEWDPF quaternion0 0.510956 -0.429993 -0.628933 -0.398087
DOCKED: USER    NEWDPF axisangle0 0.556993 -0.468735 -0.685599 -133.082698
DOCKED: USER    NEWDPF quat0 0.556993 -0.468735 -0.685599 -133.082698
DOCKED: USER    NEWDPF dihe0 158.26 -102.15 94.87 13.06 175.60 -171.90 104.13 41.10 
DOCKED: USER  keepresnum = 1 
DOCKED: USER  
DOCKED: REMARK  Name = 
DOCKED: REMARK  8 active torsions:
DOCKED: REMARK  status: ('A' for Active; 'I' for Inactive)
DOCKED: REMARK    1  A    between atoms: C_2  and  C_5
DOCKED: REMARK    2  A    between atoms: C_5  and  C_6
DOCKED: REMARK    3  A    between atoms: C_6  and  C_7
DOCKED: REMARK    4  A    between atoms: C_7  and  C_8
DOCKED: REMARK    5  A    between atoms: C_8  and  C_9
DOCKED: REMARK    6  A    between atoms: C_9  and  C_10
DOCKED: REMARK    7  A    between atoms: C_10  and  C_11
DOCKED: REMARK    8  A    between atoms: N_12  and  C_13
DOCKED: REMARK                            x       y       z     vdW  Elec       q    Type
DOCKED: REMARK                         _______ _______ _______ _____ _____    ______ ____
DOCKED: USER                              x       y       z     vdW  Elec       q    Type
DOCKED: USER                           _______ _______ _______ _____ _____    ______ ____
DOCKED: ROOT
DOCKED: ATOM      1  C   UNL     1      28.036 -16.460  -0.905 -0.35 -0.00    +0.000 C 
DOCKED: ENDROOT
DOCKED: BRANCH   1   2
DOCKED: ATOM      2  C   UNL     1      27.952 -14.984  -0.653 -0.24 -0.00    +0.000 C 
DOCKED: ATOM      3  N   UNL     1      26.686 -14.381  -0.347 -0.29 -0.00    +0.000 N 
DOCKED: ATOM      4  O   UNL     1      29.000 -14.285  -0.717 -0.11 -0.00    +0.000 OA
DOCKED: ATOM      5  H   UNL     1      25.875 -14.926  -0.465 -0.02 -0.00    +0.000 HD
DOCKED: BRANCH   3   6
DOCKED: ATOM      6  C   UNL     1      26.526 -13.030   0.118 -0.23 -0.00    +0.000 A 
DOCKED: ATOM      7  C   UNL     1      27.225 -11.992  -0.512 -0.13 -0.00    +0.000 A 
DOCKED: ATOM      8  C   UNL     1      27.062 -10.674  -0.082 -0.15 +0.00    +0.000 A 
DOCKED: ATOM      9  C   UNL     1      26.183 -10.401   0.965 -0.32 +0.00    +0.000 A 
DOCKED: ATOM     10  N   UNL     1      25.488 -11.411   1.552 -0.40 +0.00    +0.000 NA
DOCKED: ATOM     11  C   UNL     1      25.634 -12.705   1.156 -0.27 +0.00    +0.000 A 
DOCKED: ENDBRANCH   3   6
DOCKED: ENDBRANCH   1   2
DOCKED: BRANCH   1  12
DOCKED: ATOM     12  C   UNL     1      26.688 -16.991  -1.412 -0.49 -0.00    +0.000 C 
DOCKED: BRANCH  12  13
DOCKED: ATOM     13  C   UNL     1      26.250 -18.280  -0.693 -0.57 -0.00    +0.000 C 
DOCKED: BRANCH  13  14
DOCKED: ATOM     14  C   UNL     1      24.960 -18.139   0.134 -0.58 -0.00    +0.000 C 
DOCKED: BRANCH  14  15
DOCKED: ATOM     15  C   UNL     1      23.727 -18.706  -0.590 -0.77 -0.00    +0.000 C 
DOCKED: BRANCH  15  16
DOCKED: ATOM     16  C   UNL     1      22.412 -18.285   0.080 -0.77 -0.00    +0.000 C 
DOCKED: BRANCH  16  18
DOCKED: ATOM     17  O   UNL     1      20.493 -17.455  -1.080 -2.05 -0.00    +0.000 OA
DOCKED: ATOM     18  C   UNL     1      21.237 -18.444  -0.841 -0.79 -0.00    +0.000 C 
DOCKED: ATOM     19  N   UNL     1      20.943 -19.715  -1.425 -0.77 -0.00    +0.000 N 
DOCKED: ATOM     20  O   UNL     1      19.883 -19.860  -2.255 -2.23 -0.00    +0.000 OA
DOCKED: ATOM     21  H   UNL     1      21.514 -20.491  -1.223 -0.22 -0.00    +0.000 HD
DOCKED: ENDBRANCH  16  18
DOCKED: ENDBRANCH  15  16
DOCKED: ENDBRANCH  14  15
DOCKED: ENDBRANCH  13  14
DOCKED: ENDBRANCH  12  13
DOCKED: ENDBRANCH   1  12
DOCKED: TORSDOF 8
DOCKED: TER
DOCKED: ENDMDL
________________________________________________________________________________


	BEGINNING GENETIC ALGORITHM DOCKING 60 of 100
Run: 60 Seed: 2032678429 1009974428 [ Run 60 of 100 GA/GALS ]
Beginning LAMARCKIAN GENETIC ALGORITHM (LGA), with a maximum of 2500000 energy evaluations.

Final-Value: -13.441


	FINAL GENETIC ALGORITHM DOCKED STATE
	_______________________________________________


Detailed state:  trans 26.177 -15.852 -1.297 quatxyzw -0.404063 -0.075212 0.694496 0.590552 center -0.033 -0.045 -0.218 ntor 8 30.3512 -15.3800 120.9844 57.5574 -135.6464 -164.4198 -179.9468 -135.7186
State:	 26.177 -15.852  -1.297  -0.501 -0.093  0.861 107.608     30.35  -15.38  120.98   57.56 -135.65 -164.42 -179.95 -135.72

DOCKED: MODEL       60
DOCKED: USER    Run = 60
DOCKED: USER    DPF = ligand_dock.biased.dpf
DOCKED: USER  
DOCKED: USER    Estimated Free Energy of Binding    =  -10.33 kcal/mol  [=(1)+(2)+(3)-(4)]
DOCKED: USER    Estimated Inhibition Constant, Ki   =   26.68 nM (nanomolar)  [Temperature = 298.15 K]
DOCKED: USER    
DOCKED: USER    (1) Final Intermolecular Energy     =  -12.72 kcal/mol
DOCKED: USER        vdW + Hbond + desolv Energy     =  -12.72 kcal/mol
DOCKED: USER        Electrostatic Energy            =   +0.00 kcal/mol
DOCKED: USER    (2) Final Total Internal Energy     =   -0.72 kcal/mol
DOCKED: USER    (3) Torsional Free Energy           =   +2.39 kcal/mol
DOCKED: USER    (4) Unbound System's Energy  [=(2)] =   -0.72 kcal/mol
DOCKED: USER    
DOCKED: USER    
DOCKED: USER    NEWDPF move ligand.pdbqt
DOCKED: USER    NEWDPF about -0.033000 -0.045000 -0.218000
DOCKED: USER    NEWDPF tran0 26.176660 -15.851568 -1.297476
DOCKED: USER    NEWDPF quaternion0 -0.404063 -0.075212 0.694496 0.590552
DOCKED: USER    NEWDPF axisangle0 -0.500698 -0.093200 0.860590 107.607570
DOCKED: USER    NEWDPF quat0 -0.500698 -0.093200 0.860590 107.607570
DOCKED: USER    NEWDPF dihe0 30.35 -15.38 120.98 57.56 -135.65 -164.42 -179.95 -135.72 
DOCKED: USER  keepresnum = 1 
DOCKED: USER  
DOCKED: REMARK  Name = 
DOCKED: REMARK  8 active torsions:
DOCKED: REMARK  status: ('A' for Active; 'I' for Inactive)
DOCKED: REMARK    1  A    between atoms: C_2  and  C_5
DOCKED: REMARK    2  A    between atoms: C_5  and  C_6
DOCKED: REMARK    3  A    between atoms: C_6  and  C_7
DOCKED: REMARK    4  A    between atoms: C_7  and  C_8
DOCKED: REMARK    5  A    between atoms: C_8  and  C_9
DOCKED: REMARK    6  A    between atoms: C_9  and  C_10
DOCKED: REMARK    7  A    between atoms: C_10  and  C_11
DOCKED: REMARK    8  A    between atoms: N_12  and  C_13
DOCKED: REMARK                            x       y       z     vdW  Elec       q    Type
DOCKED: REMARK                         _______ _______ _______ _____ _____    ______ ____
DOCKED: USER                              x       y       z     vdW  Elec       q    Type
DOCKED: USER                           _______ _______ _______ _____ _____    ______ ____
DOCKED: ROOT
DOCKED: ATOM      1  C   UNL     1      27.718 -15.941  -0.484 -0.34 -0.00    +0.000 C 
DOCKED: ENDROOT
DOCKED: BRANCH   1   2
DOCKED: ATOM      2  C   UNL     1      27.336 -14.953   0.578 -0.28 -0.00    +0.000 C 
DOCKED: ATOM      3  N   UNL     1      28.126 -14.844   1.772 -0.22 -0.00    +0.000 N 
DOCKED: ATOM      4  O   UNL     1      26.317 -14.229   0.411 -0.36 -0.00    +0.000 OA
DOCKED: ATOM      5  H   UNL     1      28.811 -15.531   1.936 -1.52 -0.00    +0.000 HD
DOCKED: BRANCH   3   6
DOCKED: ATOM      6  C   UNL     1      27.980 -13.795   2.744 -0.30 -0.00    +0.000 A 
DOCKED: ATOM      7  C   UNL     1      27.909 -14.117   4.106 -0.49 -0.00    +0.000 A 
DOCKED: ATOM      8  C   UNL     1      27.788 -13.106   5.061 -0.44 -0.00    +0.000 A 
DOCKED: ATOM      9  C   UNL     1      27.759 -11.775   4.646 -0.32 +0.00    +0.000 A 
DOCKED: ATOM     10  N   UNL     1      27.856 -11.471   3.325 -0.24 +0.00    +0.000 NA
DOCKED: ATOM     11  C   UNL     1      27.968 -12.438   2.375 -0.21 -0.00    +0.000 A 
DOCKED: ENDBRANCH   3   6
DOCKED: ENDBRANCH   1   2
DOCKED: BRANCH   1  12
DOCKED: ATOM     12  C   UNL     1      26.822 -17.184  -0.400 -0.53 -0.00    +0.000 C 
DOCKED: BRANCH  12  13
DOCKED: ATOM     13  C   UNL     1      25.324 -16.834  -0.337 -0.40 -0.00    +0.000 C 
DOCKED: BRANCH  13  14
DOCKED: ATOM     14  C   UNL     1      24.474 -17.480  -1.446 -0.71 -0.00    +0.000 C 
DOCKED: BRANCH  14  15
DOCKED: ATOM     15  C   UNL     1      23.029 -17.760  -0.997 -0.76 -0.00    +0.000 C 
DOCKED: BRANCH  15  16
DOCKED: ATOM     16  C   UNL     1      22.653 -19.241  -1.136 -0.74 -0.00    +0.000 C 
DOCKED: BRANCH  16  18
DOCKED: ATOM     17  O   UNL     1      20.422 -19.755  -1.825 -2.25 -0.00    +0.000 OA
DOCKED: ATOM     18  C   UNL     1      21.194 -19.476  -0.869 -0.80 -0.00    +0.000 C 
DOCKED: ATOM     19  N   UNL     1      20.673 -19.358   0.457 -0.71 -0.00    +0.000 N 
DOCKED: ATOM     20  O   UNL     1      19.357 -19.568   0.698 -0.81 -0.00    +0.000 OA
DOCKED: ATOM     21  H   UNL     1      21.274 -19.122   1.200 -0.28 -0.00    +0.000 HD
DOCKED: ENDBRANCH  16  18
DOCKED: ENDBRANCH  15  16
DOCKED: ENDBRANCH  14  15
DOCKED: ENDBRANCH  13  14
DOCKED: ENDBRANCH  12  13
DOCKED: ENDBRANCH   1  12
DOCKED: TORSDOF 8
DOCKED: TER
DOCKED: ENDMDL
________________________________________________________________________________


	BEGINNING GENETIC ALGORITHM DOCKING 61 of 100
Run: 61 Seed: 1720598470 169235359 [ Run 61 of 100 GA/GALS ]
Beginning LAMARCKIAN GENETIC ALGORITHM (LGA), with a maximum of 2500000 energy evaluations.

Final-Value: -13.532


	FINAL GENETIC ALGORITHM DOCKED STATE
	_______________________________________________


Detailed state:  trans 25.222 -16.444 -0.121 quatxyzw 0.003419 0.816962 -0.418805 -0.396440 center -0.033 -0.045 -0.218 ntor 8 174.0659 80.2532 131.8085 32.5577 82.6341 173.7139 -75.9195 -147.9488
State:	 25.222 -16.444  -0.121   0.004  0.890 -0.456 -133.288    174.07   80.25  131.81   32.56   82.63  173.71  -75.92 -147.95

DOCKED: MODEL       61
DOCKED: USER    Run = 61
DOCKED: USER    DPF = ligand_dock.biased.dpf
DOCKED: USER  
DOCKED: USER    Estimated Free Energy of Binding    =  -10.44 kcal/mol  [=(1)+(2)+(3)-(4)]
DOCKED: USER    Estimated Inhibition Constant, Ki   =   22.30 nM (nanomolar)  [Temperature = 298.15 K]
DOCKED: USER    
DOCKED: USER    (1) Final Intermolecular Energy     =  -12.83 kcal/mol
DOCKED: USER        vdW + Hbond + desolv Energy     =  -12.83 kcal/mol
DOCKED: USER        Electrostatic Energy            =   +0.00 kcal/mol
DOCKED: USER    (2) Final Total Internal Energy     =   -0.71 kcal/mol
DOCKED: USER    (3) Torsional Free Energy           =   +2.39 kcal/mol
DOCKED: USER    (4) Unbound System's Energy  [=(2)] =   -0.71 kcal/mol
DOCKED: USER    
DOCKED: USER    
DOCKED: USER    NEWDPF move ligand.pdbqt
DOCKED: USER    NEWDPF about -0.033000 -0.045000 -0.218000
DOCKED: USER    NEWDPF tran0 25.222338 -16.443688 -0.121336
DOCKED: USER    NEWDPF quaternion0 0.003419 0.816962 -0.418805 -0.396440
DOCKED: USER    NEWDPF axisangle0 0.003724 0.889878 -0.456184 -133.288424
DOCKED: USER    NEWDPF quat0 0.003724 0.889878 -0.456184 -133.288424
DOCKED: USER    NEWDPF dihe0 174.07 80.25 131.81 32.56 82.63 173.71 -75.92 -147.95 
DOCKED: USER  keepresnum = 1 
DOCKED: USER  
DOCKED: REMARK  Name = 
DOCKED: REMARK  8 active torsions:
DOCKED: REMARK  status: ('A' for Active; 'I' for Inactive)
DOCKED: REMARK    1  A    between atoms: C_2  and  C_5
DOCKED: REMARK    2  A    between atoms: C_5  and  C_6
DOCKED: REMARK    3  A    between atoms: C_6  and  C_7
DOCKED: REMARK    4  A    between atoms: C_7  and  C_8
DOCKED: REMARK    5  A    between atoms: C_8  and  C_9
DOCKED: REMARK    6  A    between atoms: C_9  and  C_10
DOCKED: REMARK    7  A    between atoms: C_10  and  C_11
DOCKED: REMARK    8  A    between atoms: N_12  and  C_13
DOCKED: REMARK                            x       y       z     vdW  Elec       q    Type
DOCKED: REMARK                         _______ _______ _______ _____ _____    ______ ____
DOCKED: USER                              x       y       z     vdW  Elec       q    Type
DOCKED: USER                           _______ _______ _______ _____ _____    ______ ____
DOCKED: ROOT
DOCKED: ATOM      1  C   UNL     1      25.994 -15.116  -0.949 -0.40 -0.00    +0.000 C 
DOCKED: ENDROOT
DOCKED: BRANCH   1   2
DOCKED: ATOM      2  C   UNL     1      27.110 -15.002   0.046 -0.33 -0.00    +0.000 C 
DOCKED: ATOM      3  N   UNL     1      26.978 -14.121   1.172 -0.29 -0.00    +0.000 N 
DOCKED: ATOM      4  O   UNL     1      28.159 -15.682  -0.121 -0.30 -0.00    +0.000 OA
DOCKED: ATOM      5  H   UNL     1      26.221 -13.492   1.179 -0.02 -0.00    +0.000 HD
DOCKED: BRANCH   3   6
DOCKED: ATOM      6  C   UNL     1      27.884 -14.096   2.288 -0.29 -0.00    +0.000 A 
DOCKED: ATOM      7  C   UNL     1      27.375 -14.107   3.594 -0.41 -0.00    +0.000 A 
DOCKED: ATOM      8  C   UNL     1      28.244 -14.105   4.686 -0.50 -0.00    +0.000 A 
DOCKED: ATOM      9  C   UNL     1      29.621 -14.110   4.463 -0.34 -0.00    +0.000 A 
DOCKED: ATOM     10  N   UNL     1      30.104 -14.126   3.193 -0.22 -0.00    +0.000 NA
DOCKED: ATOM     11  C   UNL     1      29.278 -14.123   2.112 -0.18 -0.00    +0.000 A 
DOCKED: ENDBRANCH   3   6
DOCKED: ENDBRANCH   1   2
DOCKED: BRANCH   1  12
DOCKED: ATOM     12  C   UNL     1      26.041 -16.482  -1.647 -0.53 -0.00    +0.000 C 
DOCKED: BRANCH  12  13
DOCKED: ATOM     13  C   UNL     1      26.453 -17.620  -0.696 -0.59 -0.00    +0.000 C 
DOCKED: BRANCH  13  14
DOCKED: ATOM     14  C   UNL     1      25.282 -18.484  -0.194 -0.60 -0.00    +0.000 C 
DOCKED: BRANCH  14  15
DOCKED: ATOM     15  C   UNL     1      23.956 -18.152  -0.899 -0.79 -0.00    +0.000 C 
DOCKED: BRANCH  15  16
DOCKED: ATOM     16  C   UNL     1      22.743 -18.341   0.022 -0.77 -0.00    +0.000 C 
DOCKED: BRANCH  16  18
DOCKED: ATOM     17  O   UNL     1      20.633 -17.502  -0.726 -2.10 +0.00    +0.000 OA
DOCKED: ATOM     18  C   UNL     1      21.462 -18.451  -0.753 -0.84 -0.00    +0.000 C 
DOCKED: ATOM     19  N   UNL     1      21.166 -19.635  -1.497 -0.70 -0.00    +0.000 N 
DOCKED: ATOM     20  O   UNL     1      20.010 -19.735  -2.195 -2.33 -0.00    +0.000 OA
DOCKED: ATOM     21  H   UNL     1      21.806 -20.383  -1.502 -0.32 -0.00    +0.000 HD
DOCKED: ENDBRANCH  16  18
DOCKED: ENDBRANCH  15  16
DOCKED: ENDBRANCH  14  15
DOCKED: ENDBRANCH  13  14
DOCKED: ENDBRANCH  12  13
DOCKED: ENDBRANCH   1  12
DOCKED: TORSDOF 8
DOCKED: TER
DOCKED: ENDMDL
________________________________________________________________________________


	BEGINNING GENETIC ALGORITHM DOCKING 62 of 100
Run: 62 Seed: 2031326856 137681190 [ Run 62 of 100 GA/GALS ]
Beginning LAMARCKIAN GENETIC ALGORITHM (LGA), with a maximum of 2500000 energy evaluations.

Final-Value: -12.313


	FINAL GENETIC ALGORITHM DOCKED STATE
	_______________________________________________


Detailed state:  trans 25.865 -17.032 -1.609 quatxyzw -0.043552 -0.800447 -0.466734 -0.373561 center -0.033 -0.045 -0.218 ntor 8 18.2415 -47.8108 89.8686 -59.0287 -147.8948 162.2983 -16.0525 -92.3102
State:	 25.865 -17.032  -1.609  -0.047 -0.863 -0.503 -136.129     18.24  -47.81   89.87  -59.03 -147.89  162.30  -16.05  -92.31

DOCKED: MODEL       62
DOCKED: USER    Run = 62
DOCKED: USER    DPF = ligand_dock.biased.dpf
DOCKED: USER  
DOCKED: USER    Estimated Free Energy of Binding    =   -9.16 kcal/mol  [=(1)+(2)+(3)-(4)]
DOCKED: USER    Estimated Inhibition Constant, Ki   =  191.88 nM (nanomolar)  [Temperature = 298.15 K]
DOCKED: USER    
DOCKED: USER    (1) Final Intermolecular Energy     =  -11.55 kcal/mol
DOCKED: USER        vdW + Hbond + desolv Energy     =  -11.55 kcal/mol
DOCKED: USER        Electrostatic Energy            =   +0.00 kcal/mol
DOCKED: USER    (2) Final Total Internal Energy     =   -0.76 kcal/mol
DOCKED: USER    (3) Torsional Free Energy           =   +2.39 kcal/mol
DOCKED: USER    (4) Unbound System's Energy  [=(2)] =   -0.76 kcal/mol
DOCKED: USER    
DOCKED: USER    
DOCKED: USER    NEWDPF move ligand.pdbqt
DOCKED: USER    NEWDPF about -0.033000 -0.045000 -0.218000
DOCKED: USER    NEWDPF tran0 25.864754 -17.031719 -1.608962
DOCKED: USER    NEWDPF quaternion0 -0.043552 -0.800447 -0.466734 -0.373561
DOCKED: USER    NEWDPF axisangle0 -0.046951 -0.862917 -0.503160 -136.129189
DOCKED: USER    NEWDPF quat0 -0.046951 -0.862917 -0.503160 -136.129189
DOCKED: USER    NEWDPF dihe0 18.24 -47.81 89.87 -59.03 -147.89 162.30 -16.05 -92.31 
DOCKED: USER  keepresnum = 1 
DOCKED: USER  
DOCKED: REMARK  Name = 
DOCKED: REMARK  8 active torsions:
DOCKED: REMARK  status: ('A' for Active; 'I' for Inactive)
DOCKED: REMARK    1  A    between atoms: C_2  and  C_5
DOCKED: REMARK    2  A    between atoms: C_5  and  C_6
DOCKED: REMARK    3  A    between atoms: C_6  and  C_7
DOCKED: REMARK    4  A    between atoms: C_7  and  C_8
DOCKED: REMARK    5  A    between atoms: C_8  and  C_9
DOCKED: REMARK    6  A    between atoms: C_9  and  C_10
DOCKED: REMARK    7  A    between atoms: C_10  and  C_11
DOCKED: REMARK    8  A    between atoms: N_12  and  C_13
DOCKED: REMARK                            x       y       z     vdW  Elec       q    Type
DOCKED: REMARK                         _______ _______ _______ _____ _____    ______ ____
DOCKED: USER                              x       y       z     vdW  Elec       q    Type
DOCKED: USER                           _______ _______ _______ _____ _____    ______ ____
DOCKED: ROOT
DOCKED: ATOM      1  C   UNL     1      26.951 -16.075  -0.635 -0.42 -0.00    +0.000 C 
DOCKED: ENDROOT
DOCKED: BRANCH   1   2
DOCKED: ATOM      2  C   UNL     1      27.724 -15.558  -1.812 -0.29 -0.00    +0.000 C 
DOCKED: ATOM      3  N   UNL     1      27.873 -16.373  -2.984 -0.27 -0.00    +0.000 N 
DOCKED: ATOM      4  O   UNL     1      28.241 -14.409  -1.755 -0.15 -0.00    +0.000 OA
DOCKED: ATOM      5  H   UNL     1      27.598 -17.316  -2.928 +0.00 -0.00    +0.000 HD
DOCKED: BRANCH   3   6
DOCKED: ATOM      6  C   UNL     1      28.402 -15.900  -4.235 -0.24 -0.00    +0.000 A 
DOCKED: ATOM      7  C   UNL     1      29.737 -16.168  -4.569 -0.24 -0.00    +0.000 A 
DOCKED: ATOM      8  C   UNL     1      30.255 -15.733  -5.789 -0.24 -0.00    +0.000 A 
DOCKED: ATOM      9  C   UNL     1      29.427 -15.047  -6.678 -0.31 -0.00    +0.000 A 
DOCKED: ATOM     10  N   UNL     1      28.127 -14.816  -6.356 -0.55 -0.00    +0.000 NA
DOCKED: ATOM     11  C   UNL     1      27.600 -15.224  -5.171 -0.40 -0.00    +0.000 A 
DOCKED: ENDBRANCH   3   6
DOCKED: ENDBRANCH   1   2
DOCKED: BRANCH   1  12
DOCKED: ATOM     12  C   UNL     1      25.493 -15.602  -0.707 -0.38 -0.00    +0.000 C 
DOCKED: BRANCH  12  13
DOCKED: ATOM     13  C   UNL     1      24.572 -16.619  -1.404 -0.61 -0.00    +0.000 C 
DOCKED: BRANCH  13  14
DOCKED: ATOM     14  C   UNL     1      23.929 -17.648  -0.457 -0.72 -0.00    +0.000 C 
DOCKED: BRANCH  14  15
DOCKED: ATOM     15  C   UNL     1      22.444 -17.897  -0.772 -0.80 -0.00    +0.000 C 
DOCKED: BRANCH  15  16
DOCKED: ATOM     16  C   UNL     1      22.158 -19.367  -1.106 -0.71 -0.00    +0.000 C 
DOCKED: BRANCH  16  18
DOCKED: ATOM     17  O   UNL     1      19.898 -19.702  -1.810 -2.37 -0.00    +0.000 OA
DOCKED: ATOM     18  C   UNL     1      20.722 -19.729  -0.857 -0.83 -0.00    +0.000 C 
DOCKED: ATOM     19  N   UNL     1      20.281 -20.076   0.458 -0.71 -0.00    +0.000 N 
DOCKED: ATOM     20  O   UNL     1      18.986 -20.401   0.683 -0.84 -0.00    +0.000 OA
DOCKED: ATOM     21  H   UNL     1      20.923 -20.079   1.205 -0.50 -0.00    +0.000 HD
DOCKED: ENDBRANCH  16  18
DOCKED: ENDBRANCH  15  16
DOCKED: ENDBRANCH  14  15
DOCKED: ENDBRANCH  13  14
DOCKED: ENDBRANCH  12  13
DOCKED: ENDBRANCH   1  12
DOCKED: TORSDOF 8
DOCKED: TER
DOCKED: ENDMDL
________________________________________________________________________________


	BEGINNING GENETIC ALGORITHM DOCKING 63 of 100
Run: 63 Seed: 559630250 1684606889 [ Run 63 of 100 GA/GALS ]
Beginning LAMARCKIAN GENETIC ALGORITHM (LGA), with a maximum of 2500000 energy evaluations.

Final-Value: -13.845


	FINAL GENETIC ALGORITHM DOCKED STATE
	_______________________________________________


Detailed state:  trans 25.535 -17.265 -1.463 quatxyzw 0.239425 0.123314 -0.688302 -0.673580 center -0.033 -0.045 -0.218 ntor 8 -163.5841 173.2110 -175.4931 149.9481 -78.9003 92.5318 163.2467 -121.1045
State:	 25.535 -17.265  -1.463   0.324  0.167 -0.931 -95.312   -163.58  173.21 -175.49  149.95  -78.90   92.53  163.25 -121.10

DOCKED: MODEL       63
DOCKED: USER    Run = 63
DOCKED: USER    DPF = ligand_dock.biased.dpf
DOCKED: USER  
DOCKED: USER    Estimated Free Energy of Binding    =  -10.60 kcal/mol  [=(1)+(2)+(3)-(4)]
DOCKED: USER    Estimated Inhibition Constant, Ki   =   16.98 nM (nanomolar)  [Temperature = 298.15 K]
DOCKED: USER    
DOCKED: USER    (1) Final Intermolecular Energy     =  -12.99 kcal/mol
DOCKED: USER        vdW + Hbond + desolv Energy     =  -12.99 kcal/mol
DOCKED: USER        Electrostatic Energy            =   +0.00 kcal/mol
DOCKED: USER    (2) Final Total Internal Energy     =   -0.86 kcal/mol
DOCKED: USER    (3) Torsional Free Energy           =   +2.39 kcal/mol
DOCKED: USER    (4) Unbound System's Energy  [=(2)] =   -0.86 kcal/mol
DOCKED: USER    
DOCKED: USER    
DOCKED: USER    NEWDPF move ligand.pdbqt
DOCKED: USER    NEWDPF about -0.033000 -0.045000 -0.218000
DOCKED: USER    NEWDPF tran0 25.534787 -17.264596 -1.462950
DOCKED: USER    NEWDPF quaternion0 0.239425 0.123314 -0.688302 -0.673580
DOCKED: USER    NEWDPF axisangle0 0.323935 0.166840 -0.931252 -95.312105
DOCKED: USER    NEWDPF quat0 0.323935 0.166840 -0.931252 -95.312105
DOCKED: USER    NEWDPF dihe0 -163.58 173.21 -175.49 149.95 -78.90 92.53 163.25 -121.10 
DOCKED: USER  keepresnum = 1 
DOCKED: USER  
DOCKED: REMARK  Name = 
DOCKED: REMARK  8 active torsions:
DOCKED: REMARK  status: ('A' for Active; 'I' for Inactive)
DOCKED: REMARK    1  A    between atoms: C_2  and  C_5
DOCKED: REMARK    2  A    between atoms: C_5  and  C_6
DOCKED: REMARK    3  A    between atoms: C_6  and  C_7
DOCKED: REMARK    4  A    between atoms: C_7  and  C_8
DOCKED: REMARK    5  A    between atoms: C_8  and  C_9
DOCKED: REMARK    6  A    between atoms: C_9  and  C_10
DOCKED: REMARK    7  A    between atoms: C_10  and  C_11
DOCKED: REMARK    8  A    between atoms: N_12  and  C_13
DOCKED: REMARK                            x       y       z     vdW  Elec       q    Type
DOCKED: REMARK                         _______ _______ _______ _____ _____    ______ ____
DOCKED: USER                              x       y       z     vdW  Elec       q    Type
DOCKED: USER                           _______ _______ _______ _____ _____    ______ ____
DOCKED: ROOT
DOCKED: ATOM      1  C   UNL     1      27.212 -16.934  -1.112 -0.46 -0.00    +0.000 C 
DOCKED: ENDROOT
DOCKED: BRANCH   1   2
DOCKED: ATOM      2  C   UNL     1      26.904 -15.812  -0.165 -0.37 -0.00    +0.000 C 
DOCKED: ATOM      3  N   UNL     1      27.769 -15.563   0.954 -0.20 -0.00    +0.000 N 
DOCKED: ATOM      4  O   UNL     1      25.881 -15.102  -0.360 -0.41 -0.00    +0.000 OA
DOCKED: ATOM      5  H   UNL     1      28.459 -16.234   1.162 -0.69 -0.00    +0.000 HD
DOCKED: BRANCH   3   6
DOCKED: ATOM      6  C   UNL     1      27.691 -14.396   1.790 -0.23 -0.00    +0.000 A 
DOCKED: ATOM      7  C   UNL     1      27.422 -13.147   1.215 -0.24 -0.00    +0.000 A 
DOCKED: ATOM      8  C   UNL     1      27.322 -12.011   2.019 -0.24 +0.00    +0.000 A 
DOCKED: ATOM      9  C   UNL     1      27.475 -12.136   3.400 -0.26 +0.00    +0.000 A 
DOCKED: ATOM     10  N   UNL     1      27.709 -13.356   3.951 -0.41 -0.00    +0.000 NA
DOCKED: ATOM     11  C   UNL     1      27.816 -14.477   3.188 -0.33 -0.00    +0.000 A 
DOCKED: ENDBRANCH   3   6
DOCKED: ENDBRANCH   1   2
DOCKED: BRANCH   1  12
DOCKED: ATOM     12  C   UNL     1      26.644 -18.255  -0.575 -0.54 -0.00    +0.000 C 
DOCKED: BRANCH  12  13
DOCKED: ATOM     13  C   UNL     1      25.107 -18.250  -0.491 -0.71 -0.00    +0.000 C 
DOCKED: BRANCH  13  14
DOCKED: ATOM     14  C   UNL     1      24.425 -17.194  -1.381 -0.69 -0.00    +0.000 C 
DOCKED: BRANCH  14  15
DOCKED: ATOM     15  C   UNL     1      23.051 -16.762  -0.841 -0.44 -0.00    +0.000 C 
DOCKED: BRANCH  15  16
DOCKED: ATOM     16  C   UNL     1      22.351 -17.886  -0.064 -0.75 -0.00    +0.000 C 
DOCKED: BRANCH  16  18
DOCKED: ATOM     17  O   UNL     1      20.048 -17.884  -0.707 -2.02 +0.00    +0.000 OA
DOCKED: ATOM     18  C   UNL     1      21.175 -18.438  -0.816 -0.79 -0.00    +0.000 C 
DOCKED: ATOM     19  N   UNL     1      21.320 -19.604  -1.630 -0.61 -0.00    +0.000 N 
DOCKED: ATOM     20  O   UNL     1      20.259 -20.104  -2.308 -2.17 -0.00    +0.000 OA
DOCKED: ATOM     21  H   UNL     1      22.197 -20.046  -1.700 -0.42 -0.00    +0.000 HD
DOCKED: ENDBRANCH  16  18
DOCKED: ENDBRANCH  15  16
DOCKED: ENDBRANCH  14  15
DOCKED: ENDBRANCH  13  14
DOCKED: ENDBRANCH  12  13
DOCKED: ENDBRANCH   1  12
DOCKED: TORSDOF 8
DOCKED: TER
DOCKED: ENDMDL
________________________________________________________________________________


	BEGINNING GENETIC ALGORITHM DOCKING 64 of 100
Run: 64 Seed: 1718883823 98303410 [ Run 64 of 100 GA/GALS ]
Beginning LAMARCKIAN GENETIC ALGORITHM (LGA), with a maximum of 2500000 energy evaluations.

Final-Value: -12.765


	FINAL GENETIC ALGORITHM DOCKED STATE
	_______________________________________________


Detailed state:  trans 26.179 -14.014 -0.530 quatxyzw 0.400575 0.103514 -0.815193 -0.405321 center -0.033 -0.045 -0.218 ntor 8 40.2711 148.2588 -175.3721 90.2569 -167.8692 -127.6178 169.7237 23.6751
State:	 26.179 -14.014  -0.530   0.438  0.113 -0.892 -132.178     40.27  148.26 -175.37   90.26 -167.87 -127.62  169.72   23.68

DOCKED: MODEL       64
DOCKED: USER    Run = 64
DOCKED: USER    DPF = ligand_dock.biased.dpf
DOCKED: USER  
DOCKED: USER    Estimated Free Energy of Binding    =   -9.63 kcal/mol  [=(1)+(2)+(3)-(4)]
DOCKED: USER    Estimated Inhibition Constant, Ki   =   87.35 nM (nanomolar)  [Temperature = 298.15 K]
DOCKED: USER    
DOCKED: USER    (1) Final Intermolecular Energy     =  -12.02 kcal/mol
DOCKED: USER        vdW + Hbond + desolv Energy     =  -12.02 kcal/mol
DOCKED: USER        Electrostatic Energy            =   +0.00 kcal/mol
DOCKED: USER    (2) Final Total Internal Energy     =   -0.75 kcal/mol
DOCKED: USER    (3) Torsional Free Energy           =   +2.39 kcal/mol
DOCKED: USER    (4) Unbound System's Energy  [=(2)] =   -0.75 kcal/mol
DOCKED: USER    
DOCKED: USER    
DOCKED: USER    NEWDPF move ligand.pdbqt
DOCKED: USER    NEWDPF about -0.033000 -0.045000 -0.218000
DOCKED: USER    NEWDPF tran0 26.178857 -14.013596 -0.529658
DOCKED: USER    NEWDPF quaternion0 0.400575 0.103514 -0.815193 -0.405321
DOCKED: USER    NEWDPF axisangle0 0.438182 0.113232 -0.891726 -132.177503
DOCKED: USER    NEWDPF quat0 0.438182 0.113232 -0.891726 -132.177503
DOCKED: USER    NEWDPF dihe0 40.27 148.26 -175.37 90.26 -167.87 -127.62 169.72 23.68 
DOCKED: USER  keepresnum = 1 
DOCKED: USER  
DOCKED: REMARK  Name = 
DOCKED: REMARK  8 active torsions:
DOCKED: REMARK  status: ('A' for Active; 'I' for Inactive)
DOCKED: REMARK    1  A    between atoms: C_2  and  C_5
DOCKED: REMARK    2  A    between atoms: C_5  and  C_6
DOCKED: REMARK    3  A    between atoms: C_6  and  C_7
DOCKED: REMARK    4  A    between atoms: C_7  and  C_8
DOCKED: REMARK    5  A    between atoms: C_8  and  C_9
DOCKED: REMARK    6  A    between atoms: C_9  and  C_10
DOCKED: REMARK    7  A    between atoms: C_10  and  C_11
DOCKED: REMARK    8  A    between atoms: N_12  and  C_13
DOCKED: REMARK                            x       y       z     vdW  Elec       q    Type
DOCKED: REMARK                         _______ _______ _______ _____ _____    ______ ____
DOCKED: USER                              x       y       z     vdW  Elec       q    Type
DOCKED: USER                           _______ _______ _______ _____ _____    ______ ____
DOCKED: ROOT
DOCKED: ATOM      1  C   UNL     1      27.660 -14.798  -0.044 -0.27 -0.00    +0.000 C 
DOCKED: ENDROOT
DOCKED: BRANCH   1   2
DOCKED: ATOM      2  C   UNL     1      27.824 -13.963   1.191 -0.27 -0.00    +0.000 C 
DOCKED: ATOM      3  N   UNL     1      28.565 -14.476   2.309 -0.26 -0.00    +0.000 N 
DOCKED: ATOM      4  O   UNL     1      27.300 -12.817   1.237 -0.26 -0.00    +0.000 OA
DOCKED: ATOM      5  H   UNL     1      28.817 -15.428   2.298 -1.78 -0.00    +0.000 HD
DOCKED: BRANCH   3   6
DOCKED: ATOM      6  C   UNL     1      28.962 -13.689   3.444 -0.27 -0.00    +0.000 A 
DOCKED: ATOM      7  C   UNL     1      29.857 -12.624   3.271 -0.11 -0.00    +0.000 A 
DOCKED: ATOM      8  C   UNL     1      30.233 -11.840   4.363 -0.09 -0.00    +0.000 A 
DOCKED: ATOM      9  C   UNL     1      29.695 -12.115   5.620 -0.19 -0.00    +0.000 A 
DOCKED: ATOM     10  N   UNL     1      28.807 -13.132   5.772 -0.39 -0.00    +0.000 NA
DOCKED: ATOM     11  C   UNL     1      28.429 -13.915   4.726 -0.46 -0.00    +0.000 A 
DOCKED: ENDBRANCH   3   6
DOCKED: ENDBRANCH   1   2
DOCKED: BRANCH   1  12
DOCKED: ATOM     12  C   UNL     1      26.377 -15.635   0.045 -0.08 -0.00    +0.000 C 
DOCKED: BRANCH  12  13
DOCKED: ATOM     13  C   UNL     1      26.475 -16.956  -0.739 -0.54 -0.00    +0.000 C 
DOCKED: BRANCH  13  14
DOCKED: ATOM     14  C   UNL     1      25.452 -18.025  -0.313 -0.69 -0.00    +0.000 C 
DOCKED: BRANCH  14  15
DOCKED: ATOM     15  C   UNL     1      24.482 -18.402  -1.446 -0.56 -0.00    +0.000 C 
DOCKED: BRANCH  15  16
DOCKED: ATOM     16  C   UNL     1      23.226 -17.520  -1.455 -0.56 -0.00    +0.000 C 
DOCKED: BRANCH  16  18
DOCKED: ATOM     17  O   UNL     1      21.389 -17.916   0.024 -1.37 -0.00    +0.000 OA
DOCKED: ATOM     18  C   UNL     1      22.007 -18.277  -1.014 -0.77 -0.00    +0.000 C 
DOCKED: ATOM     19  N   UNL     1      21.560 -19.420  -1.748 -0.59 -0.00    +0.000 N 
DOCKED: ATOM     20  O   UNL     1      20.461 -20.104  -1.350 -1.99 -0.00    +0.000 OA
DOCKED: ATOM     21  H   UNL     1      22.054 -19.712  -2.548 -0.51 -0.00    +0.000 HD
DOCKED: ENDBRANCH  16  18
DOCKED: ENDBRANCH  15  16
DOCKED: ENDBRANCH  14  15
DOCKED: ENDBRANCH  13  14
DOCKED: ENDBRANCH  12  13
DOCKED: ENDBRANCH   1  12
DOCKED: TORSDOF 8
DOCKED: TER
DOCKED: ENDMDL
________________________________________________________________________________


	BEGINNING GENETIC ALGORITHM DOCKING 65 of 100
Run: 65 Seed: 1125304249 1681789506 [ Run 65 of 100 GA/GALS ]
Beginning LAMARCKIAN GENETIC ALGORITHM (LGA), with a maximum of 2500000 energy evaluations.

Final-Value: -12.015


	FINAL GENETIC ALGORITHM DOCKED STATE
	_______________________________________________


Detailed state:  trans 24.707 -15.915 -1.106 quatxyzw 0.969592 0.134310 -0.006630 -0.204468 center -0.033 -0.045 -0.218 ntor 8 161.8985 106.0277 -43.0529 -42.3348 3.8566 -138.9029 -171.6688 -117.1970
State:	 24.707 -15.915  -1.106   0.991  0.137 -0.007 -156.403    161.90  106.03  -43.05  -42.33    3.86 -138.90 -171.67 -117.20

DOCKED: MODEL       65
DOCKED: USER    Run = 65
DOCKED: USER    DPF = ligand_dock.biased.dpf
DOCKED: USER  
DOCKED: USER    Estimated Free Energy of Binding    =   -8.75 kcal/mol  [=(1)+(2)+(3)-(4)]
DOCKED: USER    Estimated Inhibition Constant, Ki   =  385.27 nM (nanomolar)  [Temperature = 298.15 K]
DOCKED: USER    
DOCKED: USER    (1) Final Intermolecular Energy     =  -11.14 kcal/mol
DOCKED: USER        vdW + Hbond + desolv Energy     =  -11.14 kcal/mol
DOCKED: USER        Electrostatic Energy            =   +0.00 kcal/mol
DOCKED: USER    (2) Final Total Internal Energy     =   -0.88 kcal/mol
DOCKED: USER    (3) Torsional Free Energy           =   +2.39 kcal/mol
DOCKED: USER    (4) Unbound System's Energy  [=(2)] =   -0.88 kcal/mol
DOCKED: USER    
DOCKED: USER    
DOCKED: USER    NEWDPF move ligand.pdbqt
DOCKED: USER    NEWDPF about -0.033000 -0.045000 -0.218000
DOCKED: USER    NEWDPF tran0 24.707080 -15.914766 -1.106284
DOCKED: USER    NEWDPF quaternion0 0.969592 0.134310 -0.006630 -0.204468
DOCKED: USER    NEWDPF axisangle0 0.990519 0.137209 -0.006773 -156.403237
DOCKED: USER    NEWDPF quat0 0.990519 0.137209 -0.006773 -156.403237
DOCKED: USER    NEWDPF dihe0 161.90 106.03 -43.05 -42.33 3.86 -138.90 -171.67 -117.20 
DOCKED: USER  keepresnum = 1 
DOCKED: USER  
DOCKED: REMARK  Name = 
DOCKED: REMARK  8 active torsions:
DOCKED: REMARK  status: ('A' for Active; 'I' for Inactive)
DOCKED: REMARK    1  A    between atoms: C_2  and  C_5
DOCKED: REMARK    2  A    between atoms: C_5  and  C_6
DOCKED: REMARK    3  A    between atoms: C_6  and  C_7
DOCKED: REMARK    4  A    between atoms: C_7  and  C_8
DOCKED: REMARK    5  A    between atoms: C_8  and  C_9
DOCKED: REMARK    6  A    between atoms: C_9  and  C_10
DOCKED: REMARK    7  A    between atoms: C_10  and  C_11
DOCKED: REMARK    8  A    between atoms: N_12  and  C_13
DOCKED: REMARK                            x       y       z     vdW  Elec       q    Type
DOCKED: REMARK                         _______ _______ _______ _____ _____    ______ ____
DOCKED: USER                              x       y       z     vdW  Elec       q    Type
DOCKED: USER                           _______ _______ _______ _____ _____    ______ ____
DOCKED: ROOT
DOCKED: ATOM      1  C   UNL     1      24.737 -17.455  -0.286 -0.59 -0.00    +0.000 C 
DOCKED: ENDROOT
DOCKED: BRANCH   1   2
DOCKED: ATOM      2  C   UNL     1      23.292 -17.750  -0.560 -0.78 -0.00    +0.000 C 
DOCKED: ATOM      3  N   UNL     1      22.747 -19.035  -0.222 -0.70 -0.00    +0.000 N 
DOCKED: ATOM      4  O   UNL     1      22.570 -16.864  -1.093 -0.69 -0.00    +0.000 OA
DOCKED: ATOM      5  H   UNL     1      23.374 -19.748   0.039 -0.31 -0.00    +0.000 HD
DOCKED: BRANCH   3   6
DOCKED: ATOM      6  C   UNL     1      21.344 -19.348  -0.241 -0.71 -0.00    +0.000 A 
DOCKED: ATOM      7  C   UNL     1      20.648 -19.484   0.967 -0.38 -0.00    +0.000 A 
DOCKED: ATOM      8  C   UNL     1      19.281 -19.766   0.961 -0.66 -0.00    +0.000 A 
DOCKED: ATOM      9  C   UNL     1      18.615 -19.892  -0.258 -0.40 -0.00    +0.000 A 
DOCKED: ATOM     10  N   UNL     1      19.294 -19.732  -1.424 -1.50 -0.00    +0.000 NA
DOCKED: ATOM     11  C   UNL     1      20.627 -19.462  -1.445 -0.71 -0.00    +0.000 A 
DOCKED: ENDBRANCH   3   6
DOCKED: ENDBRANCH   1   2
DOCKED: BRANCH   1  12
DOCKED: ATOM     12  C   UNL     1      25.520 -17.361  -1.603 -0.60 -0.00    +0.000 C 
DOCKED: BRANCH  12  13
DOCKED: ATOM     13  C   UNL     1      25.127 -16.131  -2.441 -0.54 -0.00    +0.000 C 
DOCKED: BRANCH  13  14
DOCKED: ATOM     14  C   UNL     1      26.269 -15.557  -3.299 -0.51 -0.00    +0.000 C 
DOCKED: BRANCH  14  15
DOCKED: ATOM     15  C   UNL     1      27.351 -14.861  -2.457 -0.28 -0.00    +0.000 C 
DOCKED: BRANCH  15  16
DOCKED: ATOM     16  C   UNL     1      28.769 -15.200  -2.935 -0.20 -0.00    +0.000 C 
DOCKED: BRANCH  16  18
DOCKED: ATOM     17  O   UNL     1      29.224 -16.772  -4.678 -0.35 -0.00    +0.000 OA
DOCKED: ATOM     18  C   UNL     1      28.789 -15.629  -4.373 -0.31 -0.00    +0.000 C 
DOCKED: ATOM     19  N   UNL     1      28.342 -14.740  -5.399 -0.34 -0.00    +0.000 N 
DOCKED: ATOM     20  O   UNL     1      28.360 -15.126  -6.697 -0.60 +0.00    +0.000 OA
DOCKED: ATOM     21  H   UNL     1      28.019 -13.840  -5.161 -0.00 -0.00    +0.000 HD
DOCKED: ENDBRANCH  16  18
DOCKED: ENDBRANCH  15  16
DOCKED: ENDBRANCH  14  15
DOCKED: ENDBRANCH  13  14
DOCKED: ENDBRANCH  12  13
DOCKED: ENDBRANCH   1  12
DOCKED: TORSDOF 8
DOCKED: TER
DOCKED: ENDMDL
________________________________________________________________________________


	BEGINNING GENETIC ALGORITHM DOCKING 66 of 100
Run: 66 Seed: 1462674515 43559619 [ Run 66 of 100 GA/GALS ]
Beginning LAMARCKIAN GENETIC ALGORITHM (LGA), with a maximum of 2500000 energy evaluations.

Final-Value: -14.797


	FINAL GENETIC ALGORITHM DOCKED STATE
	_______________________________________________


Detailed state:  trans 26.071 -15.418 -0.533 quatxyzw -0.341583 -0.158139 0.692011 0.615982 center -0.033 -0.045 -0.218 ntor 8 -68.6224 -176.2328 -169.5725 76.8880 -10.8679 -33.8579 163.6930 -57.4168
State:	 26.071 -15.418  -0.533  -0.434 -0.201  0.878 103.953    -68.62 -176.23 -169.57   76.89  -10.87  -33.86  163.69  -57.42

DOCKED: MODEL       66
DOCKED: USER    Run = 66
DOCKED: USER    DPF = ligand_dock.biased.dpf
DOCKED: USER  
DOCKED: USER    Estimated Free Energy of Binding    =  -11.71 kcal/mol  [=(1)+(2)+(3)-(4)]
DOCKED: USER    Estimated Inhibition Constant, Ki   =    2.61 nM (nanomolar)  [Temperature = 298.15 K]
DOCKED: USER    
DOCKED: USER    (1) Final Intermolecular Energy     =  -14.10 kcal/mol
DOCKED: USER        vdW + Hbond + desolv Energy     =  -14.10 kcal/mol
DOCKED: USER        Electrostatic Energy            =   +0.00 kcal/mol
DOCKED: USER    (2) Final Total Internal Energy     =   -0.70 kcal/mol
DOCKED: USER    (3) Torsional Free Energy           =   +2.39 kcal/mol
DOCKED: USER    (4) Unbound System's Energy  [=(2)] =   -0.70 kcal/mol
DOCKED: USER    
DOCKED: USER    
DOCKED: USER    NEWDPF move ligand.pdbqt
DOCKED: USER    NEWDPF about -0.033000 -0.045000 -0.218000
DOCKED: USER    NEWDPF tran0 26.070842 -15.417557 -0.533313
DOCKED: USER    NEWDPF quaternion0 -0.341583 -0.158139 0.692011 0.615982
DOCKED: USER    NEWDPF axisangle0 -0.433613 -0.200745 0.878454 103.953321
DOCKED: USER    NEWDPF quat0 -0.433613 -0.200745 0.878454 103.953321
DOCKED: USER    NEWDPF dihe0 -68.62 -176.23 -169.57 76.89 -10.87 -33.86 163.69 -57.42 
DOCKED: USER  keepresnum = 1 
DOCKED: USER  
DOCKED: REMARK  Name = 
DOCKED: REMARK  8 active torsions:
DOCKED: REMARK  status: ('A' for Active; 'I' for Inactive)
DOCKED: REMARK    1  A    between atoms: C_2  and  C_5
DOCKED: REMARK    2  A    between atoms: C_5  and  C_6
DOCKED: REMARK    3  A    between atoms: C_6  and  C_7
DOCKED: REMARK    4  A    between atoms: C_7  and  C_8
DOCKED: REMARK    5  A    between atoms: C_8  and  C_9
DOCKED: REMARK    6  A    between atoms: C_9  and  C_10
DOCKED: REMARK    7  A    between atoms: C_10  and  C_11
DOCKED: REMARK    8  A    between atoms: N_12  and  C_13
DOCKED: REMARK                            x       y       z     vdW  Elec       q    Type
DOCKED: REMARK                         _______ _______ _______ _____ _____    ______ ____
DOCKED: USER                              x       y       z     vdW  Elec       q    Type
DOCKED: USER                           _______ _______ _______ _____ _____    ______ ____
DOCKED: ROOT
DOCKED: ATOM      1  C   UNL     1      27.733 -15.337  -0.008 -0.30 -0.00    +0.000 C 
DOCKED: ENDROOT
DOCKED: BRANCH   1   2
DOCKED: ATOM      2  C   UNL     1      27.439 -14.411   1.135 -0.29 -0.00    +0.000 C 
DOCKED: ATOM      3  N   UNL     1      28.228 -14.480   2.333 -0.29 -0.00    +0.000 N 
DOCKED: ATOM      4  O   UNL     1      26.495 -13.581   1.032 -0.37 -0.00    +0.000 OA
DOCKED: ATOM      5  H   UNL     1      28.843 -15.241   2.437 -1.90 -0.00    +0.000 HD
DOCKED: BRANCH   3   6
DOCKED: ATOM      6  C   UNL     1      28.174 -13.508   3.392 -0.32 -0.00    +0.000 A 
DOCKED: ATOM      7  C   UNL     1      27.832 -12.181   3.099 -0.24 -0.00    +0.000 A 
DOCKED: ATOM      8  C   UNL     1      27.756 -11.234   4.121 -0.30 +0.00    +0.000 A 
DOCKED: ATOM      9  C   UNL     1      28.006 -11.627   5.436 -0.36 +0.00    +0.000 A 
DOCKED: ATOM     10  N   UNL     1      28.311 -12.922   5.713 -0.42 -0.00    +0.000 NA
DOCKED: ATOM     11  C   UNL     1      28.397 -13.862   4.734 -0.46 -0.00    +0.000 A 
DOCKED: ENDBRANCH   3   6
DOCKED: ENDBRANCH   1   2
DOCKED: BRANCH   1  12
DOCKED: ATOM     12  C   UNL     1      27.011 -16.676   0.194 -0.34 -0.00    +0.000 C 
DOCKED: BRANCH  12  13
DOCKED: ATOM     13  C   UNL     1      26.176 -17.091  -1.030 -0.57 -0.00    +0.000 C 
DOCKED: BRANCH  13  14
DOCKED: ATOM     14  C   UNL     1      24.656 -16.933  -0.844 -0.63 -0.00    +0.000 C 
DOCKED: BRANCH  14  15
DOCKED: ATOM     15  C   UNL     1      24.011 -18.157  -0.172 -0.74 -0.00    +0.000 C 
DOCKED: BRANCH  15  16
DOCKED: ATOM     16  C   UNL     1      23.266 -19.048  -1.175 -0.79 -0.00    +0.000 C 
DOCKED: BRANCH  16  18
DOCKED: ATOM     17  O   UNL     1      21.305 -17.921  -0.400 -1.75 -0.00    +0.000 OA
DOCKED: ATOM     18  C   UNL     1      21.779 -18.857  -1.099 -0.82 -0.00    +0.000 C 
DOCKED: ATOM     19  N   UNL     1      20.899 -19.745  -1.793 -0.70 -0.00    +0.000 N 
DOCKED: ATOM     20  O   UNL     1      19.558 -19.573  -1.724 -1.99 -0.00    +0.000 OA
DOCKED: ATOM     21  H   UNL     1      21.270 -20.486  -2.324 -0.51 -0.00    +0.000 HD
DOCKED: ENDBRANCH  16  18
DOCKED: ENDBRANCH  15  16
DOCKED: ENDBRANCH  14  15
DOCKED: ENDBRANCH  13  14
DOCKED: ENDBRANCH  12  13
DOCKED: ENDBRANCH   1  12
DOCKED: TORSDOF 8
DOCKED: TER
DOCKED: ENDMDL
________________________________________________________________________________


	BEGINNING GENETIC ALGORITHM DOCKING 67 of 100
Run: 67 Seed: 1849140249 1146247119 [ Run 67 of 100 GA/GALS ]
Beginning LAMARCKIAN GENETIC ALGORITHM (LGA), with a maximum of 2500000 energy evaluations.

Final-Value: -12.581


	FINAL GENETIC ALGORITHM DOCKED STATE
	_______________________________________________


Detailed state:  trans 26.467 -16.527 -1.193 quatxyzw -0.078718 -0.863266 0.005861 -0.498540 center -0.033 -0.045 -0.218 ntor 8 176.8032 128.2992 86.0498 176.9982 -57.5245 -7.3148 -114.7553 -85.3418
State:	 26.467 -16.527  -1.193  -0.091 -0.996  0.007 -120.193    176.80  128.30   86.05  177.00  -57.52   -7.31 -114.76  -85.34

DOCKED: MODEL       67
DOCKED: USER    Run = 67
DOCKED: USER    DPF = ligand_dock.biased.dpf
DOCKED: USER  
DOCKED: USER    Estimated Free Energy of Binding    =   -9.32 kcal/mol  [=(1)+(2)+(3)-(4)]
DOCKED: USER    Estimated Inhibition Constant, Ki   =  146.66 nM (nanomolar)  [Temperature = 298.15 K]
DOCKED: USER    
DOCKED: USER    (1) Final Intermolecular Energy     =  -11.71 kcal/mol
DOCKED: USER        vdW + Hbond + desolv Energy     =  -11.71 kcal/mol
DOCKED: USER        Electrostatic Energy            =   +0.00 kcal/mol
DOCKED: USER    (2) Final Total Internal Energy     =   -0.87 kcal/mol
DOCKED: USER    (3) Torsional Free Energy           =   +2.39 kcal/mol
DOCKED: USER    (4) Unbound System's Energy  [=(2)] =   -0.87 kcal/mol
DOCKED: USER    
DOCKED: USER    
DOCKED: USER    NEWDPF move ligand.pdbqt
DOCKED: USER    NEWDPF about -0.033000 -0.045000 -0.218000
DOCKED: USER    NEWDPF tran0 26.466868 -16.526579 -1.192976
DOCKED: USER    NEWDPF quaternion0 -0.078718 -0.863266 0.005861 -0.498540
DOCKED: USER    NEWDPF axisangle0 -0.090808 -0.995845 0.006761 -120.193145
DOCKED: USER    NEWDPF quat0 -0.090808 -0.995845 0.006761 -120.193145
DOCKED: USER    NEWDPF dihe0 176.80 128.30 86.05 177.00 -57.52 -7.31 -114.76 -85.34 
DOCKED: USER  keepresnum = 1 
DOCKED: USER  
DOCKED: REMARK  Name = 
DOCKED: REMARK  8 active torsions:
DOCKED: REMARK  status: ('A' for Active; 'I' for Inactive)
DOCKED: REMARK    1  A    between atoms: C_2  and  C_5
DOCKED: REMARK    2  A    between atoms: C_5  and  C_6
DOCKED: REMARK    3  A    between atoms: C_6  and  C_7
DOCKED: REMARK    4  A    between atoms: C_7  and  C_8
DOCKED: REMARK    5  A    between atoms: C_8  and  C_9
DOCKED: REMARK    6  A    between atoms: C_9  and  C_10
DOCKED: REMARK    7  A    between atoms: C_10  and  C_11
DOCKED: REMARK    8  A    between atoms: N_12  and  C_13
DOCKED: REMARK                            x       y       z     vdW  Elec       q    Type
DOCKED: REMARK                         _______ _______ _______ _____ _____    ______ ____
DOCKED: USER                              x       y       z     vdW  Elec       q    Type
DOCKED: USER                           _______ _______ _______ _____ _____    ______ ____
DOCKED: ROOT
DOCKED: ATOM      1  C   UNL     1      27.012 -14.930  -1.638 -0.31 -0.00    +0.000 C 
DOCKED: ENDROOT
DOCKED: BRANCH   1   2
DOCKED: ATOM      2  C   UNL     1      27.429 -15.340  -3.020 -0.33 -0.00    +0.000 C 
DOCKED: ATOM      3  N   UNL     1      28.734 -14.992  -3.507 -0.17 -0.00    +0.000 N 
DOCKED: ATOM      4  O   UNL     1      26.621 -15.983  -3.743 -0.47 -0.00    +0.000 OA
DOCKED: ATOM      5  H   UNL     1      29.268 -14.356  -2.980 +0.01 -0.00    +0.000 HD
DOCKED: BRANCH   3   6
DOCKED: ATOM      6  C   UNL     1      29.309 -15.512  -4.717 -0.24 -0.00    +0.000 A 
DOCKED: ATOM      7  C   UNL     1      29.958 -16.754  -4.698 -0.25 -0.00    +0.000 A 
DOCKED: ATOM      8  C   UNL     1      30.502 -17.280  -5.871 -0.29 -0.00    +0.000 A 
DOCKED: ATOM      9  C   UNL     1      30.375 -16.566  -7.063 -0.28 -0.00    +0.000 A 
DOCKED: ATOM     10  N   UNL     1      29.720 -15.375  -7.076 -0.32 -0.00    +0.000 NA
DOCKED: ATOM     11  C   UNL     1      29.187 -14.839  -5.945 -0.31 -0.00    +0.000 A 
DOCKED: ENDBRANCH   3   6
DOCKED: ENDBRANCH   1   2
DOCKED: BRANCH   1  12
DOCKED: ATOM     12  C   UNL     1      25.499 -15.116  -1.461 -0.33 -0.00    +0.000 C 
DOCKED: BRANCH  12  13
DOCKED: ATOM     13  C   UNL     1      25.144 -16.410  -0.708 -0.51 -0.00    +0.000 C 
DOCKED: BRANCH  13  14
DOCKED: ATOM     14  C   UNL     1      25.191 -17.683  -1.575 -0.59 -0.00    +0.000 C 
DOCKED: BRANCH  14  15
DOCKED: ATOM     15  C   UNL     1      23.942 -18.564  -1.401 -0.73 -0.00    +0.000 C 
DOCKED: BRANCH  15  16
DOCKED: ATOM     16  C   UNL     1      22.976 -18.004  -0.348 -0.81 -0.00    +0.000 C 
DOCKED: BRANCH  16  18
DOCKED: ATOM     17  O   UNL     1      20.740 -17.569  -1.075 -2.09 -0.00    +0.000 OA
DOCKED: ATOM     18  C   UNL     1      21.557 -18.413  -0.617 -0.83 -0.00    +0.000 C 
DOCKED: ATOM     19  N   UNL     1      21.121 -19.744  -0.330 -0.73 -0.00    +0.000 N 
DOCKED: ATOM     20  O   UNL     1      19.840 -20.113  -0.571 -1.58 -0.00    +0.000 OA
DOCKED: ATOM     21  H   UNL     1      21.755 -20.397   0.045 -0.56 -0.00    +0.000 HD
DOCKED: ENDBRANCH  16  18
DOCKED: ENDBRANCH  15  16
DOCKED: ENDBRANCH  14  15
DOCKED: ENDBRANCH  13  14
DOCKED: ENDBRANCH  12  13
DOCKED: ENDBRANCH   1  12
DOCKED: TORSDOF 8
DOCKED: TER
DOCKED: ENDMDL
________________________________________________________________________________


	BEGINNING GENETIC ALGORITHM DOCKING 68 of 100
Run: 68 Seed: 1709343329 374783600 [ Run 68 of 100 GA/GALS ]
Beginning LAMARCKIAN GENETIC ALGORITHM (LGA), with a maximum of 2500000 energy evaluations.

Final-Value: -13.367


	FINAL GENETIC ALGORITHM DOCKED STATE
	_______________________________________________


Detailed state:  trans 25.577 -15.451 -0.647 quatxyzw -0.204909 -0.505210 0.526717 0.652184 center -0.033 -0.045 -0.218 ntor 8 -48.7283 -110.8993 -168.8866 37.1850 -148.7794 156.3972 119.6964 -138.3136
State:	 25.577 -15.451  -0.647  -0.270 -0.666  0.695 98.587    -48.73 -110.90 -168.89   37.18 -148.78  156.40  119.70 -138.31

DOCKED: MODEL       68
DOCKED: USER    Run = 68
DOCKED: USER    DPF = ligand_dock.biased.dpf
DOCKED: USER  
DOCKED: USER    Estimated Free Energy of Binding    =  -10.17 kcal/mol  [=(1)+(2)+(3)-(4)]
DOCKED: USER    Estimated Inhibition Constant, Ki   =   35.09 nM (nanomolar)  [Temperature = 298.15 K]
DOCKED: USER    
DOCKED: USER    (1) Final Intermolecular Energy     =  -12.56 kcal/mol
DOCKED: USER        vdW + Hbond + desolv Energy     =  -12.56 kcal/mol
DOCKED: USER        Electrostatic Energy            =   +0.00 kcal/mol
DOCKED: USER    (2) Final Total Internal Energy     =   -0.81 kcal/mol
DOCKED: USER    (3) Torsional Free Energy           =   +2.39 kcal/mol
DOCKED: USER    (4) Unbound System's Energy  [=(2)] =   -0.81 kcal/mol
DOCKED: USER    
DOCKED: USER    
DOCKED: USER    NEWDPF move ligand.pdbqt
DOCKED: USER    NEWDPF about -0.033000 -0.045000 -0.218000
DOCKED: USER    NEWDPF tran0 25.577088 -15.451035 -0.647303
DOCKED: USER    NEWDPF quaternion0 -0.204909 -0.505210 0.526717 0.652184
DOCKED: USER    NEWDPF axisangle0 -0.270307 -0.666451 0.694822 98.587045
DOCKED: USER    NEWDPF quat0 -0.270307 -0.666451 0.694822 98.587045
DOCKED: USER    NEWDPF dihe0 -48.73 -110.90 -168.89 37.18 -148.78 156.40 119.70 -138.31 
DOCKED: USER  keepresnum = 1 
DOCKED: USER  
DOCKED: REMARK  Name = 
DOCKED: REMARK  8 active torsions:
DOCKED: REMARK  status: ('A' for Active; 'I' for Inactive)
DOCKED: REMARK    1  A    between atoms: C_2  and  C_5
DOCKED: REMARK    2  A    between atoms: C_5  and  C_6
DOCKED: REMARK    3  A    between atoms: C_6  and  C_7
DOCKED: REMARK    4  A    between atoms: C_7  and  C_8
DOCKED: REMARK    5  A    between atoms: C_8  and  C_9
DOCKED: REMARK    6  A    between atoms: C_9  and  C_10
DOCKED: REMARK    7  A    between atoms: C_10  and  C_11
DOCKED: REMARK    8  A    between atoms: N_12  and  C_13
DOCKED: REMARK                            x       y       z     vdW  Elec       q    Type
DOCKED: REMARK                         _______ _______ _______ _____ _____    ______ ____
DOCKED: USER                              x       y       z     vdW  Elec       q    Type
DOCKED: USER                           _______ _______ _______ _____ _____    ______ ____
DOCKED: ROOT
DOCKED: ATOM      1  C   UNL     1      27.052 -14.529  -0.779 -0.29 -0.00    +0.000 C 
DOCKED: ENDROOT
DOCKED: BRANCH   1   2
DOCKED: ATOM      2  C   UNL     1      27.080 -14.161   0.675 -0.29 -0.00    +0.000 C 
DOCKED: ATOM      3  N   UNL     1      27.996 -14.820   1.563 -0.26 -0.00    +0.000 N 
DOCKED: ATOM      4  O   UNL     1      26.289 -13.277   1.104 -0.40 -0.00    +0.000 OA
DOCKED: ATOM      5  H   UNL     1      28.477 -15.610   1.226 -0.84 -0.00    +0.000 HD
DOCKED: BRANCH   3   6
DOCKED: ATOM      6  C   UNL     1      28.255 -14.400   2.913 -0.27 -0.00    +0.000 A 
DOCKED: ATOM      7  C   UNL     1      27.206 -13.896   3.695 -0.39 -0.00    +0.000 A 
DOCKED: ATOM      8  C   UNL     1      27.441 -13.505   5.015 -0.40 -0.00    +0.000 A 
DOCKED: ATOM      9  C   UNL     1      28.721 -13.640   5.550 -0.42 -0.00    +0.000 A 
DOCKED: ATOM     10  N   UNL     1      29.725 -14.155   4.792 -0.36 -0.00    +0.000 NA
DOCKED: ATOM     11  C   UNL     1      29.524 -14.538   3.502 -0.22 -0.00    +0.000 A 
DOCKED: ENDBRANCH   3   6
DOCKED: ENDBRANCH   1   2
DOCKED: BRANCH   1  12
DOCKED: ATOM     12  C   UNL     1      27.174 -16.049  -0.946 -0.39 -0.00    +0.000 C 
DOCKED: BRANCH  12  13
DOCKED: ATOM     13  C   UNL     1      26.233 -16.827  -0.008 -0.31 -0.00    +0.000 C 
DOCKED: BRANCH  13  14
DOCKED: ATOM     14  C   UNL     1      24.801 -17.000  -0.546 -0.54 -0.00    +0.000 C 
DOCKED: BRANCH  14  15
DOCKED: ATOM     15  C   UNL     1      24.256 -18.423  -0.333 -0.73 -0.00    +0.000 C 
DOCKED: BRANCH  15  16
DOCKED: ATOM     16  C   UNL     1      23.391 -18.898  -1.507 -0.74 -0.00    +0.000 C 
DOCKED: BRANCH  16  18
DOCKED: ATOM     17  O   UNL     1      21.508 -17.951  -0.377 -1.57 -0.00    +0.000 OA
DOCKED: ATOM     18  C   UNL     1      21.925 -18.818  -1.192 -0.76 -0.00    +0.000 C 
DOCKED: ATOM     19  N   UNL     1      21.006 -19.735  -1.789 -0.69 -0.00    +0.000 N 
DOCKED: ATOM     20  O   UNL     1      19.683 -19.664  -1.505 -2.15 -0.00    +0.000 OA
DOCKED: ATOM     21  H   UNL     1      21.335 -20.423  -2.412 -0.54 -0.00    +0.000 HD
DOCKED: ENDBRANCH  16  18
DOCKED: ENDBRANCH  15  16
DOCKED: ENDBRANCH  14  15
DOCKED: ENDBRANCH  13  14
DOCKED: ENDBRANCH  12  13
DOCKED: ENDBRANCH   1  12
DOCKED: TORSDOF 8
DOCKED: TER
DOCKED: ENDMDL
________________________________________________________________________________


	BEGINNING GENETIC ALGORITHM DOCKING 69 of 100
Run: 69 Seed: 1365047149 107067976 [ Run 69 of 100 GA/GALS ]
Beginning LAMARCKIAN GENETIC ALGORITHM (LGA), with a maximum of 2500000 energy evaluations.

Final-Value: -12.949


	FINAL GENETIC ALGORITHM DOCKED STATE
	_______________________________________________


Detailed state:  trans 28.804 -15.759 -0.373 quatxyzw 0.663893 -0.608296 -0.421072 0.109181 center -0.033 -0.045 -0.218 ntor 8 121.9557 -80.2618 88.4672 -29.9098 -78.7501 158.0284 -54.2998 28.5256
State:	 28.804 -15.759  -0.373   0.668 -0.612 -0.424 167.464    121.96  -80.26   88.47  -29.91  -78.75  158.03  -54.30   28.53

DOCKED: MODEL       69
DOCKED: USER    Run = 69
DOCKED: USER    DPF = ligand_dock.biased.dpf
DOCKED: USER  
DOCKED: USER    Estimated Free Energy of Binding    =   -9.84 kcal/mol  [=(1)+(2)+(3)-(4)]
DOCKED: USER    Estimated Inhibition Constant, Ki   =   61.71 nM (nanomolar)  [Temperature = 298.15 K]
DOCKED: USER    
DOCKED: USER    (1) Final Intermolecular Energy     =  -12.22 kcal/mol
DOCKED: USER        vdW + Hbond + desolv Energy     =  -12.22 kcal/mol
DOCKED: USER        Electrostatic Energy            =   +0.00 kcal/mol
DOCKED: USER    (2) Final Total Internal Energy     =   -0.73 kcal/mol
DOCKED: USER    (3) Torsional Free Energy           =   +2.39 kcal/mol
DOCKED: USER    (4) Unbound System's Energy  [=(2)] =   -0.73 kcal/mol
DOCKED: USER    
DOCKED: USER    
DOCKED: USER    NEWDPF move ligand.pdbqt
DOCKED: USER    NEWDPF about -0.033000 -0.045000 -0.218000
DOCKED: USER    NEWDPF tran0 28.803628 -15.759057 -0.372891
DOCKED: USER    NEWDPF quaternion0 0.663893 -0.608296 -0.421072 0.109181
DOCKED: USER    NEWDPF axisangle0 0.667886 -0.611954 -0.423605 167.463798
DOCKED: USER    NEWDPF quat0 0.667886 -0.611954 -0.423605 167.463798
DOCKED: USER    NEWDPF dihe0 121.96 -80.26 88.47 -29.91 -78.75 158.03 -54.30 28.53 
DOCKED: USER  keepresnum = 1 
DOCKED: USER  
DOCKED: REMARK  Name = 
DOCKED: REMARK  8 active torsions:
DOCKED: REMARK  status: ('A' for Active; 'I' for Inactive)
DOCKED: REMARK    1  A    between atoms: C_2  and  C_5
DOCKED: REMARK    2  A    between atoms: C_5  and  C_6
DOCKED: REMARK    3  A    between atoms: C_6  and  C_7
DOCKED: REMARK    4  A    between atoms: C_7  and  C_8
DOCKED: REMARK    5  A    between atoms: C_8  and  C_9
DOCKED: REMARK    6  A    between atoms: C_9  and  C_10
DOCKED: REMARK    7  A    between atoms: C_10  and  C_11
DOCKED: REMARK    8  A    between atoms: N_12  and  C_13
DOCKED: REMARK                            x       y       z     vdW  Elec       q    Type
DOCKED: REMARK                         _______ _______ _______ _____ _____    ______ ____
DOCKED: USER                              x       y       z     vdW  Elec       q    Type
DOCKED: USER                           _______ _______ _______ _____ _____    ______ ____
DOCKED: ROOT
DOCKED: ATOM      1  C   UNL     1      27.384 -15.944   0.625 -0.13 -0.00    +0.000 C 
DOCKED: ENDROOT
DOCKED: BRANCH   1   2
DOCKED: ATOM      2  C   UNL     1      27.596 -14.650   1.353 -0.23 -0.00    +0.000 C 
DOCKED: ATOM      3  N   UNL     1      28.692 -14.515   2.271 -0.22 -0.00    +0.000 N 
DOCKED: ATOM      4  O   UNL     1      26.800 -13.692   1.154 -0.36 -0.00    +0.000 OA
DOCKED: ATOM      5  H   UNL     1      29.188 -15.328   2.519 -1.95 -0.00    +0.000 HD
DOCKED: BRANCH   3   6
DOCKED: ATOM      6  C   UNL     1      29.110 -13.268   2.852 -0.18 -0.00    +0.000 A 
DOCKED: ATOM      7  C   UNL     1      28.272 -12.612   3.763 -0.26 -0.00    +0.000 A 
DOCKED: ATOM      8  C   UNL     1      28.676 -11.412   4.350 -0.21 +0.00    +0.000 A 
DOCKED: ATOM      9  C   UNL     1      29.928 -10.885   4.034 -0.07 -0.00    +0.000 A 
DOCKED: ATOM     10  N   UNL     1      30.745 -11.543   3.170 -0.04 -0.00    +0.000 NA
DOCKED: ATOM     11  C   UNL     1      30.371 -12.710   2.580 -0.07 -0.00    +0.000 A 
DOCKED: ENDBRANCH   3   6
DOCKED: ENDBRANCH   1   2
DOCKED: BRANCH   1  12
DOCKED: ATOM     12  C   UNL     1      27.146 -15.682  -0.868 -0.36 -0.00    +0.000 C 
DOCKED: BRANCH  12  13
DOCKED: ATOM     13  C   UNL     1      26.166 -16.687  -1.498 -0.53 -0.00    +0.000 C 
DOCKED: BRANCH  13  14
DOCKED: ATOM     14  C   UNL     1      24.682 -16.304  -1.351 -0.52 -0.00    +0.000 C 
DOCKED: BRANCH  14  15
DOCKED: ATOM     15  C   UNL     1      23.749 -17.527  -1.373 -0.71 -0.00    +0.000 C 
DOCKED: BRANCH  15  16
DOCKED: ATOM     16  C   UNL     1      22.478 -17.306  -0.542 -0.73 -0.00    +0.000 C 
DOCKED: BRANCH  16  18
DOCKED: ATOM     17  O   UNL     1      20.159 -17.864  -0.706 -2.12 +0.00    +0.000 OA
DOCKED: ATOM     18  C   UNL     1      21.343 -18.168  -1.013 -0.67 -0.00    +0.000 C 
DOCKED: ATOM     19  N   UNL     1      21.601 -19.345  -1.782 -0.61 -0.00    +0.000 N 
DOCKED: ATOM     20  O   UNL     1      20.577 -20.124  -2.206 -1.95 -0.00    +0.000 OA
DOCKED: ATOM     21  H   UNL     1      22.527 -19.591  -2.006 -0.32 -0.00    +0.000 HD
DOCKED: ENDBRANCH  16  18
DOCKED: ENDBRANCH  15  16
DOCKED: ENDBRANCH  14  15
DOCKED: ENDBRANCH  13  14
DOCKED: ENDBRANCH  12  13
DOCKED: ENDBRANCH   1  12
DOCKED: TORSDOF 8
DOCKED: TER
DOCKED: ENDMDL
________________________________________________________________________________


	BEGINNING GENETIC ALGORITHM DOCKING 70 of 100
Run: 70 Seed: 113992980 23892372 [ Run 70 of 100 GA/GALS ]
Beginning LAMARCKIAN GENETIC ALGORITHM (LGA), with a maximum of 2500000 energy evaluations.

Final-Value: -12.421


	FINAL GENETIC ALGORITHM DOCKED STATE
	_______________________________________________


Detailed state:  trans 27.109 -16.182 1.355 quatxyzw -0.201567 0.891317 -0.324241 -0.244525 center -0.033 -0.045 -0.218 ntor 8 -179.8041 -20.7740 106.0973 151.4256 -91.4687 -140.9411 -9.1208 -20.5963
State:	 27.109 -16.182   1.355  -0.208  0.919 -0.334 -151.692   -179.80  -20.77  106.10  151.43  -91.47 -140.94   -9.12  -20.60

DOCKED: MODEL       70
DOCKED: USER    Run = 70
DOCKED: USER    DPF = ligand_dock.biased.dpf
DOCKED: USER  
DOCKED: USER    Estimated Free Energy of Binding    =   -9.32 kcal/mol  [=(1)+(2)+(3)-(4)]
DOCKED: USER    Estimated Inhibition Constant, Ki   =  146.68 nM (nanomolar)  [Temperature = 298.15 K]
DOCKED: USER    
DOCKED: USER    (1) Final Intermolecular Energy     =  -11.71 kcal/mol
DOCKED: USER        vdW + Hbond + desolv Energy     =  -11.71 kcal/mol
DOCKED: USER        Electrostatic Energy            =   +0.00 kcal/mol
DOCKED: USER    (2) Final Total Internal Energy     =   -0.71 kcal/mol
DOCKED: USER    (3) Torsional Free Energy           =   +2.39 kcal/mol
DOCKED: USER    (4) Unbound System's Energy  [=(2)] =   -0.71 kcal/mol
DOCKED: USER    
DOCKED: USER    
DOCKED: USER    NEWDPF move ligand.pdbqt
DOCKED: USER    NEWDPF about -0.033000 -0.045000 -0.218000
DOCKED: USER    NEWDPF tran0 27.108843 -16.182393 1.355398
DOCKED: USER    NEWDPF quaternion0 -0.201567 0.891317 -0.324241 -0.244525
DOCKED: USER    NEWDPF axisangle0 -0.207878 0.919222 -0.334392 -151.692438
DOCKED: USER    NEWDPF quat0 -0.207878 0.919222 -0.334392 -151.692438
DOCKED: USER    NEWDPF dihe0 -179.80 -20.77 106.10 151.43 -91.47 -140.94 -9.12 -20.60 
DOCKED: USER  keepresnum = 1 
DOCKED: USER  
DOCKED: REMARK  Name = 
DOCKED: REMARK  8 active torsions:
DOCKED: REMARK  status: ('A' for Active; 'I' for Inactive)
DOCKED: REMARK    1  A    between atoms: C_2  and  C_5
DOCKED: REMARK    2  A    between atoms: C_5  and  C_6
DOCKED: REMARK    3  A    between atoms: C_6  and  C_7
DOCKED: REMARK    4  A    between atoms: C_7  and  C_8
DOCKED: REMARK    5  A    between atoms: C_8  and  C_9
DOCKED: REMARK    6  A    between atoms: C_9  and  C_10
DOCKED: REMARK    7  A    between atoms: C_10  and  C_11
DOCKED: REMARK    8  A    between atoms: N_12  and  C_13
DOCKED: REMARK                            x       y       z     vdW  Elec       q    Type
DOCKED: REMARK                         _______ _______ _______ _____ _____    ______ ____
DOCKED: USER                              x       y       z     vdW  Elec       q    Type
DOCKED: USER                           _______ _______ _______ _____ _____    ______ ____
DOCKED: ROOT
DOCKED: ATOM      1  C   UNL     1      27.031 -14.702   0.435 -0.29 -0.00    +0.000 C 
DOCKED: ENDROOT
DOCKED: BRANCH   1   2
DOCKED: ATOM      2  C   UNL     1      28.410 -14.260   0.826 -0.22 -0.00    +0.000 C 
DOCKED: ATOM      3  N   UNL     1      29.000 -14.745   2.042 -0.03 -0.00    +0.000 N 
DOCKED: ATOM      4  O   UNL     1      29.037 -13.459   0.080 -0.10 -0.00    +0.000 OA
DOCKED: ATOM      5  H   UNL     1      28.423 -15.234   2.671 -1.58 -0.00    +0.000 HD
DOCKED: BRANCH   3   6
DOCKED: ATOM      6  C   UNL     1      30.380 -14.559   2.400 -0.14 -0.00    +0.000 A 
DOCKED: ATOM      7  C   UNL     1      30.705 -13.998   3.642 -0.21 -0.00    +0.000 A 
DOCKED: ATOM      8  C   UNL     1      32.041 -13.833   4.010 -0.13 -0.00    +0.000 A 
DOCKED: ATOM      9  C   UNL     1      33.046 -14.249   3.137 -0.10 -0.00    +0.000 A 
DOCKED: ATOM     10  N   UNL     1      32.721 -14.818   1.947 -0.08 -0.00    +0.000 NA
DOCKED: ATOM     11  C   UNL     1      31.426 -14.984   1.562 -0.11 -0.00    +0.000 A 
DOCKED: ENDBRANCH   3   6
DOCKED: ENDBRANCH   1   2
DOCKED: BRANCH   1  12
DOCKED: ATOM     12  C   UNL     1      27.098 -16.008  -0.367 -0.40 -0.00    +0.000 C 
DOCKED: BRANCH  12  13
DOCKED: ATOM     13  C   UNL     1      25.732 -16.708  -0.477 -0.48 -0.00    +0.000 C 
DOCKED: BRANCH  13  14
DOCKED: ATOM     14  C   UNL     1      25.513 -17.471  -1.797 -0.55 -0.00    +0.000 C 
DOCKED: BRANCH  14  15
DOCKED: ATOM     15  C   UNL     1      24.042 -17.864  -2.017 -0.45 -0.00    +0.000 C 
DOCKED: BRANCH  15  16
DOCKED: ATOM     16  C   UNL     1      23.290 -18.067  -0.695 -0.81 -0.00    +0.000 C 
DOCKED: BRANCH  16  18
DOCKED: ATOM     17  O   UNL     1      21.016 -17.326  -0.704 -1.94 +0.00    +0.000 OA
DOCKED: ATOM     18  C   UNL     1      21.819 -18.275  -0.913 -0.79 -0.00    +0.000 C 
DOCKED: ATOM     19  N   UNL     1      21.323 -19.549  -1.330 -0.71 -0.00    +0.000 N 
DOCKED: ATOM     20  O   UNL     1      19.996 -19.738  -1.527 -2.28 -0.00    +0.000 OA
DOCKED: ATOM     21  H   UNL     1      21.950 -20.294  -1.476 -0.33 -0.00    +0.000 HD
DOCKED: ENDBRANCH  16  18
DOCKED: ENDBRANCH  15  16
DOCKED: ENDBRANCH  14  15
DOCKED: ENDBRANCH  13  14
DOCKED: ENDBRANCH  12  13
DOCKED: ENDBRANCH   1  12
DOCKED: TORSDOF 8
DOCKED: TER
DOCKED: ENDMDL
________________________________________________________________________________


	BEGINNING GENETIC ALGORITHM DOCKING 71 of 100
Run: 71 Seed: 1009590116 1127078413 [ Run 71 of 100 GA/GALS ]
Beginning LAMARCKIAN GENETIC ALGORITHM (LGA), with a maximum of 2500000 energy evaluations.

Final-Value: -14.178


	FINAL GENETIC ALGORITHM DOCKED STATE
	_______________________________________________


Detailed state:  trans 24.482 -15.978 -2.797 quatxyzw -0.350079 0.139809 -0.602768 -0.703256 center -0.033 -0.045 -0.218 ntor 8 156.1576 171.7990 82.8753 93.8981 -40.8452 -164.2794 144.2525 -104.0969
State:	 24.482 -15.978  -2.797  -0.492  0.197 -0.848 -90.622    156.16  171.80   82.88   93.90  -40.85 -164.28  144.25 -104.10

DOCKED: MODEL       71
DOCKED: USER    Run = 71
DOCKED: USER    DPF = ligand_dock.biased.dpf
DOCKED: USER  
DOCKED: USER    Estimated Free Energy of Binding    =  -10.96 kcal/mol  [=(1)+(2)+(3)-(4)]
DOCKED: USER    Estimated Inhibition Constant, Ki   =    9.20 nM (nanomolar)  [Temperature = 298.15 K]
DOCKED: USER    
DOCKED: USER    (1) Final Intermolecular Energy     =  -13.35 kcal/mol
DOCKED: USER        vdW + Hbond + desolv Energy     =  -13.35 kcal/mol
DOCKED: USER        Electrostatic Energy            =   +0.00 kcal/mol
DOCKED: USER    (2) Final Total Internal Energy     =   -0.83 kcal/mol
DOCKED: USER    (3) Torsional Free Energy           =   +2.39 kcal/mol
DOCKED: USER    (4) Unbound System's Energy  [=(2)] =   -0.83 kcal/mol
DOCKED: USER    
DOCKED: USER    
DOCKED: USER    NEWDPF move ligand.pdbqt
DOCKED: USER    NEWDPF about -0.033000 -0.045000 -0.218000
DOCKED: USER    NEWDPF tran0 24.481534 -15.978340 -2.797281
DOCKED: USER    NEWDPF quaternion0 -0.350079 0.139809 -0.602768 -0.703256
DOCKED: USER    NEWDPF axisangle0 -0.492419 0.196655 -0.847851 -90.622356
DOCKED: USER    NEWDPF quat0 -0.492419 0.196655 -0.847851 -90.622356
DOCKED: USER    NEWDPF dihe0 156.16 171.80 82.88 93.90 -40.85 -164.28 144.25 -104.10 
DOCKED: USER  keepresnum = 1 
DOCKED: USER  
DOCKED: REMARK  Name = 
DOCKED: REMARK  8 active torsions:
DOCKED: REMARK  status: ('A' for Active; 'I' for Inactive)
DOCKED: REMARK    1  A    between atoms: C_2  and  C_5
DOCKED: REMARK    2  A    between atoms: C_5  and  C_6
DOCKED: REMARK    3  A    between atoms: C_6  and  C_7
DOCKED: REMARK    4  A    between atoms: C_7  and  C_8
DOCKED: REMARK    5  A    between atoms: C_8  and  C_9
DOCKED: REMARK    6  A    between atoms: C_9  and  C_10
DOCKED: REMARK    7  A    between atoms: C_10  and  C_11
DOCKED: REMARK    8  A    between atoms: N_12  and  C_13
DOCKED: REMARK                            x       y       z     vdW  Elec       q    Type
DOCKED: REMARK                         _______ _______ _______ _____ _____    ______ ____
DOCKED: USER                              x       y       z     vdW  Elec       q    Type
DOCKED: USER                           _______ _______ _______ _____ _____    ______ ____
DOCKED: ROOT
DOCKED: ATOM      1  C   UNL     1      25.563 -15.574  -4.106 -0.53 -0.00    +0.000 C 
DOCKED: ENDROOT
DOCKED: BRANCH   1   2
DOCKED: ATOM      2  C   UNL     1      25.242 -14.110  -4.062 -0.51 -0.00    +0.000 C 
DOCKED: ATOM      3  N   UNL     1      26.305 -13.146  -3.995 -0.32 -0.00    +0.000 N 
DOCKED: ATOM      4  O   UNL     1      24.037 -13.740  -4.078 -1.08 -0.00    +0.000 OA
DOCKED: ATOM      5  H   UNL     1      27.216 -13.476  -3.821 +0.00 -0.00    +0.000 HD
DOCKED: BRANCH   3   6
DOCKED: ATOM      6  C   UNL     1      26.123 -11.730  -4.164 -0.22 -0.00    +0.000 A 
DOCKED: ATOM      7  C   UNL     1      25.245 -11.257  -5.148 -0.34 -0.00    +0.000 A 
DOCKED: ATOM      8  C   UNL     1      25.043  -9.884  -5.307 -0.30 -0.00    +0.000 A 
DOCKED: ATOM      9  C   UNL     1      25.709  -8.994  -4.466 -0.18 -0.00    +0.000 A 
DOCKED: ATOM     10  N   UNL     1      26.538  -9.464  -3.496 -0.13 -0.00    +0.000 NA
DOCKED: ATOM     11  C   UNL     1      26.756 -10.796  -3.325 -0.12 -0.00    +0.000 A 
DOCKED: ENDBRANCH   3   6
DOCKED: ENDBRANCH   1   2
DOCKED: BRANCH   1  12
DOCKED: ATOM     12  C   UNL     1      26.213 -16.017  -2.788 -0.48 -0.00    +0.000 C 
DOCKED: BRANCH  12  13
DOCKED: ATOM     13  C   UNL     1      25.181 -16.280  -1.676 -0.58 -0.00    +0.000 C 
DOCKED: BRANCH  13  14
DOCKED: ATOM     14  C   UNL     1      25.252 -17.692  -1.066 -0.68 -0.00    +0.000 C 
DOCKED: BRANCH  14  15
DOCKED: ATOM     15  C   UNL     1      23.980 -18.516  -1.330 -0.74 -0.00    +0.000 C 
DOCKED: BRANCH  15  16
DOCKED: ATOM     16  C   UNL     1      22.893 -18.264  -0.276 -0.82 -0.00    +0.000 C 
DOCKED: BRANCH  16  18
DOCKED: ATOM     17  O   UNL     1      20.676 -17.483  -0.717 -2.08 +0.00    +0.000 OA
DOCKED: ATOM     18  C   UNL     1      21.513 -18.417  -0.846 -0.81 -0.00    +0.000 C 
DOCKED: ATOM     19  N   UNL     1      21.135 -19.626  -1.509 -0.71 -0.00    +0.000 N 
DOCKED: ATOM     20  O   UNL     1      19.890 -19.767  -2.022 -2.34 -0.00    +0.000 OA
DOCKED: ATOM     21  H   UNL     1      21.784 -20.362  -1.593 -0.36 -0.00    +0.000 HD
DOCKED: ENDBRANCH  16  18
DOCKED: ENDBRANCH  15  16
DOCKED: ENDBRANCH  14  15
DOCKED: ENDBRANCH  13  14
DOCKED: ENDBRANCH  12  13
DOCKED: ENDBRANCH   1  12
DOCKED: TORSDOF 8
DOCKED: TER
DOCKED: ENDMDL
________________________________________________________________________________


	BEGINNING GENETIC ALGORITHM DOCKING 72 of 100
Run: 72 Seed: 1590509593 2071355024 [ Run 72 of 100 GA/GALS ]
Beginning LAMARCKIAN GENETIC ALGORITHM (LGA), with a maximum of 2500000 energy evaluations.

Final-Value: -14.492


	FINAL GENETIC ALGORITHM DOCKED STATE
	_______________________________________________


Detailed state:  trans 26.826 -15.012 -1.773 quatxyzw 0.558489 0.134288 -0.643660 -0.505725 center -0.033 -0.045 -0.218 ntor 8 -176.7993 -11.1655 138.6086 75.2937 -10.3801 -106.6250 -160.8117 147.5731
State:	 26.826 -15.012  -1.773   0.647  0.156 -0.746 -119.241   -176.80  -11.17  138.61   75.29  -10.38 -106.62 -160.81  147.57

DOCKED: MODEL       72
DOCKED: USER    Run = 72
DOCKED: USER    DPF = ligand_dock.biased.dpf
DOCKED: USER  
DOCKED: USER    Estimated Free Energy of Binding    =  -11.26 kcal/mol  [=(1)+(2)+(3)-(4)]
DOCKED: USER    Estimated Inhibition Constant, Ki   =    5.56 nM (nanomolar)  [Temperature = 298.15 K]
DOCKED: USER    
DOCKED: USER    (1) Final Intermolecular Energy     =  -13.65 kcal/mol
DOCKED: USER        vdW + Hbond + desolv Energy     =  -13.65 kcal/mol
DOCKED: USER        Electrostatic Energy            =   +0.00 kcal/mol
DOCKED: USER    (2) Final Total Internal Energy     =   -0.84 kcal/mol
DOCKED: USER    (3) Torsional Free Energy           =   +2.39 kcal/mol
DOCKED: USER    (4) Unbound System's Energy  [=(2)] =   -0.84 kcal/mol
DOCKED: USER    
DOCKED: USER    
DOCKED: USER    NEWDPF move ligand.pdbqt
DOCKED: USER    NEWDPF about -0.033000 -0.045000 -0.218000
DOCKED: USER    NEWDPF tran0 26.826408 -15.011650 -1.773390
DOCKED: USER    NEWDPF quaternion0 0.558489 0.134288 -0.643660 -0.505725
DOCKED: USER    NEWDPF axisangle0 0.647378 0.155661 -0.746104 -119.241021
DOCKED: USER    NEWDPF quat0 0.647378 0.155661 -0.746104 -119.241021
DOCKED: USER    NEWDPF dihe0 -176.80 -11.17 138.61 75.29 -10.38 -106.62 -160.81 147.57 
DOCKED: USER  keepresnum = 1 
DOCKED: USER  
DOCKED: REMARK  Name = 
DOCKED: REMARK  8 active torsions:
DOCKED: REMARK  status: ('A' for Active; 'I' for Inactive)
DOCKED: REMARK    1  A    between atoms: C_2  and  C_5
DOCKED: REMARK    2  A    between atoms: C_5  and  C_6
DOCKED: REMARK    3  A    between atoms: C_6  and  C_7
DOCKED: REMARK    4  A    between atoms: C_7  and  C_8
DOCKED: REMARK    5  A    between atoms: C_8  and  C_9
DOCKED: REMARK    6  A    between atoms: C_9  and  C_10
DOCKED: REMARK    7  A    between atoms: C_10  and  C_11
DOCKED: REMARK    8  A    between atoms: N_12  and  C_13
DOCKED: REMARK                            x       y       z     vdW  Elec       q    Type
DOCKED: REMARK                         _______ _______ _______ _____ _____    ______ ____
DOCKED: USER                              x       y       z     vdW  Elec       q    Type
DOCKED: USER                           _______ _______ _______ _____ _____    ______ ____
DOCKED: ROOT
DOCKED: ATOM      1  C   UNL     1      28.200 -15.461  -0.796 -0.26 -0.00    +0.000 C 
DOCKED: ENDROOT
DOCKED: BRANCH   1   2
DOCKED: ATOM      2  C   UNL     1      27.642 -14.859   0.459 -0.29 -0.00    +0.000 C 
DOCKED: ATOM      3  N   UNL     1      28.426 -14.855   1.662 -0.17 -0.00    +0.000 N 
DOCKED: ATOM      4  O   UNL     1      26.481 -14.365   0.444 -0.35 -0.00    +0.000 OA
DOCKED: ATOM      5  H   UNL     1      29.252 -15.389   1.675 -1.36 -0.00    +0.000 HD
DOCKED: BRANCH   3   6
DOCKED: ATOM      6  C   UNL     1      28.080 -14.122   2.849 -0.33 -0.00    +0.000 A 
DOCKED: ATOM      7  C   UNL     1      28.212 -14.731   4.103 -0.46 -0.00    +0.000 A 
DOCKED: ATOM      8  C   UNL     1      27.899 -14.022   5.265 -0.40 -0.00    +0.000 A 
DOCKED: ATOM      9  C   UNL     1      27.474 -12.698   5.163 -0.23 +0.00    +0.000 A 
DOCKED: ATOM     10  N   UNL     1      27.375 -12.107   3.943 -0.29 +0.00    +0.000 NA
DOCKED: ATOM     11  C   UNL     1      27.668 -12.779   2.796 -0.27 -0.00    +0.000 A 
DOCKED: ENDBRANCH   3   6
DOCKED: ENDBRANCH   1   2
DOCKED: BRANCH   1  12
DOCKED: ATOM     12  C   UNL     1      27.300 -16.604  -1.285 -0.42 -0.00    +0.000 C 
DOCKED: BRANCH  12  13
DOCKED: ATOM     13  C   UNL     1      26.515 -17.272  -0.141 -0.53 -0.00    +0.000 C 
DOCKED: BRANCH  13  14
DOCKED: ATOM     14  C   UNL     1      25.621 -18.445  -0.584 -0.62 -0.00    +0.000 C 
DOCKED: BRANCH  14  15
DOCKED: ATOM     15  C   UNL     1      24.241 -17.983  -1.081 -0.77 -0.00    +0.000 C 
DOCKED: BRANCH  15  16
DOCKED: ATOM     16  C   UNL     1      23.131 -18.257  -0.057 -0.77 -0.00    +0.000 C 
DOCKED: BRANCH  16  18
DOCKED: ATOM     17  O   UNL     1      20.994 -17.406  -0.709 -2.01 +0.00    +0.000 OA
DOCKED: ATOM     18  C   UNL     1      21.786 -18.387  -0.709 -0.86 -0.00    +0.000 C 
DOCKED: ATOM     19  N   UNL     1      21.388 -19.624  -1.305 -0.67 -0.00    +0.000 N 
DOCKED: ATOM     20  O   UNL     1      20.173 -19.743  -1.893 -2.37 -0.00    +0.000 OA
DOCKED: ATOM     21  H   UNL     1      22.000 -20.395  -1.289 -0.24 -0.00    +0.000 HD
DOCKED: ENDBRANCH  16  18
DOCKED: ENDBRANCH  15  16
DOCKED: ENDBRANCH  14  15
DOCKED: ENDBRANCH  13  14
DOCKED: ENDBRANCH  12  13
DOCKED: ENDBRANCH   1  12
DOCKED: TORSDOF 8
DOCKED: TER
DOCKED: ENDMDL
________________________________________________________________________________


	BEGINNING GENETIC ALGORITHM DOCKING 73 of 100
Run: 73 Seed: 1828454166 1726460255 [ Run 73 of 100 GA/GALS ]
Beginning LAMARCKIAN GENETIC ALGORITHM (LGA), with a maximum of 2500000 energy evaluations.

Final-Value: -13.164


	FINAL GENETIC ALGORITHM DOCKED STATE
	_______________________________________________


Detailed state:  trans 25.054 -13.265 -2.910 quatxyzw -0.354389 -0.259332 0.855475 0.274442 center -0.033 -0.045 -0.218 ntor 8 -98.4696 157.2397 141.4172 -87.1866 155.9699 172.1092 56.8517 88.1705
State:	 25.054 -13.265  -2.910  -0.369 -0.270  0.890 148.142    -98.47  157.24  141.42  -87.19  155.97  172.11   56.85   88.17

DOCKED: MODEL       73
DOCKED: USER    Run = 73
DOCKED: USER    DPF = ligand_dock.biased.dpf
DOCKED: USER  
DOCKED: USER    Estimated Free Energy of Binding    =   -9.66 kcal/mol  [=(1)+(2)+(3)-(4)]
DOCKED: USER    Estimated Inhibition Constant, Ki   =   83.33 nM (nanomolar)  [Temperature = 298.15 K]
DOCKED: USER    
DOCKED: USER    (1) Final Intermolecular Energy     =  -12.04 kcal/mol
DOCKED: USER        vdW + Hbond + desolv Energy     =  -12.04 kcal/mol
DOCKED: USER        Electrostatic Energy            =   +0.00 kcal/mol
DOCKED: USER    (2) Final Total Internal Energy     =   -1.12 kcal/mol
DOCKED: USER    (3) Torsional Free Energy           =   +2.39 kcal/mol
DOCKED: USER    (4) Unbound System's Energy  [=(2)] =   -1.12 kcal/mol
DOCKED: USER    
DOCKED: USER    
DOCKED: USER    NEWDPF move ligand.pdbqt
DOCKED: USER    NEWDPF about -0.033000 -0.045000 -0.218000
DOCKED: USER    NEWDPF tran0 25.054244 -13.265433 -2.909583
DOCKED: USER    NEWDPF quaternion0 -0.354389 -0.259332 0.855475 0.274442
DOCKED: USER    NEWDPF axisangle0 -0.368539 -0.269687 0.889633 148.142438
DOCKED: USER    NEWDPF quat0 -0.368539 -0.269687 0.889633 148.142438
DOCKED: USER    NEWDPF dihe0 -98.47 157.24 141.42 -87.19 155.97 172.11 56.85 88.17 
DOCKED: USER  keepresnum = 1 
DOCKED: USER  
DOCKED: REMARK  Name = 
DOCKED: REMARK  8 active torsions:
DOCKED: REMARK  status: ('A' for Active; 'I' for Inactive)
DOCKED: REMARK    1  A    between atoms: C_2  and  C_5
DOCKED: REMARK    2  A    between atoms: C_5  and  C_6
DOCKED: REMARK    3  A    between atoms: C_6  and  C_7
DOCKED: REMARK    4  A    between atoms: C_7  and  C_8
DOCKED: REMARK    5  A    between atoms: C_8  and  C_9
DOCKED: REMARK    6  A    between atoms: C_9  and  C_10
DOCKED: REMARK    7  A    between atoms: C_10  and  C_11
DOCKED: REMARK    8  A    between atoms: N_12  and  C_13
DOCKED: REMARK                            x       y       z     vdW  Elec       q    Type
DOCKED: REMARK                         _______ _______ _______ _____ _____    ______ ____
DOCKED: USER                              x       y       z     vdW  Elec       q    Type
DOCKED: USER                           _______ _______ _______ _____ _____    ______ ____
DOCKED: ROOT
DOCKED: ATOM      1  C   UNL     1      26.474 -14.263  -3.097 -0.37 -0.00    +0.000 C 
DOCKED: ENDROOT
DOCKED: BRANCH   1   2
DOCKED: ATOM      2  C   UNL     1      27.049 -13.882  -1.765 -0.24 -0.00    +0.000 C 
DOCKED: ATOM      3  N   UNL     1      26.192 -13.781  -0.617 -0.27 -0.00    +0.000 N 
DOCKED: ATOM      4  O   UNL     1      28.285 -13.648  -1.670 -0.12 -0.00    +0.000 OA
DOCKED: ATOM      5  H   UNL     1      25.220 -13.811  -0.764 -0.01 -0.00    +0.000 HD
DOCKED: BRANCH   3   6
DOCKED: ATOM      6  C   UNL     1      26.665 -13.637   0.733 -0.27 -0.00    +0.000 A 
DOCKED: ATOM      7  C   UNL     1      27.570 -14.571   1.254 -0.22 -0.00    +0.000 A 
DOCKED: ATOM      8  C   UNL     1      28.052 -14.430   2.557 -0.25 -0.00    +0.000 A 
DOCKED: ATOM      9  C   UNL     1      27.639 -13.340   3.323 -0.35 -0.00    +0.000 A 
DOCKED: ATOM     10  N   UNL     1      26.782 -12.425   2.799 -0.28 +0.00    +0.000 NA
DOCKED: ATOM     11  C   UNL     1      26.293 -12.543   1.535 -0.33 +0.00    +0.000 A 
DOCKED: ENDBRANCH   3   6
DOCKED: ENDBRANCH   1   2
DOCKED: BRANCH   1  12
DOCKED: ATOM     12  C   UNL     1      25.138 -14.995  -2.909 -0.44 -0.00    +0.000 C 
DOCKED: BRANCH  12  13
DOCKED: ATOM     13  C   UNL     1      25.316 -16.508  -2.692 -0.49 -0.00    +0.000 C 
DOCKED: BRANCH  13  14
DOCKED: ATOM     14  C   UNL     1      25.226 -16.954  -1.221 -0.63 -0.00    +0.000 C 
DOCKED: BRANCH  14  15
DOCKED: ATOM     15  C   UNL     1      23.774 -17.102  -0.735 -0.69 -0.00    +0.000 C 
DOCKED: BRANCH  15  16
DOCKED: ATOM     16  C   UNL     1      23.248 -18.534  -0.900 -0.82 -0.00    +0.000 C 
DOCKED: BRANCH  16  18
DOCKED: ATOM     17  O   UNL     1      21.061 -17.587  -0.703 -2.05 -0.00    +0.000 OA
DOCKED: ATOM     18  C   UNL     1      21.758 -18.567  -1.083 -0.80 -0.00    +0.000 C 
DOCKED: ATOM     19  N   UNL     1      21.126 -19.711  -1.659 -0.65 -0.00    +0.000 N 
DOCKED: ATOM     20  O   UNL     1      19.782 -19.742  -1.823 -2.32 -0.00    +0.000 OA
DOCKED: ATOM     21  H   UNL     1      21.669 -20.483  -1.939 -0.45 -0.00    +0.000 HD
DOCKED: ENDBRANCH  16  18
DOCKED: ENDBRANCH  15  16
DOCKED: ENDBRANCH  14  15
DOCKED: ENDBRANCH  13  14
DOCKED: ENDBRANCH  12  13
DOCKED: ENDBRANCH   1  12
DOCKED: TORSDOF 8
DOCKED: TER
DOCKED: ENDMDL
________________________________________________________________________________


	BEGINNING GENETIC ALGORITHM DOCKING 74 of 100
Run: 74 Seed: 1729977490 904611909 [ Run 74 of 100 GA/GALS ]
Beginning LAMARCKIAN GENETIC ALGORITHM (LGA), with a maximum of 2500000 energy evaluations.

Final-Value: -14.394


	FINAL GENETIC ALGORITHM DOCKED STATE
	_______________________________________________


Detailed state:  trans 26.493 -15.069 -1.025 quatxyzw -0.429023 -0.151254 0.666795 0.590293 center -0.033 -0.045 -0.218 ntor 8 -100.3306 171.8080 179.3094 -2.2709 -174.8331 -130.5342 168.4278 -121.3731
State:	 26.493 -15.069  -1.025  -0.532 -0.187  0.826 107.644   -100.33  171.81  179.31   -2.27 -174.83 -130.53  168.43 -121.37

DOCKED: MODEL       74
DOCKED: USER    Run = 74
DOCKED: USER    DPF = ligand_dock.biased.dpf
DOCKED: USER  
DOCKED: USER    Estimated Free Energy of Binding    =  -11.26 kcal/mol  [=(1)+(2)+(3)-(4)]
DOCKED: USER    Estimated Inhibition Constant, Ki   =    5.54 nM (nanomolar)  [Temperature = 298.15 K]
DOCKED: USER    
DOCKED: USER    (1) Final Intermolecular Energy     =  -13.65 kcal/mol
DOCKED: USER        vdW + Hbond + desolv Energy     =  -13.65 kcal/mol
DOCKED: USER        Electrostatic Energy            =   +0.00 kcal/mol
DOCKED: USER    (2) Final Total Internal Energy     =   -0.74 kcal/mol
DOCKED: USER    (3) Torsional Free Energy           =   +2.39 kcal/mol
DOCKED: USER    (4) Unbound System's Energy  [=(2)] =   -0.74 kcal/mol
DOCKED: USER    
DOCKED: USER    
DOCKED: USER    NEWDPF move ligand.pdbqt
DOCKED: USER    NEWDPF about -0.033000 -0.045000 -0.218000
DOCKED: USER    NEWDPF tran0 26.492932 -15.068876 -1.024878
DOCKED: USER    NEWDPF quaternion0 -0.429023 -0.151254 0.666795 0.590293
DOCKED: USER    NEWDPF axisangle0 -0.531503 -0.187383 0.826070 107.644355
DOCKED: USER    NEWDPF quat0 -0.531503 -0.187383 0.826070 107.644355
DOCKED: USER    NEWDPF dihe0 -100.33 171.81 179.31 -2.27 -174.83 -130.53 168.43 -121.37 
DOCKED: USER  keepresnum = 1 
DOCKED: USER  
DOCKED: REMARK  Name = 
DOCKED: REMARK  8 active torsions:
DOCKED: REMARK  status: ('A' for Active; 'I' for Inactive)
DOCKED: REMARK    1  A    between atoms: C_2  and  C_5
DOCKED: REMARK    2  A    between atoms: C_5  and  C_6
DOCKED: REMARK    3  A    between atoms: C_6  and  C_7
DOCKED: REMARK    4  A    between atoms: C_7  and  C_8
DOCKED: REMARK    5  A    between atoms: C_8  and  C_9
DOCKED: REMARK    6  A    between atoms: C_9  and  C_10
DOCKED: REMARK    7  A    between atoms: C_10  and  C_11
DOCKED: REMARK    8  A    between atoms: N_12  and  C_13
DOCKED: REMARK                            x       y       z     vdW  Elec       q    Type
DOCKED: REMARK                         _______ _______ _______ _____ _____    ______ ____
DOCKED: USER                              x       y       z     vdW  Elec       q    Type
DOCKED: USER                           _______ _______ _______ _____ _____    ______ ____
DOCKED: ROOT
DOCKED: ATOM      1  C   UNL     1      28.066 -15.127  -0.273 -0.26 -0.00    +0.000 C 
DOCKED: ENDROOT
DOCKED: BRANCH   1   2
DOCKED: ATOM      2  C   UNL     1      27.642 -14.333   0.927 -0.28 -0.00    +0.000 C 
DOCKED: ATOM      3  N   UNL     1      28.321 -14.510   2.179 -0.26 -0.00    +0.000 N 
DOCKED: ATOM      4  O   UNL     1      26.684 -13.520   0.822 -0.36 -0.00    +0.000 OA
DOCKED: ATOM      5  H   UNL     1      28.949 -15.263   2.261 -1.87 -0.00    +0.000 HD
DOCKED: BRANCH   3   6
DOCKED: ATOM      6  C   UNL     1      28.142 -13.657   3.323 -0.33 -0.00    +0.000 A 
DOCKED: ATOM      7  C   UNL     1      28.033 -12.271   3.143 -0.23 -0.00    +0.000 A 
DOCKED: ATOM      8  C   UNL     1      27.838 -11.434   4.243 -0.30 +0.00    +0.000 A 
DOCKED: ATOM      9  C   UNL     1      27.733 -11.994   5.517 -0.33 +0.00    +0.000 A 
DOCKED: ATOM     10  N   UNL     1      27.812 -13.341   5.677 -0.47 -0.00    +0.000 NA
DOCKED: ATOM     11  C   UNL     1      28.008 -14.177   4.622 -0.52 -0.00    +0.000 A 
DOCKED: ENDBRANCH   3   6
DOCKED: ENDBRANCH   1   2
DOCKED: BRANCH   1  12
DOCKED: ATOM     12  C   UNL     1      27.286 -16.447  -0.340 -0.42 -0.00    +0.000 C 
DOCKED: BRANCH  12  13
DOCKED: ATOM     13  C   UNL     1      25.776 -16.235  -0.544 -0.40 -0.00    +0.000 C 
DOCKED: BRANCH  13  14
DOCKED: ATOM     14  C   UNL     1      25.041 -17.443  -1.153 -0.68 -0.00    +0.000 C 
DOCKED: BRANCH  14  15
DOCKED: ATOM     15  C   UNL     1      24.100 -18.131  -0.150 -0.72 -0.00    +0.000 C 
DOCKED: BRANCH  15  16
DOCKED: ATOM     16  C   UNL     1      23.328 -19.298  -0.781 -0.71 -0.00    +0.000 C 
DOCKED: BRANCH  16  18
DOCKED: ATOM     17  O   UNL     1      21.339 -18.188  -0.054 -1.44 -0.00    +0.000 OA
DOCKED: ATOM     18  C   UNL     1      21.853 -19.027  -0.843 -0.84 -0.00    +0.000 C 
DOCKED: ATOM     19  N   UNL     1      21.026 -19.733  -1.770 -0.68 -0.00    +0.000 N 
DOCKED: ATOM     20  O   UNL     1      19.695 -19.490  -1.826 -1.99 -0.00    +0.000 OA
DOCKED: ATOM     21  H   UNL     1      21.426 -20.401  -2.373 -0.55 -0.00    +0.000 HD
DOCKED: ENDBRANCH  16  18
DOCKED: ENDBRANCH  15  16
DOCKED: ENDBRANCH  14  15
DOCKED: ENDBRANCH  13  14
DOCKED: ENDBRANCH  12  13
DOCKED: ENDBRANCH   1  12
DOCKED: TORSDOF 8
DOCKED: TER
DOCKED: ENDMDL
________________________________________________________________________________


	BEGINNING GENETIC ALGORITHM DOCKING 75 of 100
Run: 75 Seed: 509964589 1330087409 [ Run 75 of 100 GA/GALS ]
Beginning LAMARCKIAN GENETIC ALGORITHM (LGA), with a maximum of 2500000 energy evaluations.

Final-Value: -14.453


	FINAL GENETIC ALGORITHM DOCKED STATE
	_______________________________________________


Detailed state:  trans 26.657 -15.477 -1.460 quatxyzw -0.453789 -0.102669 0.675438 0.572118 center -0.033 -0.045 -0.218 ntor 8 -176.9355 159.2482 45.9487 -100.5038 178.6900 -158.5026 177.5453 -149.0501
State:	 26.657 -15.477  -1.460  -0.553 -0.125  0.824 110.204   -176.94  159.25   45.95 -100.50  178.69 -158.50  177.55 -149.05

DOCKED: MODEL       75
DOCKED: USER    Run = 75
DOCKED: USER    DPF = ligand_dock.biased.dpf
DOCKED: USER  
DOCKED: USER    Estimated Free Energy of Binding    =  -11.27 kcal/mol  [=(1)+(2)+(3)-(4)]
DOCKED: USER    Estimated Inhibition Constant, Ki   =    5.45 nM (nanomolar)  [Temperature = 298.15 K]
DOCKED: USER    
DOCKED: USER    (1) Final Intermolecular Energy     =  -13.66 kcal/mol
DOCKED: USER        vdW + Hbond + desolv Energy     =  -13.66 kcal/mol
DOCKED: USER        Electrostatic Energy            =   +0.00 kcal/mol
DOCKED: USER    (2) Final Total Internal Energy     =   -0.79 kcal/mol
DOCKED: USER    (3) Torsional Free Energy           =   +2.39 kcal/mol
DOCKED: USER    (4) Unbound System's Energy  [=(2)] =   -0.79 kcal/mol
DOCKED: USER    
DOCKED: USER    
DOCKED: USER    NEWDPF move ligand.pdbqt
DOCKED: USER    NEWDPF about -0.033000 -0.045000 -0.218000
DOCKED: USER    NEWDPF tran0 26.657045 -15.476767 -1.460032
DOCKED: USER    NEWDPF quaternion0 -0.453789 -0.102669 0.675438 0.572118
DOCKED: USER    NEWDPF axisangle0 -0.553285 -0.125180 0.823532 110.203909
DOCKED: USER    NEWDPF quat0 -0.553285 -0.125180 0.823532 110.203909
DOCKED: USER    NEWDPF dihe0 -176.94 159.25 45.95 -100.50 178.69 -158.50 177.55 -149.05 
DOCKED: USER  keepresnum = 1 
DOCKED: USER  
DOCKED: REMARK  Name = 
DOCKED: REMARK  8 active torsions:
DOCKED: REMARK  status: ('A' for Active; 'I' for Inactive)
DOCKED: REMARK    1  A    between atoms: C_2  and  C_5
DOCKED: REMARK    2  A    between atoms: C_5  and  C_6
DOCKED: REMARK    3  A    between atoms: C_6  and  C_7
DOCKED: REMARK    4  A    between atoms: C_7  and  C_8
DOCKED: REMARK    5  A    between atoms: C_8  and  C_9
DOCKED: REMARK    6  A    between atoms: C_9  and  C_10
DOCKED: REMARK    7  A    between atoms: C_10  and  C_11
DOCKED: REMARK    8  A    between atoms: N_12  and  C_13
DOCKED: REMARK                            x       y       z     vdW  Elec       q    Type
DOCKED: REMARK                         _______ _______ _______ _____ _____    ______ ____
DOCKED: USER                              x       y       z     vdW  Elec       q    Type
DOCKED: USER                           _______ _______ _______ _____ _____    ______ ____
DOCKED: ROOT
DOCKED: ATOM      1  C   UNL     1      28.158 -15.646  -0.586 -0.28 -0.00    +0.000 C 
DOCKED: ENDROOT
DOCKED: BRANCH   1   2
DOCKED: ATOM      2  C   UNL     1      27.711 -14.789   0.561 -0.29 -0.00    +0.000 C 
DOCKED: ATOM      3  N   UNL     1      28.408 -14.851   1.815 -0.14 -0.00    +0.000 N 
DOCKED: ATOM      4  O   UNL     1      26.720 -14.024   0.412 -0.35 -0.00    +0.000 OA
DOCKED: ATOM      5  H   UNL     1      29.067 -15.571   1.941 -1.57 -0.00    +0.000 HD
DOCKED: BRANCH   3   6
DOCKED: ATOM      6  C   UNL     1      28.204 -13.929   2.899 -0.31 -0.00    +0.000 A 
DOCKED: ATOM      7  C   UNL     1      28.300 -12.550   2.664 -0.19 -0.00    +0.000 A 
DOCKED: ATOM      8  C   UNL     1      28.083 -11.645   3.704 -0.24 +0.00    +0.000 A 
DOCKED: ATOM      9  C   UNL     1      27.751 -12.125   4.970 -0.34 +0.00    +0.000 A 
DOCKED: ATOM     10  N   UNL     1      27.633 -13.463   5.181 -0.51 -0.00    +0.000 NA
DOCKED: ATOM     11  C   UNL     1      27.846 -14.366   4.186 -0.52 -0.00    +0.000 A 
DOCKED: ENDBRANCH   3   6
DOCKED: ENDBRANCH   1   2
DOCKED: BRANCH   1  12
DOCKED: ATOM     12  C   UNL     1      27.277 -16.898  -0.689 -0.46 -0.00    +0.000 C 
DOCKED: BRANCH  12  13
DOCKED: ATOM     13  C   UNL     1      25.805 -16.619  -0.337 -0.41 -0.00    +0.000 C 
DOCKED: BRANCH  13  14
DOCKED: ATOM     14  C   UNL     1      24.794 -17.129  -1.381 -0.67 -0.00    +0.000 C 
DOCKED: BRANCH  14  15
DOCKED: ATOM     15  C   UNL     1      24.077 -18.414  -0.932 -0.79 -0.00    +0.000 C 
DOCKED: BRANCH  15  16
DOCKED: ATOM     16  C   UNL     1      22.937 -18.130   0.056 -0.73 -0.00    +0.000 C 
DOCKED: BRANCH  16  18
DOCKED: ATOM     17  O   UNL     1      20.889 -17.491  -0.999 -2.01 -0.00    +0.000 OA
DOCKED: ATOM     18  C   UNL     1      21.592 -18.431  -0.539 -0.83 -0.00    +0.000 C 
DOCKED: ATOM     19  N   UNL     1      21.094 -19.770  -0.560 -0.73 -0.00    +0.000 N 
DOCKED: ATOM     20  O   UNL     1      19.880 -20.042  -1.095 -1.96 -0.00    +0.000 OA
DOCKED: ATOM     21  H   UNL     1      21.636 -20.501  -0.183 -0.34 -0.00    +0.000 HD
DOCKED: ENDBRANCH  16  18
DOCKED: ENDBRANCH  15  16
DOCKED: ENDBRANCH  14  15
DOCKED: ENDBRANCH  13  14
DOCKED: ENDBRANCH  12  13
DOCKED: ENDBRANCH   1  12
DOCKED: TORSDOF 8
DOCKED: TER
DOCKED: ENDMDL
________________________________________________________________________________


	BEGINNING GENETIC ALGORITHM DOCKING 76 of 100
Run: 76 Seed: 848686326 64284034 [ Run 76 of 100 GA/GALS ]
Beginning LAMARCKIAN GENETIC ALGORITHM (LGA), with a maximum of 2500000 energy evaluations.

Final-Value: -15.147


	FINAL GENETIC ALGORITHM DOCKED STATE
	_______________________________________________


Detailed state:  trans 26.409 -13.575 -1.057 quatxyzw -0.604281 -0.007316 0.754297 0.256566 center -0.033 -0.045 -0.218 ntor 8 176.3912 179.5806 82.4931 48.7355 -162.3349 168.3857 -142.8769 42.0602
State:	 26.409 -13.575  -1.057  -0.625 -0.008  0.780 150.267    176.39  179.58   82.49   48.74 -162.33  168.39 -142.88   42.06

DOCKED: MODEL       76
DOCKED: USER    Run = 76
DOCKED: USER    DPF = ligand_dock.biased.dpf
DOCKED: USER  
DOCKED: USER    Estimated Free Energy of Binding    =  -12.05 kcal/mol  [=(1)+(2)+(3)-(4)]
DOCKED: USER    Estimated Inhibition Constant, Ki   =    1.48 nM (nanomolar)  [Temperature = 298.15 K]
DOCKED: USER    
DOCKED: USER    (1) Final Intermolecular Energy     =  -14.43 kcal/mol
DOCKED: USER        vdW + Hbond + desolv Energy     =  -14.43 kcal/mol
DOCKED: USER        Electrostatic Energy            =   +0.00 kcal/mol
DOCKED: USER    (2) Final Total Internal Energy     =   -0.71 kcal/mol
DOCKED: USER    (3) Torsional Free Energy           =   +2.39 kcal/mol
DOCKED: USER    (4) Unbound System's Energy  [=(2)] =   -0.71 kcal/mol
DOCKED: USER    
DOCKED: USER    
DOCKED: USER    NEWDPF move ligand.pdbqt
DOCKED: USER    NEWDPF about -0.033000 -0.045000 -0.218000
DOCKED: USER    NEWDPF tran0 26.408746 -13.574915 -1.057278
DOCKED: USER    NEWDPF quaternion0 -0.604281 -0.007316 0.754297 0.256566
DOCKED: USER    NEWDPF axisangle0 -0.625209 -0.007569 0.780421 150.267163
DOCKED: USER    NEWDPF quat0 -0.625209 -0.007569 0.780421 150.267163
DOCKED: USER    NEWDPF dihe0 176.39 179.58 82.49 48.74 -162.33 168.39 -142.88 42.06 
DOCKED: USER  keepresnum = 1 
DOCKED: USER  
DOCKED: REMARK  Name = 
DOCKED: REMARK  8 active torsions:
DOCKED: REMARK  status: ('A' for Active; 'I' for Inactive)
DOCKED: REMARK    1  A    between atoms: C_2  and  C_5
DOCKED: REMARK    2  A    between atoms: C_5  and  C_6
DOCKED: REMARK    3  A    between atoms: C_6  and  C_7
DOCKED: REMARK    4  A    between atoms: C_7  and  C_8
DOCKED: REMARK    5  A    between atoms: C_8  and  C_9
DOCKED: REMARK    6  A    between atoms: C_9  and  C_10
DOCKED: REMARK    7  A    between atoms: C_10  and  C_11
DOCKED: REMARK    8  A    between atoms: N_12  and  C_13
DOCKED: REMARK                            x       y       z     vdW  Elec       q    Type
DOCKED: REMARK                         _______ _______ _______ _____ _____    ______ ____
DOCKED: USER                              x       y       z     vdW  Elec       q    Type
DOCKED: USER                           _______ _______ _______ _____ _____    ______ ____
DOCKED: ROOT
DOCKED: ATOM      1  C   UNL     1      27.260 -14.835  -0.202 -0.30 -0.00    +0.000 C 
DOCKED: ENDROOT
DOCKED: BRANCH   1   2
DOCKED: ATOM      2  C   UNL     1      27.090 -14.188   1.141 -0.24 -0.00    +0.000 C 
DOCKED: ATOM      3  N   UNL     1      27.981 -14.523   2.215 -0.30 -0.00    +0.000 N 
DOCKED: ATOM      4  O   UNL     1      26.158 -13.356   1.312 -0.40 -0.00    +0.000 OA
DOCKED: ATOM      5  H   UNL     1      28.586 -15.289   2.090 -1.52 -0.00    +0.000 HD
DOCKED: BRANCH   3   6
DOCKED: ATOM      6  C   UNL     1      28.044 -13.813   3.464 -0.37 -0.00    +0.000 A 
DOCKED: ATOM      7  C   UNL     1      27.790 -12.435   3.491 -0.28 -0.00    +0.000 A 
DOCKED: ATOM      8  C   UNL     1      27.827 -11.739   4.700 -0.32 +0.00    +0.000 A 
DOCKED: ATOM      9  C   UNL     1      28.100 -12.432   5.879 -0.39 +0.00    +0.000 A 
DOCKED: ATOM     10  N   UNL     1      28.318 -13.773   5.846 -0.43 -0.00    +0.000 NA
DOCKED: ATOM     11  C   UNL     1      28.293 -14.473   4.680 -0.52 -0.00    +0.000 A 
DOCKED: ENDBRANCH   3   6
DOCKED: ENDBRANCH   1   2
DOCKED: BRANCH   1  12
DOCKED: ATOM     12  C   UNL     1      25.892 -15.206  -0.791 -0.40 -0.00    +0.000 C 
DOCKED: BRANCH  12  13
DOCKED: ATOM     13  C   UNL     1      25.851 -16.643  -1.339 -0.56 -0.00    +0.000 C 
DOCKED: BRANCH  13  14
DOCKED: ATOM     14  C   UNL     1      25.276 -17.681  -0.358 -0.66 -0.00    +0.000 C 
DOCKED: BRANCH  14  15
DOCKED: ATOM     15  C   UNL     1      24.070 -18.440  -0.938 -0.79 -0.00    +0.000 C 
DOCKED: BRANCH  15  16
DOCKED: ATOM     16  C   UNL     1      22.884 -18.480   0.035 -0.75 -0.00    +0.000 C 
DOCKED: BRANCH  16  18
DOCKED: ATOM     17  O   UNL     1      20.847 -17.473  -0.711 -2.06 +0.00    +0.000 OA
DOCKED: ATOM     18  C   UNL     1      21.567 -18.507  -0.687 -0.86 -0.00    +0.000 C 
DOCKED: ATOM     19  N   UNL     1      21.116 -19.705  -1.321 -0.73 -0.00    +0.000 N 
DOCKED: ATOM     20  O   UNL     1      19.928 -19.731  -1.972 -2.37 -0.00    +0.000 OA
DOCKED: ATOM     21  H   UNL     1      21.671 -20.518  -1.286 -0.19 -0.00    +0.000 HD
DOCKED: ENDBRANCH  16  18
DOCKED: ENDBRANCH  15  16
DOCKED: ENDBRANCH  14  15
DOCKED: ENDBRANCH  13  14
DOCKED: ENDBRANCH  12  13
DOCKED: ENDBRANCH   1  12
DOCKED: TORSDOF 8
DOCKED: TER
DOCKED: ENDMDL
________________________________________________________________________________


	BEGINNING GENETIC ALGORITHM DOCKING 77 of 100
Run: 77 Seed: 225386212 1140268285 [ Run 77 of 100 GA/GALS ]
Beginning LAMARCKIAN GENETIC ALGORITHM (LGA), with a maximum of 2500000 energy evaluations.

Final-Value: -14.105


	FINAL GENETIC ALGORITHM DOCKED STATE
	_______________________________________________


Detailed state:  trans 27.877 -14.753 -1.641 quatxyzw -0.689845 0.153829 0.637232 0.307223 center -0.033 -0.045 -0.218 ntor 8 179.4655 -2.0435 154.7088 63.9540 -74.4445 -83.7736 -130.9327 129.6930
State:	 27.877 -14.753  -1.641  -0.725  0.162  0.670 144.216    179.47   -2.04  154.71   63.95  -74.44  -83.77 -130.93  129.69

DOCKED: MODEL       77
DOCKED: USER    Run = 77
DOCKED: USER    DPF = ligand_dock.biased.dpf
DOCKED: USER  
DOCKED: USER    Estimated Free Energy of Binding    =  -11.05 kcal/mol  [=(1)+(2)+(3)-(4)]
DOCKED: USER    Estimated Inhibition Constant, Ki   =    7.97 nM (nanomolar)  [Temperature = 298.15 K]
DOCKED: USER    
DOCKED: USER    (1) Final Intermolecular Energy     =  -13.43 kcal/mol
DOCKED: USER        vdW + Hbond + desolv Energy     =  -13.43 kcal/mol
DOCKED: USER        Electrostatic Energy            =   +0.00 kcal/mol
DOCKED: USER    (2) Final Total Internal Energy     =   -0.67 kcal/mol
DOCKED: USER    (3) Torsional Free Energy           =   +2.39 kcal/mol
DOCKED: USER    (4) Unbound System's Energy  [=(2)] =   -0.67 kcal/mol
DOCKED: USER    
DOCKED: USER    
DOCKED: USER    NEWDPF move ligand.pdbqt
DOCKED: USER    NEWDPF about -0.033000 -0.045000 -0.218000
DOCKED: USER    NEWDPF tran0 27.877338 -14.752532 -1.641354
DOCKED: USER    NEWDPF quaternion0 -0.689845 0.153829 0.637232 0.307223
DOCKED: USER    NEWDPF axisangle0 -0.724903 0.161647 0.669616 144.216082
DOCKED: USER    NEWDPF quat0 -0.724903 0.161647 0.669616 144.216082
DOCKED: USER    NEWDPF dihe0 179.47 -2.04 154.71 63.95 -74.44 -83.77 -130.93 129.69 
DOCKED: USER  keepresnum = 1 
DOCKED: USER  
DOCKED: REMARK  Name = 
DOCKED: REMARK  8 active torsions:
DOCKED: REMARK  status: ('A' for Active; 'I' for Inactive)
DOCKED: REMARK    1  A    between atoms: C_2  and  C_5
DOCKED: REMARK    2  A    between atoms: C_5  and  C_6
DOCKED: REMARK    3  A    between atoms: C_6  and  C_7
DOCKED: REMARK    4  A    between atoms: C_7  and  C_8
DOCKED: REMARK    5  A    between atoms: C_8  and  C_9
DOCKED: REMARK    6  A    between atoms: C_9  and  C_10
DOCKED: REMARK    7  A    between atoms: C_10  and  C_11
DOCKED: REMARK    8  A    between atoms: N_12  and  C_13
DOCKED: REMARK                            x       y       z     vdW  Elec       q    Type
DOCKED: REMARK                         _______ _______ _______ _____ _____    ______ ____
DOCKED: USER                              x       y       z     vdW  Elec       q    Type
DOCKED: USER                           _______ _______ _______ _____ _____    ______ ____
DOCKED: ROOT
DOCKED: ATOM      1  C   UNL     1      28.254 -15.754  -0.263 -0.28 -0.00    +0.000 C 
DOCKED: ENDROOT
DOCKED: BRANCH   1   2
DOCKED: ATOM      2  C   UNL     1      27.709 -14.775   0.734 -0.29 -0.00    +0.000 C 
DOCKED: ATOM      3  N   UNL     1      28.322 -14.653   2.027 -0.21 -0.00    +0.000 N 
DOCKED: ATOM      4  O   UNL     1      26.710 -14.069   0.425 -0.35 -0.00    +0.000 OA
DOCKED: ATOM      5  H   UNL     1      28.989 -15.328   2.286 -1.87 -0.00    +0.000 HD
DOCKED: BRANCH   3   6
DOCKED: ATOM      6  C   UNL     1      28.021 -13.608   2.968 -0.31 -0.00    +0.000 A 
DOCKED: ATOM      7  C   UNL     1      28.043 -13.886   4.341 -0.48 -0.00    +0.000 A 
DOCKED: ATOM      8  C   UNL     1      27.773 -12.875   5.265 -0.42 -0.00    +0.000 A 
DOCKED: ATOM      9  C   UNL     1      27.503 -11.585   4.808 -0.17 +0.00    +0.000 A 
DOCKED: ATOM     10  N   UNL     1      27.512 -11.321   3.475 -0.28 +0.00    +0.000 NA
DOCKED: ATOM     11  C   UNL     1      27.765 -12.289   2.554 -0.23 -0.00    +0.000 A 
DOCKED: ENDBRANCH   3   6
DOCKED: ENDBRANCH   1   2
DOCKED: BRANCH   1  12
DOCKED: ATOM     12  C   UNL     1      27.134 -16.249  -1.188 -0.41 -0.00    +0.000 C 
DOCKED: BRANCH  12  13
DOCKED: ATOM     13  C   UNL     1      25.849 -16.613  -0.424 -0.45 -0.00    +0.000 C 
DOCKED: BRANCH  13  14
DOCKED: ATOM     14  C   UNL     1      24.942 -17.623  -1.151 -0.70 -0.00    +0.000 C 
DOCKED: BRANCH  14  15
DOCKED: ATOM     15  C   UNL     1      23.451 -17.417  -0.830 -0.74 -0.00    +0.000 C 
DOCKED: BRANCH  15  16
DOCKED: ATOM     16  C   UNL     1      22.841 -18.618  -0.097 -0.77 -0.00    +0.000 C 
DOCKED: BRANCH  16  18
DOCKED: ATOM     17  O   UNL     1      20.456 -18.612   0.070 -1.34 -0.00    +0.000 OA
DOCKED: ATOM     18  C   UNL     1      21.467 -18.947  -0.604 -0.86 -0.00    +0.000 C 
DOCKED: ATOM     19  N   UNL     1      21.301 -19.660  -1.831 -0.52 -0.00    +0.000 N 
DOCKED: ATOM     20  O   UNL     1      20.062 -19.958  -2.289 -2.19 -0.00    +0.000 OA
DOCKED: ATOM     21  H   UNL     1      22.092 -19.938  -2.348 -0.56 -0.00    +0.000 HD
DOCKED: ENDBRANCH  16  18
DOCKED: ENDBRANCH  15  16
DOCKED: ENDBRANCH  14  15
DOCKED: ENDBRANCH  13  14
DOCKED: ENDBRANCH  12  13
DOCKED: ENDBRANCH   1  12
DOCKED: TORSDOF 8
DOCKED: TER
DOCKED: ENDMDL
________________________________________________________________________________


	BEGINNING GENETIC ALGORITHM DOCKING 78 of 100
Run: 78 Seed: 1004929111 1820314111 [ Run 78 of 100 GA/GALS ]
Beginning LAMARCKIAN GENETIC ALGORITHM (LGA), with a maximum of 2500000 energy evaluations.

Final-Value: -12.453


	FINAL GENETIC ALGORITHM DOCKED STATE
	_______________________________________________


Detailed state:  trans 26.652 -15.461 -0.194 quatxyzw -0.780908 -0.273058 0.091950 -0.554227 center -0.033 -0.045 -0.218 ntor 8 178.3760 -10.5083 180.0000 -17.5391 -112.4341 180.0000 -51.3669 -111.5870
State:	 26.652 -15.461  -0.194  -0.938 -0.328  0.110 -112.685    178.38  -10.51  180.00  -17.54 -112.43  180.00  -51.37 -111.59

DOCKED: MODEL       78
DOCKED: USER    Run = 78
DOCKED: USER    DPF = ligand_dock.biased.dpf
DOCKED: USER  
DOCKED: USER    Estimated Free Energy of Binding    =   -9.23 kcal/mol  [=(1)+(2)+(3)-(4)]
DOCKED: USER    Estimated Inhibition Constant, Ki   =  172.94 nM (nanomolar)  [Temperature = 298.15 K]
DOCKED: USER    
DOCKED: USER    (1) Final Intermolecular Energy     =  -11.61 kcal/mol
DOCKED: USER        vdW + Hbond + desolv Energy     =  -11.61 kcal/mol
DOCKED: USER        Electrostatic Energy            =   +0.00 kcal/mol
DOCKED: USER    (2) Final Total Internal Energy     =   -0.84 kcal/mol
DOCKED: USER    (3) Torsional Free Energy           =   +2.39 kcal/mol
DOCKED: USER    (4) Unbound System's Energy  [=(2)] =   -0.84 kcal/mol
DOCKED: USER    
DOCKED: USER    
DOCKED: USER    NEWDPF move ligand.pdbqt
DOCKED: USER    NEWDPF about -0.033000 -0.045000 -0.218000
DOCKED: USER    NEWDPF tran0 26.651579 -15.460698 -0.194267
DOCKED: USER    NEWDPF quaternion0 -0.780908 -0.273058 0.091950 -0.554227
DOCKED: USER    NEWDPF axisangle0 -0.938179 -0.328050 0.110468 -112.685040
DOCKED: USER    NEWDPF quat0 -0.938179 -0.328050 0.110468 -112.685040
DOCKED: USER    NEWDPF dihe0 178.38 -10.51 180.00 -17.54 -112.43 180.00 -51.37 -111.59 
DOCKED: USER  keepresnum = 1 
DOCKED: USER  
DOCKED: REMARK  Name = 
DOCKED: REMARK  8 active torsions:
DOCKED: REMARK  status: ('A' for Active; 'I' for Inactive)
DOCKED: REMARK    1  A    between atoms: C_2  and  C_5
DOCKED: REMARK    2  A    between atoms: C_5  and  C_6
DOCKED: REMARK    3  A    between atoms: C_6  and  C_7
DOCKED: REMARK    4  A    between atoms: C_7  and  C_8
DOCKED: REMARK    5  A    between atoms: C_8  and  C_9
DOCKED: REMARK    6  A    between atoms: C_9  and  C_10
DOCKED: REMARK    7  A    between atoms: C_10  and  C_11
DOCKED: REMARK    8  A    between atoms: N_12  and  C_13
DOCKED: REMARK                            x       y       z     vdW  Elec       q    Type
DOCKED: REMARK                         _______ _______ _______ _____ _____    ______ ____
DOCKED: USER                              x       y       z     vdW  Elec       q    Type
DOCKED: USER                           _______ _______ _______ _____ _____    ______ ____
DOCKED: ROOT
DOCKED: ATOM      1  C   UNL     1      26.907 -16.195  -1.756 -0.41 -0.00    +0.000 C 
DOCKED: ENDROOT
DOCKED: BRANCH   1   2
DOCKED: ATOM      2  C   UNL     1      25.486 -16.657  -1.892 -0.59 -0.00    +0.000 C 
DOCKED: ATOM      3  N   UNL     1      24.974 -17.666  -1.009 -0.63 -0.00    +0.000 N 
DOCKED: ATOM      4  O   UNL     1      24.756 -16.153  -2.788 -0.47 -0.00    +0.000 OA
DOCKED: ATOM      5  H   UNL     1      25.614 -18.146  -0.436 -0.04 -0.00    +0.000 HD
DOCKED: BRANCH   3   6
DOCKED: ATOM      6  C   UNL     1      23.585 -18.023  -0.910 -0.71 -0.00    +0.000 A 
DOCKED: ATOM      7  C   UNL     1      23.220 -19.374  -0.829 -0.62 -0.00    +0.000 A 
DOCKED: ATOM      8  C   UNL     1      21.876 -19.732  -0.711 -0.38 -0.00    +0.000 A 
DOCKED: ATOM      9  C   UNL     1      20.905 -18.732  -0.655 -0.74 -0.00    +0.000 A 
DOCKED: ATOM     10  N   UNL     1      21.271 -17.425  -0.707 -1.69 -0.00    +0.000 NA
DOCKED: ATOM     11  C   UNL     1      22.573 -17.050  -0.828 -0.48 -0.00    +0.000 A 
DOCKED: ENDBRANCH   3   6
DOCKED: ENDBRANCH   1   2
DOCKED: BRANCH   1  12
DOCKED: ATOM     12  C   UNL     1      26.966 -14.663  -1.699 -0.30 -0.00    +0.000 C 
DOCKED: BRANCH  12  13
DOCKED: ATOM     13  C   UNL     1      26.480 -14.100  -0.351 -0.32 -0.00    +0.000 C 
DOCKED: BRANCH  13  14
DOCKED: ATOM     14  C   UNL     1      27.599 -13.533   0.541 -0.24 -0.00    +0.000 C 
DOCKED: BRANCH  14  15
DOCKED: ATOM     15  C   UNL     1      27.056 -12.825   1.794 -0.32 -0.00    +0.000 C 
DOCKED: BRANCH  15  16
DOCKED: ATOM     16  C   UNL     1      28.131 -12.647   2.875 -0.27 -0.00    +0.000 C 
DOCKED: BRANCH  16  18
DOCKED: ATOM     17  O   UNL     1      27.387 -12.899   5.134 -0.54 +0.00    +0.000 OA
DOCKED: ATOM     18  C   UNL     1      27.835 -13.464   4.100 -0.48 -0.00    +0.000 C 
DOCKED: ATOM     19  N   UNL     1      28.083 -14.872   4.108 -0.56 -0.00    +0.000 N 
DOCKED: ATOM     20  O   UNL     1      27.818 -15.609   5.212 -0.49 -0.00    +0.000 OA
DOCKED: ATOM     21  H   UNL     1      28.450 -15.309   3.305 -1.34 -0.00    +0.000 HD
DOCKED: ENDBRANCH  16  18
DOCKED: ENDBRANCH  15  16
DOCKED: ENDBRANCH  14  15
DOCKED: ENDBRANCH  13  14
DOCKED: ENDBRANCH  12  13
DOCKED: ENDBRANCH   1  12
DOCKED: TORSDOF 8
DOCKED: TER
DOCKED: ENDMDL
________________________________________________________________________________


	BEGINNING GENETIC ALGORITHM DOCKING 79 of 100
Run: 79 Seed: 1782426663 1847198926 [ Run 79 of 100 GA/GALS ]
Beginning LAMARCKIAN GENETIC ALGORITHM (LGA), with a maximum of 2500000 energy evaluations.

Final-Value: -12.594


	FINAL GENETIC ALGORITHM DOCKED STATE
	_______________________________________________


Detailed state:  trans 25.401 -13.708 -0.805 quatxyzw 0.478534 0.315147 -0.713726 -0.402843 center -0.033 -0.045 -0.218 ntor 8 -9.5048 73.6373 -180.0000 173.8161 173.1005 170.2251 -179.9898 76.4887
State:	 25.401 -13.708  -0.805   0.523  0.344 -0.780 -132.488     -9.50   73.64 -180.00  173.82  173.10  170.23 -179.99   76.49

DOCKED: MODEL       79
DOCKED: USER    Run = 79
DOCKED: USER    DPF = ligand_dock.biased.dpf
DOCKED: USER  
DOCKED: USER    Estimated Free Energy of Binding    =   -9.15 kcal/mol  [=(1)+(2)+(3)-(4)]
DOCKED: USER    Estimated Inhibition Constant, Ki   =  197.52 nM (nanomolar)  [Temperature = 298.15 K]
DOCKED: USER    
DOCKED: USER    (1) Final Intermolecular Energy     =  -11.53 kcal/mol
DOCKED: USER        vdW + Hbond + desolv Energy     =  -11.53 kcal/mol
DOCKED: USER        Electrostatic Energy            =   +0.00 kcal/mol
DOCKED: USER    (2) Final Total Internal Energy     =   -1.06 kcal/mol
DOCKED: USER    (3) Torsional Free Energy           =   +2.39 kcal/mol
DOCKED: USER    (4) Unbound System's Energy  [=(2)] =   -1.06 kcal/mol
DOCKED: USER    
DOCKED: USER    
DOCKED: USER    NEWDPF move ligand.pdbqt
DOCKED: USER    NEWDPF about -0.033000 -0.045000 -0.218000
DOCKED: USER    NEWDPF tran0 25.400525 -13.707708 -0.804729
DOCKED: USER    NEWDPF quaternion0 0.478534 0.315147 -0.713726 -0.402843
DOCKED: USER    NEWDPF axisangle0 0.522834 0.344321 -0.779799 -132.487944
DOCKED: USER    NEWDPF quat0 0.522834 0.344321 -0.779799 -132.487944
DOCKED: USER    NEWDPF dihe0 -9.50 73.64 -180.00 173.82 173.10 170.23 -179.99 76.49 
DOCKED: USER  keepresnum = 1 
DOCKED: USER  
DOCKED: REMARK  Name = 
DOCKED: REMARK  8 active torsions:
DOCKED: REMARK  status: ('A' for Active; 'I' for Inactive)
DOCKED: REMARK    1  A    between atoms: C_2  and  C_5
DOCKED: REMARK    2  A    between atoms: C_5  and  C_6
DOCKED: REMARK    3  A    between atoms: C_6  and  C_7
DOCKED: REMARK    4  A    between atoms: C_7  and  C_8
DOCKED: REMARK    5  A    between atoms: C_8  and  C_9
DOCKED: REMARK    6  A    between atoms: C_9  and  C_10
DOCKED: REMARK    7  A    between atoms: C_10  and  C_11
DOCKED: REMARK    8  A    between atoms: N_12  and  C_13
DOCKED: REMARK                            x       y       z     vdW  Elec       q    Type
DOCKED: REMARK                         _______ _______ _______ _____ _____    ______ ____
DOCKED: USER                              x       y       z     vdW  Elec       q    Type
DOCKED: USER                           _______ _______ _______ _____ _____    ______ ____
DOCKED: ROOT
DOCKED: ATOM      1  C   UNL     1      27.030 -14.282  -0.563 -0.28 -0.00    +0.000 C 
DOCKED: ENDROOT
DOCKED: BRANCH   1   2
DOCKED: ATOM      2  C   UNL     1      27.014 -14.034   0.916 -0.29 -0.00    +0.000 C 
DOCKED: ATOM      3  N   UNL     1      28.016 -14.630   1.753 -0.27 -0.00    +0.000 N 
DOCKED: ATOM      4  O   UNL     1      26.110 -13.306   1.410 -0.40 -0.00    +0.000 OA
DOCKED: ATOM      5  H   UNL     1      28.600 -15.315   1.357 -0.86 -0.00    +0.000 HD
DOCKED: BRANCH   3   6
DOCKED: ATOM      6  C   UNL     1      28.221 -14.290   3.135 -0.33 -0.00    +0.000 A 
DOCKED: ATOM      7  C   UNL     1      29.525 -14.157   3.631 -0.29 -0.00    +0.000 A 
DOCKED: ATOM      8  C   UNL     1      29.736 -13.807   4.966 -0.32 -0.00    +0.000 A 
DOCKED: ATOM      9  C   UNL     1      28.637 -13.572   5.792 -0.40 -0.00    +0.000 A 
DOCKED: ATOM     10  N   UNL     1      27.377 -13.676   5.295 -0.50 -0.00    +0.000 NA
DOCKED: ATOM     11  C   UNL     1      27.145 -14.022   4.000 -0.42 -0.00    +0.000 A 
DOCKED: ENDBRANCH   3   6
DOCKED: ENDBRANCH   1   2
DOCKED: BRANCH   1  12
DOCKED: ATOM     12  C   UNL     1      25.979 -15.334  -0.938 -0.42 -0.00    +0.000 C 
DOCKED: BRANCH  12  13
DOCKED: ATOM     13  C   UNL     1      26.578 -16.743  -1.095 -0.50 -0.00    +0.000 C 
DOCKED: BRANCH  13  14
DOCKED: ATOM     14  C   UNL     1      26.415 -17.645   0.143 -0.50 -0.00    +0.000 C 
DOCKED: BRANCH  14  15
DOCKED: ATOM     15  C   UNL     1      25.223 -18.610   0.019 -0.46 -0.00    +0.000 C 
DOCKED: BRANCH  15  16
DOCKED: ATOM     16  C   UNL     1      24.387 -18.345  -1.239 -0.70 -0.00    +0.000 C 
DOCKED: BRANCH  16  18
DOCKED: ATOM     17  O   UNL     1      22.868 -16.705  -0.388 -0.69 -0.00    +0.000 OA
DOCKED: ATOM     18  C   UNL     1      23.010 -17.847  -0.903 -0.79 -0.00    +0.000 C 
DOCKED: ATOM     19  N   UNL     1      21.866 -18.671  -1.138 -0.75 -0.00    +0.000 N 
DOCKED: ATOM     20  O   UNL     1      20.625 -18.224  -0.834 -2.20 -0.00    +0.000 OA
DOCKED: ATOM     21  H   UNL     1      21.981 -19.570  -1.523 -0.19 -0.00    +0.000 HD
DOCKED: ENDBRANCH  16  18
DOCKED: ENDBRANCH  15  16
DOCKED: ENDBRANCH  14  15
DOCKED: ENDBRANCH  13  14
DOCKED: ENDBRANCH  12  13
DOCKED: ENDBRANCH   1  12
DOCKED: TORSDOF 8
DOCKED: TER
DOCKED: ENDMDL
________________________________________________________________________________


	BEGINNING GENETIC ALGORITHM DOCKING 80 of 100
Run: 80 Seed: 1270986257 979110018 [ Run 80 of 100 GA/GALS ]
Beginning LAMARCKIAN GENETIC ALGORITHM (LGA), with a maximum of 2500000 energy evaluations.

Final-Value: -12.486


	FINAL GENETIC ALGORITHM DOCKED STATE
	_______________________________________________


Detailed state:  trans 25.595 -13.815 -2.644 quatxyzw 0.305671 -0.100335 0.941269 -0.102523 center -0.033 -0.045 -0.218 ntor 8 -70.5805 -93.2826 7.6484 -41.1433 179.5294 -14.0660 -83.7931 80.2811
State:	 25.595 -13.815  -2.644   0.307 -0.101  0.946 -168.231    -70.58  -93.28    7.65  -41.14  179.53  -14.07  -83.79   80.28

DOCKED: MODEL       80
DOCKED: USER    Run = 80
DOCKED: USER    DPF = ligand_dock.biased.dpf
DOCKED: USER  
DOCKED: USER    Estimated Free Energy of Binding    =   -9.32 kcal/mol  [=(1)+(2)+(3)-(4)]
DOCKED: USER    Estimated Inhibition Constant, Ki   =  146.18 nM (nanomolar)  [Temperature = 298.15 K]
DOCKED: USER    
DOCKED: USER    (1) Final Intermolecular Energy     =  -11.71 kcal/mol
DOCKED: USER        vdW + Hbond + desolv Energy     =  -11.71 kcal/mol
DOCKED: USER        Electrostatic Energy            =   +0.00 kcal/mol
DOCKED: USER    (2) Final Total Internal Energy     =   -0.77 kcal/mol
DOCKED: USER    (3) Torsional Free Energy           =   +2.39 kcal/mol
DOCKED: USER    (4) Unbound System's Energy  [=(2)] =   -0.77 kcal/mol
DOCKED: USER    
DOCKED: USER    
DOCKED: USER    NEWDPF move ligand.pdbqt
DOCKED: USER    NEWDPF about -0.033000 -0.045000 -0.218000
DOCKED: USER    NEWDPF tran0 25.594703 -13.815259 -2.643989
DOCKED: USER    NEWDPF quaternion0 0.305671 -0.100335 0.941269 -0.102523
DOCKED: USER    NEWDPF axisangle0 0.307290 -0.100866 0.946255 -168.231062
DOCKED: USER    NEWDPF quat0 0.307290 -0.100866 0.946255 -168.231062
DOCKED: USER    NEWDPF dihe0 -70.58 -93.28 7.65 -41.14 179.53 -14.07 -83.79 80.28 
DOCKED: USER  keepresnum = 1 
DOCKED: USER  
DOCKED: REMARK  Name = 
DOCKED: REMARK  8 active torsions:
DOCKED: REMARK  status: ('A' for Active; 'I' for Inactive)
DOCKED: REMARK    1  A    between atoms: C_2  and  C_5
DOCKED: REMARK    2  A    between atoms: C_5  and  C_6
DOCKED: REMARK    3  A    between atoms: C_6  and  C_7
DOCKED: REMARK    4  A    between atoms: C_7  and  C_8
DOCKED: REMARK    5  A    between atoms: C_8  and  C_9
DOCKED: REMARK    6  A    between atoms: C_9  and  C_10
DOCKED: REMARK    7  A    between atoms: C_10  and  C_11
DOCKED: REMARK    8  A    between atoms: N_12  and  C_13
DOCKED: REMARK                            x       y       z     vdW  Elec       q    Type
DOCKED: REMARK                         _______ _______ _______ _____ _____    ______ ____
DOCKED: USER                              x       y       z     vdW  Elec       q    Type
DOCKED: USER                           _______ _______ _______ _____ _____    ______ ____
DOCKED: ROOT
DOCKED: ATOM      1  C   UNL     1      25.425 -15.454  -3.218 -0.52 -0.00    +0.000 C 
DOCKED: ENDROOT
DOCKED: BRANCH   1   2
DOCKED: ATOM      2  C   UNL     1      26.803 -15.504  -3.809 -0.45 -0.00    +0.000 C 
DOCKED: ATOM      3  N   UNL     1      26.986 -15.293  -5.218 -0.50 +0.00    +0.000 N 
DOCKED: ATOM      4  O   UNL     1      27.789 -15.737  -3.059 -0.31 -0.00    +0.000 OA
DOCKED: ATOM      5  H   UNL     1      26.185 -15.277  -5.789 -0.07 +0.00    +0.000 HD
DOCKED: BRANCH   3   6
DOCKED: ATOM      6  C   UNL     1      28.265 -15.107  -5.847 -0.36 -0.00    +0.000 A 
DOCKED: ATOM      7  C   UNL     1      29.275 -16.060  -5.659 -0.31 -0.00    +0.000 A 
DOCKED: ATOM      8  C   UNL     1      30.514 -15.901  -6.282 -0.26 -0.00    +0.000 A 
DOCKED: ATOM      9  C   UNL     1      30.727 -14.796  -7.107 -0.22 -0.00    +0.000 A 
DOCKED: ATOM     10  N   UNL     1      29.732 -13.893  -7.305 -0.26 -0.00    +0.000 NA
DOCKED: ATOM     11  C   UNL     1      28.518 -14.022  -6.704 -0.30 -0.00    +0.000 A 
DOCKED: ENDBRANCH   3   6
DOCKED: ENDBRANCH   1   2
DOCKED: BRANCH   1  12
DOCKED: ATOM     12  C   UNL     1      25.506 -15.263  -1.698 -0.42 -0.00    +0.000 C 
DOCKED: BRANCH  12  13
DOCKED: ATOM     13  C   UNL     1      25.454 -16.594  -0.928 -0.56 -0.00    +0.000 C 
DOCKED: BRANCH  13  14
DOCKED: ATOM     14  C   UNL     1      24.031 -17.101  -0.629 -0.64 -0.00    +0.000 C 
DOCKED: BRANCH  14  15
DOCKED: ATOM     15  C   UNL     1      23.617 -18.273  -1.535 -0.74 -0.00    +0.000 C 
DOCKED: BRANCH  15  16
DOCKED: ATOM     16  C   UNL     1      22.857 -19.363  -0.767 -0.74 -0.00    +0.000 C 
DOCKED: BRANCH  16  18
DOCKED: ATOM     17  O   UNL     1      21.001 -17.862  -0.903 -2.11 -0.00    +0.000 OA
DOCKED: ATOM     18  C   UNL     1      21.455 -18.941  -0.436 -0.85 -0.00    +0.000 C 
DOCKED: ATOM     19  N   UNL     1      20.644 -19.743   0.426 -0.70 -0.00    +0.000 N 
DOCKED: ATOM     20  O   UNL     1      19.379 -19.362   0.726 -0.80 -0.00    +0.000 OA
DOCKED: ATOM     21  H   UNL     1      21.006 -20.576   0.804 -0.59 -0.00    +0.000 HD
DOCKED: ENDBRANCH  16  18
DOCKED: ENDBRANCH  15  16
DOCKED: ENDBRANCH  14  15
DOCKED: ENDBRANCH  13  14
DOCKED: ENDBRANCH  12  13
DOCKED: ENDBRANCH   1  12
DOCKED: TORSDOF 8
DOCKED: TER
DOCKED: ENDMDL
________________________________________________________________________________


	BEGINNING GENETIC ALGORITHM DOCKING 81 of 100
Run: 81 Seed: 116951102 530121647 [ Run 81 of 100 GA/GALS ]
Beginning LAMARCKIAN GENETIC ALGORITHM (LGA), with a maximum of 2500000 energy evaluations.

Final-Value: -14.661


	FINAL GENETIC ALGORITHM DOCKED STATE
	_______________________________________________


Detailed state:  trans 26.304 -15.339 -1.194 quatxyzw -0.397450 -0.200423 0.658680 0.606634 center -0.033 -0.045 -0.218 ntor 8 -172.4537 -180.0000 53.2011 -122.9596 -175.4787 173.0417 159.4582 -135.6475
State:	 26.304 -15.339  -1.194  -0.500 -0.252  0.829 105.307   -172.45 -180.00   53.20 -122.96 -175.48  173.04  159.46 -135.65

DOCKED: MODEL       81
DOCKED: USER    Run = 81
DOCKED: USER    DPF = ligand_dock.biased.dpf
DOCKED: USER  
DOCKED: USER    Estimated Free Energy of Binding    =  -11.46 kcal/mol  [=(1)+(2)+(3)-(4)]
DOCKED: USER    Estimated Inhibition Constant, Ki   =    4.00 nM (nanomolar)  [Temperature = 298.15 K]
DOCKED: USER    
DOCKED: USER    (1) Final Intermolecular Energy     =  -13.84 kcal/mol
DOCKED: USER        vdW + Hbond + desolv Energy     =  -13.84 kcal/mol
DOCKED: USER        Electrostatic Energy            =   +0.00 kcal/mol
DOCKED: USER    (2) Final Total Internal Energy     =   -0.82 kcal/mol
DOCKED: USER    (3) Torsional Free Energy           =   +2.39 kcal/mol
DOCKED: USER    (4) Unbound System's Energy  [=(2)] =   -0.82 kcal/mol
DOCKED: USER    
DOCKED: USER    
DOCKED: USER    NEWDPF move ligand.pdbqt
DOCKED: USER    NEWDPF about -0.033000 -0.045000 -0.218000
DOCKED: USER    NEWDPF tran0 26.303620 -15.339395 -1.194213
DOCKED: USER    NEWDPF quaternion0 -0.397450 -0.200423 0.658680 0.606634
DOCKED: USER    NEWDPF axisangle0 -0.499949 -0.252111 0.828548 105.307032
DOCKED: USER    NEWDPF quat0 -0.499949 -0.252111 0.828548 105.307032
DOCKED: USER    NEWDPF dihe0 -172.45 -180.00 53.20 -122.96 -175.48 173.04 159.46 -135.65 
DOCKED: USER  keepresnum = 1 
DOCKED: USER  
DOCKED: REMARK  Name = 
DOCKED: REMARK  8 active torsions:
DOCKED: REMARK  status: ('A' for Active; 'I' for Inactive)
DOCKED: REMARK    1  A    between atoms: C_2  and  C_5
DOCKED: REMARK    2  A    between atoms: C_5  and  C_6
DOCKED: REMARK    3  A    between atoms: C_6  and  C_7
DOCKED: REMARK    4  A    between atoms: C_7  and  C_8
DOCKED: REMARK    5  A    between atoms: C_8  and  C_9
DOCKED: REMARK    6  A    between atoms: C_9  and  C_10
DOCKED: REMARK    7  A    between atoms: C_10  and  C_11
DOCKED: REMARK    8  A    between atoms: N_12  and  C_13
DOCKED: REMARK                            x       y       z     vdW  Elec       q    Type
DOCKED: REMARK                         _______ _______ _______ _____ _____    ______ ____
DOCKED: USER                              x       y       z     vdW  Elec       q    Type
DOCKED: USER                           _______ _______ _______ _____ _____    ______ ____
DOCKED: ROOT
DOCKED: ATOM      1  C   UNL     1      27.937 -15.276  -0.584 -0.27 -0.00    +0.000 C 
DOCKED: ENDROOT
DOCKED: BRANCH   1   2
DOCKED: ATOM      2  C   UNL     1      27.557 -14.536   0.664 -0.29 -0.00    +0.000 C 
DOCKED: ATOM      3  N   UNL     1      28.236 -14.816   1.898 -0.18 -0.00    +0.000 N 
DOCKED: ATOM      4  O   UNL     1      26.635 -13.676   0.616 -0.36 -0.00    +0.000 OA
DOCKED: ATOM      5  H   UNL     1      28.830 -15.600   1.929 -1.51 -0.00    +0.000 HD
DOCKED: BRANCH   3   6
DOCKED: ATOM      6  C   UNL     1      28.103 -14.024   3.091 -0.34 -0.00    +0.000 A 
DOCKED: ATOM      7  C   UNL     1      27.883 -12.644   2.986 -0.26 -0.00    +0.000 A 
DOCKED: ATOM      8  C   UNL     1      27.731 -11.869   4.137 -0.28 +0.00    +0.000 A 
DOCKED: ATOM      9  C   UNL     1      27.782 -12.485   5.387 -0.39 +0.00    +0.000 A 
DOCKED: ATOM     10  N   UNL     1      27.968 -13.828   5.477 -0.47 -0.00    +0.000 NA
DOCKED: ATOM     11  C   UNL     1      28.125 -14.605   4.371 -0.52 -0.00    +0.000 A 
DOCKED: ENDBRANCH   3   6
DOCKED: ENDBRANCH   1   2
DOCKED: BRANCH   1  12
DOCKED: ATOM     12  C   UNL     1      27.265 -16.655  -0.610 -0.44 -0.00    +0.000 C 
DOCKED: BRANCH  12  13
DOCKED: ATOM     13  C   UNL     1      25.755 -16.586  -0.325 -0.38 -0.00    +0.000 C 
DOCKED: BRANCH  13  14
DOCKED: ATOM     14  C   UNL     1      24.866 -16.675  -1.579 -0.63 -0.00    +0.000 C 
DOCKED: BRANCH  14  15
DOCKED: ATOM     15  C   UNL     1      24.094 -18.003  -1.665 -0.68 -0.00    +0.000 C 
DOCKED: BRANCH  15  16
DOCKED: ATOM     16  C   UNL     1      23.221 -18.250  -0.427 -0.82 -0.00    +0.000 C 
DOCKED: BRANCH  16  18
DOCKED: ATOM     17  O   UNL     1      21.022 -17.354  -0.709 -1.96 +0.00    +0.000 OA
DOCKED: ATOM     18  C   UNL     1      21.767 -18.368  -0.782 -0.84 -0.00    +0.000 C 
DOCKED: ATOM     19  N   UNL     1      21.219 -19.629  -1.175 -0.73 -0.00    +0.000 N 
DOCKED: ATOM     20  O   UNL     1      19.907 -19.737  -1.494 -2.28 -0.00    +0.000 OA
DOCKED: ATOM     21  H   UNL     1      21.798 -20.424  -1.215 -0.22 -0.00    +0.000 HD
DOCKED: ENDBRANCH  16  18
DOCKED: ENDBRANCH  15  16
DOCKED: ENDBRANCH  14  15
DOCKED: ENDBRANCH  13  14
DOCKED: ENDBRANCH  12  13
DOCKED: ENDBRANCH   1  12
DOCKED: TORSDOF 8
DOCKED: TER
DOCKED: ENDMDL
________________________________________________________________________________


	BEGINNING GENETIC ALGORITHM DOCKING 82 of 100
Run: 82 Seed: 609577192 35559570 [ Run 82 of 100 GA/GALS ]
Beginning LAMARCKIAN GENETIC ALGORITHM (LGA), with a maximum of 2500000 energy evaluations.

Final-Value: -13.803


	FINAL GENETIC ALGORITHM DOCKED STATE
	_______________________________________________


Detailed state:  trans 25.913 -15.215 -0.368 quatxyzw -0.320391 -0.318901 0.627461 0.633991 center -0.033 -0.045 -0.218 ntor 8 38.2819 -180.0000 150.0962 -65.8668 -149.9311 -147.0902 153.2195 -101.3392
State:	 25.913 -15.215  -0.368  -0.414 -0.412  0.811 101.310     38.28 -180.00  150.10  -65.87 -149.93 -147.09  153.22 -101.34

DOCKED: MODEL       82
DOCKED: USER    Run = 82
DOCKED: USER    DPF = ligand_dock.biased.dpf
DOCKED: USER  
DOCKED: USER    Estimated Free Energy of Binding    =  -10.71 kcal/mol  [=(1)+(2)+(3)-(4)]
DOCKED: USER    Estimated Inhibition Constant, Ki   =   14.14 nM (nanomolar)  [Temperature = 298.15 K]
DOCKED: USER    
DOCKED: USER    (1) Final Intermolecular Energy     =  -13.09 kcal/mol
DOCKED: USER        vdW + Hbond + desolv Energy     =  -13.09 kcal/mol
DOCKED: USER        Electrostatic Energy            =   +0.00 kcal/mol
DOCKED: USER    (2) Final Total Internal Energy     =   -0.71 kcal/mol
DOCKED: USER    (3) Torsional Free Energy           =   +2.39 kcal/mol
DOCKED: USER    (4) Unbound System's Energy  [=(2)] =   -0.71 kcal/mol
DOCKED: USER    
DOCKED: USER    
DOCKED: USER    NEWDPF move ligand.pdbqt
DOCKED: USER    NEWDPF about -0.033000 -0.045000 -0.218000
DOCKED: USER    NEWDPF tran0 25.913203 -15.214722 -0.367545
DOCKED: USER    NEWDPF quaternion0 -0.320391 -0.318901 0.627461 0.633991
DOCKED: USER    NEWDPF axisangle0 -0.414295 -0.412368 0.811365 101.309665
DOCKED: USER    NEWDPF quat0 -0.414295 -0.412368 0.811365 101.309665
DOCKED: USER    NEWDPF dihe0 38.28 -180.00 150.10 -65.87 -149.93 -147.09 153.22 -101.34 
DOCKED: USER  keepresnum = 1 
DOCKED: USER  
DOCKED: REMARK  Name = 
DOCKED: REMARK  8 active torsions:
DOCKED: REMARK  status: ('A' for Active; 'I' for Inactive)
DOCKED: REMARK    1  A    between atoms: C_2  and  C_5
DOCKED: REMARK    2  A    between atoms: C_5  and  C_6
DOCKED: REMARK    3  A    between atoms: C_6  and  C_7
DOCKED: REMARK    4  A    between atoms: C_7  and  C_8
DOCKED: REMARK    5  A    between atoms: C_8  and  C_9
DOCKED: REMARK    6  A    between atoms: C_9  and  C_10
DOCKED: REMARK    7  A    between atoms: C_10  and  C_11
DOCKED: REMARK    8  A    between atoms: N_12  and  C_13
DOCKED: REMARK                            x       y       z     vdW  Elec       q    Type
DOCKED: REMARK                         _______ _______ _______ _____ _____    ______ ____
DOCKED: USER                              x       y       z     vdW  Elec       q    Type
DOCKED: USER                           _______ _______ _______ _____ _____    ______ ____
DOCKED: ROOT
DOCKED: ATOM      1  C   UNL     1      27.596 -14.841  -0.096 -0.28 -0.00    +0.000 C 
DOCKED: ENDROOT
DOCKED: BRANCH   1   2
DOCKED: ATOM      2  C   UNL     1      27.355 -14.234   1.254 -0.28 -0.00    +0.000 C 
DOCKED: ATOM      3  N   UNL     1      28.252 -14.520   2.338 -0.27 -0.00    +0.000 N 
DOCKED: ATOM      4  O   UNL     1      26.359 -13.480   1.423 -0.36 -0.00    +0.000 OA
DOCKED: ATOM      5  H   UNL     1      28.917 -15.234   2.210 -1.83 -0.00    +0.000 HD
DOCKED: BRANCH   3   6
DOCKED: ATOM      6  C   UNL     1      28.240 -13.830   3.599 -0.37 -0.00    +0.000 A 
DOCKED: ATOM      7  C   UNL     1      27.872 -12.479   3.647 -0.29 -0.00    +0.000 A 
DOCKED: ATOM      8  C   UNL     1      27.836 -11.805   4.869 -0.33 +0.00    +0.000 A 
DOCKED: ATOM      9  C   UNL     1      28.151 -12.494   6.039 -0.40 +0.00    +0.000 A 
DOCKED: ATOM     10  N   UNL     1      28.481 -13.812   5.985 -0.43 -0.00    +0.000 NA
DOCKED: ATOM     11  C   UNL     1      28.530 -14.490   4.807 -0.49 -0.00    +0.000 A 
DOCKED: ENDBRANCH   3   6
DOCKED: ENDBRANCH   1   2
DOCKED: BRANCH   1  12
DOCKED: ATOM     12  C   UNL     1      27.211 -16.327  -0.088 -0.40 -0.00    +0.000 C 
DOCKED: BRANCH  12  13
DOCKED: ATOM     13  C   UNL     1      25.707 -16.552  -0.330 -0.36 -0.00    +0.000 C 
DOCKED: BRANCH  13  14
DOCKED: ATOM     14  C   UNL     1      25.382 -17.762  -1.225 -0.63 -0.00    +0.000 C 
DOCKED: BRANCH  14  15
DOCKED: ATOM     15  C   UNL     1      24.229 -18.615  -0.671 -0.77 -0.00    +0.000 C 
DOCKED: BRANCH  15  16
DOCKED: ATOM     16  C   UNL     1      22.990 -18.578  -1.575 -0.65 -0.00    +0.000 C 
DOCKED: BRANCH  16  18
DOCKED: ATOM     17  O   UNL     1      20.943 -17.594  -0.829 -2.07 -0.00    +0.000 OA
DOCKED: ATOM     18  C   UNL     1      21.715 -18.588  -0.782 -0.85 -0.00    +0.000 C 
DOCKED: ATOM     19  N   UNL     1      21.389 -19.707   0.047 -0.62 -0.00    +0.000 N 
DOCKED: ATOM     20  O   UNL     1      20.240 -19.716   0.764 -0.82 -0.00    +0.000 OA
DOCKED: ATOM     21  H   UNL     1      22.002 -20.475   0.097 -0.58 -0.00    +0.000 HD
DOCKED: ENDBRANCH  16  18
DOCKED: ENDBRANCH  15  16
DOCKED: ENDBRANCH  14  15
DOCKED: ENDBRANCH  13  14
DOCKED: ENDBRANCH  12  13
DOCKED: ENDBRANCH   1  12
DOCKED: TORSDOF 8
DOCKED: TER
DOCKED: ENDMDL
________________________________________________________________________________


	BEGINNING GENETIC ALGORITHM DOCKING 83 of 100
Run: 83 Seed: 326842291 1381373299 [ Run 83 of 100 GA/GALS ]
Beginning LAMARCKIAN GENETIC ALGORITHM (LGA), with a maximum of 2500000 energy evaluations.

Final-Value: -13.294


	FINAL GENETIC ALGORITHM DOCKED STATE
	_______________________________________________


Detailed state:  trans 26.414 -16.699 -1.871 quatxyzw -0.073638 0.882972 -0.196983 0.419685 center -0.033 -0.045 -0.218 ntor 8 -172.3467 91.1180 129.2500 58.9216 -175.1741 -160.5833 -55.8603 -103.9895
State:	 26.414 -16.699  -1.871  -0.081  0.973 -0.217 130.371   -172.35   91.12  129.25   58.92 -175.17 -160.58  -55.86 -103.99

DOCKED: MODEL       83
DOCKED: USER    Run = 83
DOCKED: USER    DPF = ligand_dock.biased.dpf
DOCKED: USER  
DOCKED: USER    Estimated Free Energy of Binding    =  -10.17 kcal/mol  [=(1)+(2)+(3)-(4)]
DOCKED: USER    Estimated Inhibition Constant, Ki   =   35.16 nM (nanomolar)  [Temperature = 298.15 K]
DOCKED: USER    
DOCKED: USER    (1) Final Intermolecular Energy     =  -12.56 kcal/mol
DOCKED: USER        vdW + Hbond + desolv Energy     =  -12.56 kcal/mol
DOCKED: USER        Electrostatic Energy            =   +0.00 kcal/mol
DOCKED: USER    (2) Final Total Internal Energy     =   -0.74 kcal/mol
DOCKED: USER    (3) Torsional Free Energy           =   +2.39 kcal/mol
DOCKED: USER    (4) Unbound System's Energy  [=(2)] =   -0.74 kcal/mol
DOCKED: USER    
DOCKED: USER    
DOCKED: USER    NEWDPF move ligand.pdbqt
DOCKED: USER    NEWDPF about -0.033000 -0.045000 -0.218000
DOCKED: USER    NEWDPF tran0 26.414428 -16.699187 -1.871491
DOCKED: USER    NEWDPF quaternion0 -0.073638 0.882972 -0.196983 0.419685
DOCKED: USER    NEWDPF axisangle0 -0.081129 0.972790 -0.217020 130.370555
DOCKED: USER    NEWDPF quat0 -0.081129 0.972790 -0.217020 130.370555
DOCKED: USER    NEWDPF dihe0 -172.35 91.12 129.25 58.92 -175.17 -160.58 -55.86 -103.99 
DOCKED: USER  keepresnum = 1 
DOCKED: USER  
DOCKED: REMARK  Name = 
DOCKED: REMARK  8 active torsions:
DOCKED: REMARK  status: ('A' for Active; 'I' for Inactive)
DOCKED: REMARK    1  A    between atoms: C_2  and  C_5
DOCKED: REMARK    2  A    between atoms: C_5  and  C_6
DOCKED: REMARK    3  A    between atoms: C_6  and  C_7
DOCKED: REMARK    4  A    between atoms: C_7  and  C_8
DOCKED: REMARK    5  A    between atoms: C_8  and  C_9
DOCKED: REMARK    6  A    between atoms: C_9  and  C_10
DOCKED: REMARK    7  A    between atoms: C_10  and  C_11
DOCKED: REMARK    8  A    between atoms: N_12  and  C_13
DOCKED: REMARK                            x       y       z     vdW  Elec       q    Type
DOCKED: REMARK                         _______ _______ _______ _____ _____    ______ ____
DOCKED: USER                              x       y       z     vdW  Elec       q    Type
DOCKED: USER                           _______ _______ _______ _____ _____    ______ ____
DOCKED: ROOT
DOCKED: ATOM      1  C   UNL     1      26.284 -15.120  -2.602 -0.43 -0.00    +0.000 C 
DOCKED: ENDROOT
DOCKED: BRANCH   1   2
DOCKED: ATOM      2  C   UNL     1      27.055 -15.505  -3.830 -0.41 -0.00    +0.000 C 
DOCKED: ATOM      3  N   UNL     1      28.470 -15.734  -3.743 -0.27 -0.00    +0.000 N 
DOCKED: ATOM      4  O   UNL     1      26.450 -15.619  -4.930 -1.02 +0.00    +0.000 OA
DOCKED: ATOM      5  H   UNL     1      28.928 -15.479  -2.911 +0.00 -0.00    +0.000 HD
DOCKED: BRANCH   3   6
DOCKED: ATOM      6  C   UNL     1      29.261 -16.310  -4.797 -0.28 -0.00    +0.000 A 
DOCKED: ATOM      7  C   UNL     1      29.979 -17.490  -4.559 -0.24 -0.00    +0.000 A 
DOCKED: ATOM      8  C   UNL     1      30.733 -18.070  -5.581 -0.28 -0.00    +0.000 A 
DOCKED: ATOM      9  C   UNL     1      30.748 -17.475  -6.842 -0.31 -0.00    +0.000 A 
DOCKED: ATOM     10  N   UNL     1      30.026 -16.346  -7.070 -0.31 -0.00    +0.000 NA
DOCKED: ATOM     11  C   UNL     1      29.288 -15.757  -6.090 -0.31 -0.00    +0.000 A 
DOCKED: ENDBRANCH   3   6
DOCKED: ENDBRANCH   1   2
DOCKED: BRANCH   1  12
DOCKED: ATOM     12  C   UNL     1      24.992 -15.943  -2.506 -0.43 -0.00    +0.000 C 
DOCKED: BRANCH  12  13
DOCKED: ATOM     13  C   UNL     1      25.223 -17.344  -1.912 -0.59 -0.00    +0.000 C 
DOCKED: BRANCH  13  14
DOCKED: ATOM     14  C   UNL     1      24.309 -17.689  -0.723 -0.75 -0.00    +0.000 C 
DOCKED: BRANCH  14  15
DOCKED: ATOM     15  C   UNL     1      23.265 -18.765  -1.070 -0.81 -0.00    +0.000 C 
DOCKED: BRANCH  15  16
DOCKED: ATOM     16  C   UNL     1      21.828 -18.270  -0.864 -0.81 -0.00    +0.000 C 
DOCKED: BRANCH  16  18
DOCKED: ATOM     17  O   UNL     1      20.239 -19.735  -1.887 -2.37 -0.00    +0.000 OA
DOCKED: ATOM     18  C   UNL     1      20.843 -19.403  -0.832 -0.88 -0.00    +0.000 C 
DOCKED: ATOM     19  N   UNL     1      20.569 -20.088   0.392 -0.69 -0.00    +0.000 N 
DOCKED: ATOM     20  O   UNL     1      19.681 -21.110   0.422 -0.88 -0.00    +0.000 OA
DOCKED: ATOM     21  H   UNL     1      21.029 -19.816   1.219 -0.50 -0.00    +0.000 HD
DOCKED: ENDBRANCH  16  18
DOCKED: ENDBRANCH  15  16
DOCKED: ENDBRANCH  14  15
DOCKED: ENDBRANCH  13  14
DOCKED: ENDBRANCH  12  13
DOCKED: ENDBRANCH   1  12
DOCKED: TORSDOF 8
DOCKED: TER
DOCKED: ENDMDL
________________________________________________________________________________


	BEGINNING GENETIC ALGORITHM DOCKING 84 of 100
Run: 84 Seed: 621439214 1738842098 [ Run 84 of 100 GA/GALS ]
Beginning LAMARCKIAN GENETIC ALGORITHM (LGA), with a maximum of 2500000 energy evaluations.

Final-Value: -13.323


	FINAL GENETIC ALGORITHM DOCKED STATE
	_______________________________________________


Detailed state:  trans 26.917 -14.510 -2.197 quatxyzw 0.466736 -0.414897 0.740774 -0.247531 center -0.033 -0.045 -0.218 ntor 8 -28.9717 93.0920 143.8333 -29.3273 -92.0171 -176.4292 48.3551 13.2538
State:	 26.917 -14.510  -2.197   0.482 -0.428  0.765 -151.337    -28.97   93.09  143.83  -29.33  -92.02 -176.43   48.36   13.25

DOCKED: MODEL       84
DOCKED: USER    Run = 84
DOCKED: USER    DPF = ligand_dock.biased.dpf
DOCKED: USER  
DOCKED: USER    Estimated Free Energy of Binding    =  -10.23 kcal/mol  [=(1)+(2)+(3)-(4)]
DOCKED: USER    Estimated Inhibition Constant, Ki   =   31.94 nM (nanomolar)  [Temperature = 298.15 K]
DOCKED: USER    
DOCKED: USER    (1) Final Intermolecular Energy     =  -12.61 kcal/mol
DOCKED: USER        vdW + Hbond + desolv Energy     =  -12.61 kcal/mol
DOCKED: USER        Electrostatic Energy            =   +0.00 kcal/mol
DOCKED: USER    (2) Final Total Internal Energy     =   -0.71 kcal/mol
DOCKED: USER    (3) Torsional Free Energy           =   +2.39 kcal/mol
DOCKED: USER    (4) Unbound System's Energy  [=(2)] =   -0.71 kcal/mol
DOCKED: USER    
DOCKED: USER    
DOCKED: USER    NEWDPF move ligand.pdbqt
DOCKED: USER    NEWDPF about -0.033000 -0.045000 -0.218000
DOCKED: USER    NEWDPF tran0 26.916983 -14.510490 -2.196783
DOCKED: USER    NEWDPF quaternion0 0.466736 -0.414897 0.740774 -0.247531
DOCKED: USER    NEWDPF axisangle0 0.481728 -0.428223 0.764567 -151.337135
DOCKED: USER    NEWDPF quat0 0.481728 -0.428223 0.764567 -151.337135
DOCKED: USER    NEWDPF dihe0 -28.97 93.09 143.83 -29.33 -92.02 -176.43 48.36 13.25 
DOCKED: USER  keepresnum = 1 
DOCKED: USER  
DOCKED: REMARK  Name = 
DOCKED: REMARK  8 active torsions:
DOCKED: REMARK  status: ('A' for Active; 'I' for Inactive)
DOCKED: REMARK    1  A    between atoms: C_2  and  C_5
DOCKED: REMARK    2  A    between atoms: C_5  and  C_6
DOCKED: REMARK    3  A    between atoms: C_6  and  C_7
DOCKED: REMARK    4  A    between atoms: C_7  and  C_8
DOCKED: REMARK    5  A    between atoms: C_8  and  C_9
DOCKED: REMARK    6  A    between atoms: C_9  and  C_10
DOCKED: REMARK    7  A    between atoms: C_10  and  C_11
DOCKED: REMARK    8  A    between atoms: N_12  and  C_13
DOCKED: REMARK                            x       y       z     vdW  Elec       q    Type
DOCKED: REMARK                         _______ _______ _______ _____ _____    ______ ____
DOCKED: USER                              x       y       z     vdW  Elec       q    Type
DOCKED: USER                           _______ _______ _______ _____ _____    ______ ____
DOCKED: ROOT
DOCKED: ATOM      1  C   UNL     1      25.766 -15.285  -3.254 -0.55 -0.00    +0.000 C 
DOCKED: ENDROOT
DOCKED: BRANCH   1   2
DOCKED: ATOM      2  C   UNL     1      26.728 -15.394  -4.400 -0.49 -0.00    +0.000 C 
DOCKED: ATOM      3  N   UNL     1      28.126 -15.595  -4.143 -0.32 -0.00    +0.000 N 
DOCKED: ATOM      4  O   UNL     1      26.296 -15.303  -5.581 -1.09 +0.00    +0.000 OA
DOCKED: ATOM      5  H   UNL     1      28.444 -15.499  -3.217 -0.00 -0.00    +0.000 HD
DOCKED: BRANCH   3   6
DOCKED: ATOM      6  C   UNL     1      29.093 -15.925  -5.154 -0.30 -0.00    +0.000 A 
DOCKED: ATOM      7  C   UNL     1      29.808 -17.127  -5.064 -0.26 -0.00    +0.000 A 
DOCKED: ATOM      8  C   UNL     1      30.734 -17.469  -6.051 -0.28 -0.00    +0.000 A 
DOCKED: ATOM      9  C   UNL     1      30.926 -16.611  -7.134 -0.28 -0.00    +0.000 A 
DOCKED: ATOM     10  N   UNL     1      30.208 -15.461  -7.227 -0.30 -0.00    +0.000 NA
DOCKED: ATOM     11  C   UNL     1      29.304 -15.102  -6.275 -0.33 -0.00    +0.000 A 
DOCKED: ENDBRANCH   3   6
DOCKED: ENDBRANCH   1   2
DOCKED: BRANCH   1  12
DOCKED: ATOM     12  C   UNL     1      26.265 -16.109  -2.059 -0.48 -0.00    +0.000 C 
DOCKED: BRANCH  12  13
DOCKED: ATOM     13  C   UNL     1      25.151 -16.418  -1.044 -0.57 -0.00    +0.000 C 
DOCKED: BRANCH  13  14
DOCKED: ATOM     14  C   UNL     1      24.748 -17.903  -0.976 -0.73 -0.00    +0.000 C 
DOCKED: BRANCH  14  15
DOCKED: ATOM     15  C   UNL     1      23.434 -18.125  -0.207 -0.77 -0.00    +0.000 C 
DOCKED: BRANCH  15  16
DOCKED: ATOM     16  C   UNL     1      22.667 -19.357  -0.707 -0.75 -0.00    +0.000 C 
DOCKED: BRANCH  16  18
DOCKED: ATOM     17  O   UNL     1      20.622 -18.140  -0.943 -2.19 -0.00    +0.000 OA
DOCKED: ATOM     18  C   UNL     1      21.183 -19.197  -0.546 -0.86 -0.00    +0.000 C 
DOCKED: ATOM     19  N   UNL     1      20.409 -20.223   0.078 -0.71 -0.00    +0.000 N 
DOCKED: ATOM     20  O   UNL     1      19.070 -20.080   0.224 -1.00 -0.00    +0.000 OA
DOCKED: ATOM     21  H   UNL     1      20.851 -21.041   0.403 -0.34 -0.00    +0.000 HD
DOCKED: ENDBRANCH  16  18
DOCKED: ENDBRANCH  15  16
DOCKED: ENDBRANCH  14  15
DOCKED: ENDBRANCH  13  14
DOCKED: ENDBRANCH  12  13
DOCKED: ENDBRANCH   1  12
DOCKED: TORSDOF 8
DOCKED: TER
DOCKED: ENDMDL
________________________________________________________________________________


	BEGINNING GENETIC ALGORITHM DOCKING 85 of 100
Run: 85 Seed: 346513640 601357026 [ Run 85 of 100 GA/GALS ]
Beginning LAMARCKIAN GENETIC ALGORITHM (LGA), with a maximum of 2500000 energy evaluations.

Final-Value: -13.506


	FINAL GENETIC ALGORITHM DOCKED STATE
	_______________________________________________


Detailed state:  trans 26.473 -12.758 -0.387 quatxyzw -0.491255 -0.106409 0.832872 0.231666 center -0.033 -0.045 -0.218 ntor 8 -116.3147 144.1899 98.2986 8.3468 -170.5534 -171.1821 174.4952 20.6739
State:	 26.473 -12.758  -0.387  -0.505 -0.109  0.856 153.210   -116.31  144.19   98.30    8.35 -170.55 -171.18  174.50   20.67

DOCKED: MODEL       85
DOCKED: USER    Run = 85
DOCKED: USER    DPF = ligand_dock.biased.dpf
DOCKED: USER  
DOCKED: USER    Estimated Free Energy of Binding    =  -10.44 kcal/mol  [=(1)+(2)+(3)-(4)]
DOCKED: USER    Estimated Inhibition Constant, Ki   =   22.23 nM (nanomolar)  [Temperature = 298.15 K]
DOCKED: USER    
DOCKED: USER    (1) Final Intermolecular Energy     =  -12.83 kcal/mol
DOCKED: USER        vdW + Hbond + desolv Energy     =  -12.83 kcal/mol
DOCKED: USER        Electrostatic Energy            =   +0.00 kcal/mol
DOCKED: USER    (2) Final Total Internal Energy     =   -0.68 kcal/mol
DOCKED: USER    (3) Torsional Free Energy           =   +2.39 kcal/mol
DOCKED: USER    (4) Unbound System's Energy  [=(2)] =   -0.68 kcal/mol
DOCKED: USER    
DOCKED: USER    
DOCKED: USER    NEWDPF move ligand.pdbqt
DOCKED: USER    NEWDPF about -0.033000 -0.045000 -0.218000
DOCKED: USER    NEWDPF tran0 26.472717 -12.758454 -0.386652
DOCKED: USER    NEWDPF quaternion0 -0.491255 -0.106409 0.832872 0.231666
DOCKED: USER    NEWDPF axisangle0 -0.504994 -0.109385 0.856164 153.209597
DOCKED: USER    NEWDPF quat0 -0.504994 -0.109385 0.856164 153.209597
DOCKED: USER    NEWDPF dihe0 -116.31 144.19 98.30 8.35 -170.55 -171.18 174.50 20.67 
DOCKED: USER  keepresnum = 1 
DOCKED: USER  
DOCKED: REMARK  Name = 
DOCKED: REMARK  8 active torsions:
DOCKED: REMARK  status: ('A' for Active; 'I' for Inactive)
DOCKED: REMARK    1  A    between atoms: C_2  and  C_5
DOCKED: REMARK    2  A    between atoms: C_5  and  C_6
DOCKED: REMARK    3  A    between atoms: C_6  and  C_7
DOCKED: REMARK    4  A    between atoms: C_7  and  C_8
DOCKED: REMARK    5  A    between atoms: C_8  and  C_9
DOCKED: REMARK    6  A    between atoms: C_9  and  C_10
DOCKED: REMARK    7  A    between atoms: C_10  and  C_11
DOCKED: REMARK    8  A    between atoms: N_12  and  C_13
DOCKED: REMARK                            x       y       z     vdW  Elec       q    Type
DOCKED: REMARK                         _______ _______ _______ _____ _____    ______ ____
DOCKED: USER                              x       y       z     vdW  Elec       q    Type
DOCKED: USER                           _______ _______ _______ _____ _____    ______ ____
DOCKED: ROOT
DOCKED: ATOM      1  C   UNL     1      27.579 -14.051  -0.002 -0.24 -0.00    +0.000 C 
DOCKED: ENDROOT
DOCKED: BRANCH   1   2
DOCKED: ATOM      2  C   UNL     1      27.825 -13.570   1.397 -0.26 -0.00    +0.000 C 
DOCKED: ATOM      3  N   UNL     1      28.330 -14.477   2.389 -0.29 -0.00    +0.000 N 
DOCKED: ATOM      4  O   UNL     1      27.578 -12.368   1.690 -0.24 -0.00    +0.000 OA
DOCKED: ATOM      5  H   UNL     1      28.356 -15.436   2.166 -1.33 -0.00    +0.000 HD
DOCKED: BRANCH   3   6
DOCKED: ATOM      6  C   UNL     1      28.800 -14.075   3.687 -0.35 -0.00    +0.000 A 
DOCKED: ATOM      7  C   UNL     1      29.977 -13.321   3.795 -0.18 -0.00    +0.000 A 
DOCKED: ATOM      8  C   UNL     1      30.432 -12.907   5.048 -0.18 -0.00    +0.000 A 
DOCKED: ATOM      9  C   UNL     1      29.694 -13.235   6.185 -0.31 -0.00    +0.000 A 
DOCKED: ATOM     10  N   UNL     1      28.540 -13.943   6.067 -0.39 -0.00    +0.000 NA
DOCKED: ATOM     11  C   UNL     1      28.079 -14.364   4.858 -0.53 -0.00    +0.000 A 
DOCKED: ENDBRANCH   3   6
DOCKED: ENDBRANCH   1   2
DOCKED: BRANCH   1  12
DOCKED: ATOM     12  C   UNL     1      26.105 -14.438  -0.180 -0.27 -0.00    +0.000 C 
DOCKED: BRANCH  12  13
DOCKED: ATOM     13  C   UNL     1      25.896 -15.489  -1.285 -0.45 -0.00    +0.000 C 
DOCKED: BRANCH  13  14
DOCKED: ATOM     14  C   UNL     1      25.326 -16.830  -0.787 -0.59 -0.00    +0.000 C 
DOCKED: BRANCH  14  15
DOCKED: ATOM     15  C   UNL     1      23.920 -17.118  -1.340 -0.67 -0.00    +0.000 C 
DOCKED: BRANCH  15  16
DOCKED: ATOM     16  C   UNL     1      23.278 -18.348  -0.685 -0.82 -0.00    +0.000 C 
DOCKED: BRANCH  16  18
DOCKED: ATOM     17  O   UNL     1      21.117 -17.356  -0.937 -1.80 -0.00    +0.000 OA
DOCKED: ATOM     18  C   UNL     1      21.801 -18.415  -0.946 -0.80 -0.00    +0.000 C 
DOCKED: ATOM     19  N   UNL     1      21.163 -19.673  -1.176 -0.73 -0.00    +0.000 N 
DOCKED: ATOM     20  O   UNL     1      19.830 -19.734  -1.410 -2.21 -0.00    +0.000 OA
DOCKED: ATOM     21  H   UNL     1      21.695 -20.501  -1.164 -0.17 -0.00    +0.000 HD
DOCKED: ENDBRANCH  16  18
DOCKED: ENDBRANCH  15  16
DOCKED: ENDBRANCH  14  15
DOCKED: ENDBRANCH  13  14
DOCKED: ENDBRANCH  12  13
DOCKED: ENDBRANCH   1  12
DOCKED: TORSDOF 8
DOCKED: TER
DOCKED: ENDMDL
________________________________________________________________________________


	BEGINNING GENETIC ALGORITHM DOCKING 86 of 100
Run: 86 Seed: 169657663 681726667 [ Run 86 of 100 GA/GALS ]
Beginning LAMARCKIAN GENETIC ALGORITHM (LGA), with a maximum of 2500000 energy evaluations.

Final-Value: -13.688


	FINAL GENETIC ALGORITHM DOCKED STATE
	_______________________________________________


Detailed state:  trans 25.477 -13.787 -1.138 quatxyzw 0.485154 0.105804 -0.782150 -0.376393 center -0.033 -0.045 -0.218 ntor 8 -2.7972 -179.5825 161.2434 154.4448 -166.3480 -178.6023 180.0000 47.3034
State:	 25.477 -13.787  -1.138   0.524  0.114 -0.844 -135.779     -2.80 -179.58  161.24  154.44 -166.35 -178.60  180.00   47.30

DOCKED: MODEL       86
DOCKED: USER    Run = 86
DOCKED: USER    DPF = ligand_dock.biased.dpf
DOCKED: USER  
DOCKED: USER    Estimated Free Energy of Binding    =  -10.49 kcal/mol  [=(1)+(2)+(3)-(4)]
DOCKED: USER    Estimated Inhibition Constant, Ki   =   20.32 nM (nanomolar)  [Temperature = 298.15 K]
DOCKED: USER    
DOCKED: USER    (1) Final Intermolecular Energy     =  -12.88 kcal/mol
DOCKED: USER        vdW + Hbond + desolv Energy     =  -12.88 kcal/mol
DOCKED: USER        Electrostatic Energy            =   +0.00 kcal/mol
DOCKED: USER    (2) Final Total Internal Energy     =   -0.81 kcal/mol
DOCKED: USER    (3) Torsional Free Energy           =   +2.39 kcal/mol
DOCKED: USER    (4) Unbound System's Energy  [=(2)] =   -0.81 kcal/mol
DOCKED: USER    
DOCKED: USER    
DOCKED: USER    NEWDPF move ligand.pdbqt
DOCKED: USER    NEWDPF about -0.033000 -0.045000 -0.218000
DOCKED: USER    NEWDPF tran0 25.476831 -13.787183 -1.137641
DOCKED: USER    NEWDPF quaternion0 0.485154 0.105804 -0.782150 -0.376393
DOCKED: USER    NEWDPF axisangle0 0.523664 0.114202 -0.844236 -135.779079
DOCKED: USER    NEWDPF quat0 0.523664 0.114202 -0.844236 -135.779079
DOCKED: USER    NEWDPF dihe0 -2.80 -179.58 161.24 154.44 -166.35 -178.60 180.00 47.30 
DOCKED: USER  keepresnum = 1 
DOCKED: USER  
DOCKED: REMARK  Name = 
DOCKED: REMARK  8 active torsions:
DOCKED: REMARK  status: ('A' for Active; 'I' for Inactive)
DOCKED: REMARK    1  A    between atoms: C_2  and  C_5
DOCKED: REMARK    2  A    between atoms: C_5  and  C_6
DOCKED: REMARK    3  A    between atoms: C_6  and  C_7
DOCKED: REMARK    4  A    between atoms: C_7  and  C_8
DOCKED: REMARK    5  A    between atoms: C_8  and  C_9
DOCKED: REMARK    6  A    between atoms: C_9  and  C_10
DOCKED: REMARK    7  A    between atoms: C_10  and  C_11
DOCKED: REMARK    8  A    between atoms: N_12  and  C_13
DOCKED: REMARK                            x       y       z     vdW  Elec       q    Type
DOCKED: REMARK                         _______ _______ _______ _____ _____    ______ ____
DOCKED: USER                              x       y       z     vdW  Elec       q    Type
DOCKED: USER                           _______ _______ _______ _____ _____    ______ ____
DOCKED: ROOT
DOCKED: ATOM      1  C   UNL     1      26.841 -14.680  -0.515 -0.32 -0.00    +0.000 C 
DOCKED: ENDROOT
DOCKED: BRANCH   1   2
DOCKED: ATOM      2  C   UNL     1      26.830 -13.980   0.812 -0.26 -0.00    +0.000 C 
DOCKED: ATOM      3  N   UNL     1      27.563 -14.530   1.918 -0.28 -0.00    +0.000 N 
DOCKED: ATOM      4  O   UNL     1      26.170 -12.913   0.943 -0.40 -0.00    +0.000 OA
DOCKED: ATOM      5  H   UNL     1      27.928 -15.439   1.822 -0.77 -0.00    +0.000 HD
DOCKED: BRANCH   3   6
DOCKED: ATOM      6  C   UNL     1      27.795 -13.839   3.156 -0.36 -0.00    +0.000 A 
DOCKED: ATOM      7  C   UNL     1      27.927 -12.444   3.157 -0.25 -0.00    +0.000 A 
DOCKED: ATOM      8  C   UNL     1      28.132 -11.759   4.357 -0.29 +0.00    +0.000 A 
DOCKED: ATOM      9  C   UNL     1      28.185 -12.476   5.552 -0.39 -0.00    +0.000 A 
DOCKED: ATOM     10  N   UNL     1      28.029 -13.826   5.543 -0.46 -0.00    +0.000 NA
DOCKED: ATOM     11  C   UNL     1      27.834 -14.517   4.387 -0.54 -0.00    +0.000 A 
DOCKED: ENDBRANCH   3   6
DOCKED: ENDBRANCH   1   2
DOCKED: BRANCH   1  12
DOCKED: ATOM     12  C   UNL     1      25.537 -15.465  -0.712 -0.37 -0.00    +0.000 C 
DOCKED: BRANCH  12  13
DOCKED: ATOM     13  C   UNL     1      25.781 -16.939  -1.078 -0.59 -0.00    +0.000 C 
DOCKED: BRANCH  13  14
DOCKED: ATOM     14  C   UNL     1      25.422 -17.938   0.037 -0.62 -0.00    +0.000 C 
DOCKED: BRANCH  14  15
DOCKED: ATOM     15  C   UNL     1      24.319 -18.924  -0.384 -0.39 -0.00    +0.000 C 
DOCKED: BRANCH  15  16
DOCKED: ATOM     16  C   UNL     1      23.415 -18.352  -1.484 -0.75 -0.00    +0.000 C 
DOCKED: BRANCH  16  18
DOCKED: ATOM     17  O   UNL     1      21.410 -17.819  -0.294 -1.61 -0.00    +0.000 OA
DOCKED: ATOM     18  C   UNL     1      21.959 -18.542  -1.169 -0.71 -0.00    +0.000 C 
DOCKED: ATOM     19  N   UNL     1      21.201 -19.555  -1.834 -0.60 -0.00    +0.000 N 
DOCKED: ATOM     20  O   UNL     1      19.889 -19.727  -1.549 -2.30 -0.00    +0.000 OA
DOCKED: ATOM     21  H   UNL     1      21.636 -20.131  -2.504 -0.61 -0.00    +0.000 HD
DOCKED: ENDBRANCH  16  18
DOCKED: ENDBRANCH  15  16
DOCKED: ENDBRANCH  14  15
DOCKED: ENDBRANCH  13  14
DOCKED: ENDBRANCH  12  13
DOCKED: ENDBRANCH   1  12
DOCKED: TORSDOF 8
DOCKED: TER
DOCKED: ENDMDL
________________________________________________________________________________


	BEGINNING GENETIC ALGORITHM DOCKING 87 of 100
Run: 87 Seed: 1978616277 1273257180 [ Run 87 of 100 GA/GALS ]
Beginning LAMARCKIAN GENETIC ALGORITHM (LGA), with a maximum of 2500000 energy evaluations.

Final-Value: -13.953


	FINAL GENETIC ALGORITHM DOCKED STATE
	_______________________________________________


Detailed state:  trans 23.808 -15.482 -2.728 quatxyzw 0.333515 0.106592 0.846119 0.401856 center -0.033 -0.045 -0.218 ntor 8 138.0124 80.3331 112.4395 84.3851 89.4023 -25.2128 -177.0912 66.0358
State:	 23.808 -15.482  -2.728   0.364  0.116  0.924 132.611    138.01   80.33  112.44   84.39   89.40  -25.21 -177.09   66.04

DOCKED: MODEL       87
DOCKED: USER    Run = 87
DOCKED: USER    DPF = ligand_dock.biased.dpf
DOCKED: USER  
DOCKED: USER    Estimated Free Energy of Binding    =  -10.70 kcal/mol  [=(1)+(2)+(3)-(4)]
DOCKED: USER    Estimated Inhibition Constant, Ki   =   14.27 nM (nanomolar)  [Temperature = 298.15 K]
DOCKED: USER    
DOCKED: USER    (1) Final Intermolecular Energy     =  -13.09 kcal/mol
DOCKED: USER        vdW + Hbond + desolv Energy     =  -13.09 kcal/mol
DOCKED: USER        Electrostatic Energy            =   +0.00 kcal/mol
DOCKED: USER    (2) Final Total Internal Energy     =   -0.86 kcal/mol
DOCKED: USER    (3) Torsional Free Energy           =   +2.39 kcal/mol
DOCKED: USER    (4) Unbound System's Energy  [=(2)] =   -0.86 kcal/mol
DOCKED: USER    
DOCKED: USER    
DOCKED: USER    NEWDPF move ligand.pdbqt
DOCKED: USER    NEWDPF about -0.033000 -0.045000 -0.218000
DOCKED: USER    NEWDPF tran0 23.807884 -15.481761 -2.727703
DOCKED: USER    NEWDPF quaternion0 0.333515 0.106592 0.846119 0.401856
DOCKED: USER    NEWDPF axisangle0 0.364218 0.116405 0.924010 132.611457
DOCKED: USER    NEWDPF quat0 0.364218 0.116405 0.924010 132.611457
DOCKED: USER    NEWDPF dihe0 138.01 80.33 112.44 84.39 89.40 -25.21 -177.09 66.04 
DOCKED: USER  keepresnum = 1 
DOCKED: USER  
DOCKED: REMARK  Name = 
DOCKED: REMARK  8 active torsions:
DOCKED: REMARK  status: ('A' for Active; 'I' for Inactive)
DOCKED: REMARK    1  A    between atoms: C_2  and  C_5
DOCKED: REMARK    2  A    between atoms: C_5  and  C_6
DOCKED: REMARK    3  A    between atoms: C_6  and  C_7
DOCKED: REMARK    4  A    between atoms: C_7  and  C_8
DOCKED: REMARK    5  A    between atoms: C_8  and  C_9
DOCKED: REMARK    6  A    between atoms: C_9  and  C_10
DOCKED: REMARK    7  A    between atoms: C_10  and  C_11
DOCKED: REMARK    8  A    between atoms: N_12  and  C_13
DOCKED: REMARK                            x       y       z     vdW  Elec       q    Type
DOCKED: REMARK                         _______ _______ _______ _____ _____    ______ ____
DOCKED: USER                              x       y       z     vdW  Elec       q    Type
DOCKED: USER                           _______ _______ _______ _____ _____    ______ ____
DOCKED: ROOT
DOCKED: ATOM      1  C   UNL     1      25.202 -16.389  -3.255 -0.05 -0.00    +0.000 C 
DOCKED: ENDROOT
DOCKED: BRANCH   1   2
DOCKED: ATOM      2  C   UNL     1      25.837 -15.219  -3.945 -0.60 -0.00    +0.000 C 
DOCKED: ATOM      3  N   UNL     1      27.205 -15.297  -4.376 -0.42 -0.00    +0.000 N 
DOCKED: ATOM      4  O   UNL     1      25.161 -14.171  -4.134 -0.93 -0.00    +0.000 OA
DOCKED: ATOM      5  H   UNL     1      27.742 -16.062  -4.068 -0.02 -0.00    +0.000 HD
DOCKED: BRANCH   3   6
DOCKED: ATOM      6  C   UNL     1      27.840 -14.329  -5.227 -0.33 -0.00    +0.000 A 
DOCKED: ATOM      7  C   UNL     1      28.581 -14.761  -6.336 -0.35 -0.00    +0.000 A 
DOCKED: ATOM      8  C   UNL     1      29.185 -13.829  -7.182 -0.29 -0.00    +0.000 A 
DOCKED: ATOM      9  C   UNL     1      29.026 -12.468  -6.924 -0.17 -0.00    +0.000 A 
DOCKED: ATOM     10  N   UNL     1      28.283 -12.059  -5.862 -0.14 -0.00    +0.000 NA
DOCKED: ATOM     11  C   UNL     1      27.690 -12.947  -5.019 -0.20 -0.00    +0.000 A 
DOCKED: ENDBRANCH   3   6
DOCKED: ENDBRANCH   1   2
DOCKED: BRANCH   1  12
DOCKED: ATOM     12  C   UNL     1      25.086 -16.119  -1.748 -0.55 -0.00    +0.000 C 
DOCKED: BRANCH  12  13
DOCKED: ATOM     13  C   UNL     1      26.064 -16.967  -0.916 -0.57 -0.00    +0.000 C 
DOCKED: BRANCH  13  14
DOCKED: ATOM     14  C   UNL     1      25.447 -18.244  -0.317 -0.70 -0.00    +0.000 C 
DOCKED: BRANCH  14  15
DOCKED: ATOM     15  C   UNL     1      24.095 -18.605  -0.956 -0.78 -0.00    +0.000 C 
DOCKED: BRANCH  15  16
DOCKED: ATOM     16  C   UNL     1      22.907 -18.076  -0.141 -0.77 -0.00    +0.000 C 
DOCKED: BRANCH  16  18
DOCKED: ATOM     17  O   UNL     1      20.636 -17.592  -0.715 -2.16 +0.00    +0.000 OA
DOCKED: ATOM     18  C   UNL     1      21.592 -18.410  -0.785 -0.83 -0.00    +0.000 C 
DOCKED: ATOM     19  N   UNL     1      21.412 -19.662  -1.453 -0.62 -0.00    +0.000 N 
DOCKED: ATOM     20  O   UNL     1      20.226 -19.965  -2.033 -2.29 -0.00    +0.000 OA
DOCKED: ATOM     21  H   UNL     1      22.154 -20.308  -1.491 -0.32 -0.00    +0.000 HD
DOCKED: ENDBRANCH  16  18
DOCKED: ENDBRANCH  15  16
DOCKED: ENDBRANCH  14  15
DOCKED: ENDBRANCH  13  14
DOCKED: ENDBRANCH  12  13
DOCKED: ENDBRANCH   1  12
DOCKED: TORSDOF 8
DOCKED: TER
DOCKED: ENDMDL
________________________________________________________________________________


	BEGINNING GENETIC ALGORITHM DOCKING 88 of 100
Run: 88 Seed: 950392015 337438265 [ Run 88 of 100 GA/GALS ]
Beginning LAMARCKIAN GENETIC ALGORITHM (LGA), with a maximum of 2500000 energy evaluations.

Final-Value: -14.406


	FINAL GENETIC ALGORITHM DOCKED STATE
	_______________________________________________


Detailed state:  trans 27.819 -14.045 -0.806 quatxyzw 0.690470 -0.219958 -0.681670 -0.100976 center -0.033 -0.045 -0.218 ntor 8 -79.6629 -33.7935 89.3848 -68.7646 158.7341 147.9470 -102.8350 24.9655
State:	 27.819 -14.045  -0.806   0.694 -0.221 -0.685 -168.409    -79.66  -33.79   89.38  -68.76  158.73  147.95 -102.83   24.97

DOCKED: MODEL       88
DOCKED: USER    Run = 88
DOCKED: USER    DPF = ligand_dock.biased.dpf
DOCKED: USER  
DOCKED: USER    Estimated Free Energy of Binding    =  -11.30 kcal/mol  [=(1)+(2)+(3)-(4)]
DOCKED: USER    Estimated Inhibition Constant, Ki   =    5.22 nM (nanomolar)  [Temperature = 298.15 K]
DOCKED: USER    
DOCKED: USER    (1) Final Intermolecular Energy     =  -13.69 kcal/mol
DOCKED: USER        vdW + Hbond + desolv Energy     =  -13.69 kcal/mol
DOCKED: USER        Electrostatic Energy            =   +0.00 kcal/mol
DOCKED: USER    (2) Final Total Internal Energy     =   -0.72 kcal/mol
DOCKED: USER    (3) Torsional Free Energy           =   +2.39 kcal/mol
DOCKED: USER    (4) Unbound System's Energy  [=(2)] =   -0.72 kcal/mol
DOCKED: USER    
DOCKED: USER    
DOCKED: USER    NEWDPF move ligand.pdbqt
DOCKED: USER    NEWDPF about -0.033000 -0.045000 -0.218000
DOCKED: USER    NEWDPF tran0 27.818645 -14.045422 -0.806070
DOCKED: USER    NEWDPF quaternion0 0.690470 -0.219958 -0.681670 -0.100976
DOCKED: USER    NEWDPF axisangle0 0.694017 -0.221088 -0.685172 -168.409212
DOCKED: USER    NEWDPF quat0 0.694017 -0.221088 -0.685172 -168.409212
DOCKED: USER    NEWDPF dihe0 -79.66 -33.79 89.38 -68.76 158.73 147.95 -102.83 24.97 
DOCKED: USER  keepresnum = 1 
DOCKED: USER  
DOCKED: REMARK  Name = 
DOCKED: REMARK  8 active torsions:
DOCKED: REMARK  status: ('A' for Active; 'I' for Inactive)
DOCKED: REMARK    1  A    between atoms: C_2  and  C_5
DOCKED: REMARK    2  A    between atoms: C_5  and  C_6
DOCKED: REMARK    3  A    between atoms: C_6  and  C_7
DOCKED: REMARK    4  A    between atoms: C_7  and  C_8
DOCKED: REMARK    5  A    between atoms: C_8  and  C_9
DOCKED: REMARK    6  A    between atoms: C_9  and  C_10
DOCKED: REMARK    7  A    between atoms: C_10  and  C_11
DOCKED: REMARK    8  A    between atoms: N_12  and  C_13
DOCKED: REMARK                            x       y       z     vdW  Elec       q    Type
DOCKED: REMARK                         _______ _______ _______ _____ _____    ______ ____
DOCKED: USER                              x       y       z     vdW  Elec       q    Type
DOCKED: USER                           _______ _______ _______ _____ _____    ______ ____
DOCKED: ROOT
DOCKED: ATOM      1  C   UNL     1      27.685 -15.370   0.322 -0.30 -0.00    +0.000 C 
DOCKED: ENDROOT
DOCKED: BRANCH   1   2
DOCKED: ATOM      2  C   UNL     1      27.457 -14.479   1.507 -0.24 -0.00    +0.000 C 
DOCKED: ATOM      3  N   UNL     1      28.391 -14.484   2.597 -0.29 -0.00    +0.000 N 
DOCKED: ATOM      4  O   UNL     1      26.438 -13.736   1.535 -0.30 -0.00    +0.000 OA
DOCKED: ATOM      5  H   UNL     1      29.078 -15.189   2.612 -1.96 -0.00    +0.000 HD
DOCKED: BRANCH   3   6
DOCKED: ATOM      6  C   UNL     1      28.386 -13.527   3.670 -0.33 -0.00    +0.000 A 
DOCKED: ATOM      7  C   UNL     1      28.091 -13.948   4.973 -0.50 -0.00    +0.000 A 
DOCKED: ATOM      8  C   UNL     1      28.104 -13.031   6.026 -0.36 -0.00    +0.000 A 
DOCKED: ATOM      9  C   UNL     1      28.432 -11.700   5.770 -0.34 +0.00    +0.000 A 
DOCKED: ATOM     10  N   UNL     1      28.744 -11.308   4.506 -0.20 +0.00    +0.000 NA
DOCKED: ATOM     11  C   UNL     1      28.732 -12.180   3.462 -0.17 -0.00    +0.000 A 
DOCKED: ENDBRANCH   3   6
DOCKED: ENDBRANCH   1   2
DOCKED: BRANCH   1  12
DOCKED: ATOM     12  C   UNL     1      26.543 -15.210  -0.691 -0.37 -0.00    +0.000 C 
DOCKED: BRANCH  12  13
DOCKED: ATOM     13  C   UNL     1      26.274 -16.498  -1.490 -0.50 -0.00    +0.000 C 
DOCKED: BRANCH  13  14
DOCKED: ATOM     14  C   UNL     1      25.521 -17.587  -0.704 -0.66 -0.00    +0.000 C 
DOCKED: BRANCH  14  15
DOCKED: ATOM     15  C   UNL     1      23.996 -17.386  -0.726 -0.72 -0.00    +0.000 C 
DOCKED: BRANCH  15  16
DOCKED: ATOM     16  C   UNL     1      23.277 -18.466  -1.545 -0.71 -0.00    +0.000 C 
DOCKED: BRANCH  16  18
DOCKED: ATOM     17  O   UNL     1      21.398 -17.953  -0.159 -1.51 -0.00    +0.000 OA
DOCKED: ATOM     18  C   UNL     1      21.848 -18.635  -1.119 -0.78 -0.00    +0.000 C 
DOCKED: ATOM     19  N   UNL     1      21.004 -19.583  -1.776 -0.69 -0.00    +0.000 N 
DOCKED: ATOM     20  O   UNL     1      19.715 -19.737  -1.391 -2.15 -0.00    +0.000 OA
DOCKED: ATOM     21  H   UNL     1      21.362 -20.128  -2.514 -0.58 -0.00    +0.000 HD
DOCKED: ENDBRANCH  16  18
DOCKED: ENDBRANCH  15  16
DOCKED: ENDBRANCH  14  15
DOCKED: ENDBRANCH  13  14
DOCKED: ENDBRANCH  12  13
DOCKED: ENDBRANCH   1  12
DOCKED: TORSDOF 8
DOCKED: TER
DOCKED: ENDMDL
________________________________________________________________________________


	BEGINNING GENETIC ALGORITHM DOCKING 89 of 100
Run: 89 Seed: 1639667904 2132375072 [ Run 89 of 100 GA/GALS ]
Beginning LAMARCKIAN GENETIC ALGORITHM (LGA), with a maximum of 2500000 energy evaluations.

Final-Value: -12.738


	FINAL GENETIC ALGORITHM DOCKED STATE
	_______________________________________________


Detailed state:  trans 26.682 -17.174 -4.164 quatxyzw 0.291905 -0.663549 -0.294215 -0.622842 center -0.033 -0.045 -0.218 ntor 8 -129.4831 163.2611 150.1783 -68.4462 -55.8876 -40.6521 -176.2162 68.5745
State:	 26.682 -17.174  -4.164   0.373 -0.848 -0.376 -102.952   -129.48  163.26  150.18  -68.45  -55.89  -40.65 -176.22   68.57

DOCKED: MODEL       89
DOCKED: USER    Run = 89
DOCKED: USER    DPF = ligand_dock.biased.dpf
DOCKED: USER  
DOCKED: USER    Estimated Free Energy of Binding    =   -9.61 kcal/mol  [=(1)+(2)+(3)-(4)]
DOCKED: USER    Estimated Inhibition Constant, Ki   =   90.36 nM (nanomolar)  [Temperature = 298.15 K]
DOCKED: USER    
DOCKED: USER    (1) Final Intermolecular Energy     =  -12.00 kcal/mol
DOCKED: USER        vdW + Hbond + desolv Energy     =  -12.00 kcal/mol
DOCKED: USER        Electrostatic Energy            =   +0.00 kcal/mol
DOCKED: USER    (2) Final Total Internal Energy     =   -0.74 kcal/mol
DOCKED: USER    (3) Torsional Free Energy           =   +2.39 kcal/mol
DOCKED: USER    (4) Unbound System's Energy  [=(2)] =   -0.74 kcal/mol
DOCKED: USER    
DOCKED: USER    
DOCKED: USER    NEWDPF move ligand.pdbqt
DOCKED: USER    NEWDPF about -0.033000 -0.045000 -0.218000
DOCKED: USER    NEWDPF tran0 26.681675 -17.174046 -4.163504
DOCKED: USER    NEWDPF quaternion0 0.291905 -0.663549 -0.294215 -0.622842
DOCKED: USER    NEWDPF axisangle0 0.373114 -0.848150 -0.376067 -102.952101
DOCKED: USER    NEWDPF quat0 0.373114 -0.848150 -0.376067 -102.952101
DOCKED: USER    NEWDPF dihe0 -129.48 163.26 150.18 -68.45 -55.89 -40.65 -176.22 68.57 
DOCKED: USER  keepresnum = 1 
DOCKED: USER  
DOCKED: REMARK  Name = 
DOCKED: REMARK  8 active torsions:
DOCKED: REMARK  status: ('A' for Active; 'I' for Inactive)
DOCKED: REMARK    1  A    between atoms: C_2  and  C_5
DOCKED: REMARK    2  A    between atoms: C_5  and  C_6
DOCKED: REMARK    3  A    between atoms: C_6  and  C_7
DOCKED: REMARK    4  A    between atoms: C_7  and  C_8
DOCKED: REMARK    5  A    between atoms: C_8  and  C_9
DOCKED: REMARK    6  A    between atoms: C_9  and  C_10
DOCKED: REMARK    7  A    between atoms: C_10  and  C_11
DOCKED: REMARK    8  A    between atoms: N_12  and  C_13
DOCKED: REMARK                            x       y       z     vdW  Elec       q    Type
DOCKED: REMARK                         _______ _______ _______ _____ _____    ______ ____
DOCKED: USER                              x       y       z     vdW  Elec       q    Type
DOCKED: USER                           _______ _______ _______ _____ _____    ______ ____
DOCKED: ROOT
DOCKED: ATOM      1  C   UNL     1      26.806 -15.751  -3.162 -0.40 -0.00    +0.000 C 
DOCKED: ENDROOT
DOCKED: BRANCH   1   2
DOCKED: ATOM      2  C   UNL     1      26.581 -14.799  -4.299 -0.51 -0.00    +0.000 C 
DOCKED: ATOM      3  N   UNL     1      26.329 -13.411  -4.032 -0.34 -0.00    +0.000 N 
DOCKED: ATOM      4  O   UNL     1      26.611 -15.233  -5.483 -1.13 +0.00    +0.000 OA
DOCKED: ATOM      5  H   UNL     1      26.154 -13.145  -3.101 -0.01 -0.00    +0.000 HD
DOCKED: BRANCH   3   6
DOCKED: ATOM      6  C   UNL     1      26.314 -12.384  -5.038 -0.20 -0.00    +0.000 A 
DOCKED: ATOM      7  C   UNL     1      27.370 -12.298  -5.956 -0.18 -0.00    +0.000 A 
DOCKED: ATOM      8  C   UNL     1      27.357 -11.319  -6.951 -0.16 -0.00    +0.000 A 
DOCKED: ATOM      9  C   UNL     1      26.275 -10.443  -7.033 -0.18 -0.00    +0.000 A 
DOCKED: ATOM     10  N   UNL     1      25.242 -10.553  -6.156 -0.31 -0.00    +0.000 NA
DOCKED: ATOM     11  C   UNL     1      25.234 -11.494  -5.174 -0.31 -0.00    +0.000 A 
DOCKED: ENDBRANCH   3   6
DOCKED: ENDBRANCH   1   2
DOCKED: BRANCH   1  12
DOCKED: ATOM     12  C   UNL     1      25.568 -16.633  -2.954 -0.33 -0.00    +0.000 C 
DOCKED: BRANCH  12  13
DOCKED: ATOM     13  C   UNL     1      24.759 -16.236  -1.705 -0.53 -0.00    +0.000 C 
DOCKED: BRANCH  13  14
DOCKED: ATOM     14  C   UNL     1      24.773 -17.287  -0.580 -0.64 -0.00    +0.000 C 
DOCKED: BRANCH  14  15
DOCKED: ATOM     15  C   UNL     1      23.364 -17.606  -0.051 -0.53 -0.00    +0.000 C 
DOCKED: BRANCH  15  16
DOCKED: ATOM     16  C   UNL     1      22.916 -19.029  -0.410 -0.75 -0.00    +0.000 C 
DOCKED: BRANCH  16  18
DOCKED: ATOM     17  O   UNL     1      20.614 -18.609   0.082 -1.38 -0.00    +0.000 OA
DOCKED: ATOM     18  C   UNL     1      21.450 -19.092  -0.728 -0.86 -0.00    +0.000 C 
DOCKED: ATOM     19  N   UNL     1      20.997 -19.719  -1.930 -0.61 -0.00    +0.000 N 
DOCKED: ATOM     20  O   UNL     1      19.675 -19.777  -2.218 -2.03 -0.00    +0.000 OA
DOCKED: ATOM     21  H   UNL     1      21.650 -20.111  -2.554 -0.62 -0.00    +0.000 HD
DOCKED: ENDBRANCH  16  18
DOCKED: ENDBRANCH  15  16
DOCKED: ENDBRANCH  14  15
DOCKED: ENDBRANCH  13  14
DOCKED: ENDBRANCH  12  13
DOCKED: ENDBRANCH   1  12
DOCKED: TORSDOF 8
DOCKED: TER
DOCKED: ENDMDL
________________________________________________________________________________


	BEGINNING GENETIC ALGORITHM DOCKING 90 of 100
Run: 90 Seed: 1718201641 1716724422 [ Run 90 of 100 GA/GALS ]
Beginning LAMARCKIAN GENETIC ALGORITHM (LGA), with a maximum of 2500000 energy evaluations.

Final-Value: -12.572


	FINAL GENETIC ALGORITHM DOCKED STATE
	_______________________________________________


Detailed state:  trans 25.337 -13.667 -2.270 quatxyzw -0.367627 0.147192 -0.917160 -0.044746 center -0.033 -0.045 -0.218 ntor 8 -114.2727 155.2550 29.7129 -71.5183 -143.2032 8.0750 -137.0509 45.0267
State:	 25.337 -13.667  -2.270  -0.368  0.147 -0.918 -174.871   -114.27  155.26   29.71  -71.52 -143.20    8.07 -137.05   45.03

DOCKED: MODEL       90
DOCKED: USER    Run = 90
DOCKED: USER    DPF = ligand_dock.biased.dpf
DOCKED: USER  
DOCKED: USER    Estimated Free Energy of Binding    =   -9.47 kcal/mol  [=(1)+(2)+(3)-(4)]
DOCKED: USER    Estimated Inhibition Constant, Ki   =  114.53 nM (nanomolar)  [Temperature = 298.15 K]
DOCKED: USER    
DOCKED: USER    (1) Final Intermolecular Energy     =  -11.86 kcal/mol
DOCKED: USER        vdW + Hbond + desolv Energy     =  -11.86 kcal/mol
DOCKED: USER        Electrostatic Energy            =   +0.00 kcal/mol
DOCKED: USER    (2) Final Total Internal Energy     =   -0.72 kcal/mol
DOCKED: USER    (3) Torsional Free Energy           =   +2.39 kcal/mol
DOCKED: USER    (4) Unbound System's Energy  [=(2)] =   -0.72 kcal/mol
DOCKED: USER    
DOCKED: USER    
DOCKED: USER    NEWDPF move ligand.pdbqt
DOCKED: USER    NEWDPF about -0.033000 -0.045000 -0.218000
DOCKED: USER    NEWDPF tran0 25.337272 -13.667034 -2.270100
DOCKED: USER    NEWDPF quaternion0 -0.367627 0.147192 -0.917160 -0.044746
DOCKED: USER    NEWDPF axisangle0 -0.367996 0.147339 -0.918080 -174.870718
DOCKED: USER    NEWDPF quat0 -0.367996 0.147339 -0.918080 -174.870718
DOCKED: USER    NEWDPF dihe0 -114.27 155.26 29.71 -71.52 -143.20 8.07 -137.05 45.03 
DOCKED: USER  keepresnum = 1 
DOCKED: USER  
DOCKED: REMARK  Name = 
DOCKED: REMARK  8 active torsions:
DOCKED: REMARK  status: ('A' for Active; 'I' for Inactive)
DOCKED: REMARK    1  A    between atoms: C_2  and  C_5
DOCKED: REMARK    2  A    between atoms: C_5  and  C_6
DOCKED: REMARK    3  A    between atoms: C_6  and  C_7
DOCKED: REMARK    4  A    between atoms: C_7  and  C_8
DOCKED: REMARK    5  A    between atoms: C_8  and  C_9
DOCKED: REMARK    6  A    between atoms: C_9  and  C_10
DOCKED: REMARK    7  A    between atoms: C_10  and  C_11
DOCKED: REMARK    8  A    between atoms: N_12  and  C_13
DOCKED: REMARK                            x       y       z     vdW  Elec       q    Type
DOCKED: REMARK                         _______ _______ _______ _____ _____    ______ ____
DOCKED: USER                              x       y       z     vdW  Elec       q    Type
DOCKED: USER                           _______ _______ _______ _____ _____    ______ ____
DOCKED: ROOT
DOCKED: ATOM      1  C   UNL     1      25.507 -15.161  -3.155 -0.55 -0.00    +0.000 C 
DOCKED: ENDROOT
DOCKED: BRANCH   1   2
DOCKED: ATOM      2  C   UNL     1      26.777 -14.741  -3.834 -0.43 -0.00    +0.000 C 
DOCKED: ATOM      3  N   UNL     1      27.117 -15.286  -5.118 -0.49 +0.00    +0.000 N 
DOCKED: ATOM      4  O   UNL     1      27.538 -13.914  -3.262 -0.21 -0.00    +0.000 OA
DOCKED: ATOM      5  H   UNL     1      26.585 -16.043  -5.453 -0.07 +0.00    +0.000 HD
DOCKED: BRANCH   3   6
DOCKED: ATOM      6  C   UNL     1      28.187 -14.797  -5.945 -0.37 -0.00    +0.000 A 
DOCKED: ATOM      7  C   UNL     1      28.203 -13.451  -6.333 -0.24 -0.00    +0.000 A 
DOCKED: ATOM      8  C   UNL     1      29.248 -12.960  -7.118 -0.22 -0.00    +0.000 A 
DOCKED: ATOM      9  C   UNL     1      30.281 -13.818  -7.494 -0.20 -0.00    +0.000 A 
DOCKED: ATOM     10  N   UNL     1      30.270 -15.115  -7.090 -0.29 -0.00    +0.000 NA
DOCKED: ATOM     11  C   UNL     1      29.260 -15.619  -6.330 -0.32 -0.00    +0.000 A 
DOCKED: ENDBRANCH   3   6
DOCKED: ENDBRANCH   1   2
DOCKED: BRANCH   1  12
DOCKED: ATOM     12  C   UNL     1      25.714 -15.234  -1.637 -0.42 -0.00    +0.000 C 
DOCKED: BRANCH  12  13
DOCKED: ATOM     13  C   UNL     1      25.230 -16.565  -1.035 -0.59 -0.00    +0.000 C 
DOCKED: BRANCH  13  14
DOCKED: ATOM     14  C   UNL     1      23.715 -16.809  -1.165 -0.56 -0.00    +0.000 C 
DOCKED: BRANCH  14  15
DOCKED: ATOM     15  C   UNL     1      23.375 -18.280  -1.459 -0.76 -0.00    +0.000 C 
DOCKED: BRANCH  15  16
DOCKED: ATOM     16  C   UNL     1      22.736 -18.982  -0.254 -0.72 -0.00    +0.000 C 
DOCKED: BRANCH  16  18
DOCKED: ATOM     17  O   UNL     1      20.634 -17.987  -0.814 -2.27 -0.00    +0.000 OA
DOCKED: ATOM     18  C   UNL     1      21.237 -18.987  -0.338 -0.85 -0.00    +0.000 C 
DOCKED: ATOM     19  N   UNL     1      20.489 -20.107   0.143 -0.71 -0.00    +0.000 N 
DOCKED: ATOM     20  O   UNL     1      19.137 -20.112   0.068 -1.11 -0.00    +0.000 OA
DOCKED: ATOM     21  H   UNL     1      20.960 -20.880   0.531 -0.47 -0.00    +0.000 HD
DOCKED: ENDBRANCH  16  18
DOCKED: ENDBRANCH  15  16
DOCKED: ENDBRANCH  14  15
DOCKED: ENDBRANCH  13  14
DOCKED: ENDBRANCH  12  13
DOCKED: ENDBRANCH   1  12
DOCKED: TORSDOF 8
DOCKED: TER
DOCKED: ENDMDL
________________________________________________________________________________


	BEGINNING GENETIC ALGORITHM DOCKING 91 of 100
Run: 91 Seed: 946769702 1655159322 [ Run 91 of 100 GA/GALS ]
Beginning LAMARCKIAN GENETIC ALGORITHM (LGA), with a maximum of 2500000 energy evaluations.

Final-Value: -14.590


	FINAL GENETIC ALGORITHM DOCKED STATE
	_______________________________________________


Detailed state:  trans 25.911 -15.622 -0.074 quatxyzw 0.253995 0.354231 -0.633603 -0.639182 center -0.033 -0.045 -0.218 ntor 8 122.2050 78.7342 82.0725 -130.7456 -131.5734 -178.8679 145.1932 -99.2097
State:	 25.911 -15.622  -0.074   0.330  0.461 -0.824 -100.538    122.20   78.73   82.07 -130.75 -131.57 -178.87  145.19  -99.21

DOCKED: MODEL       91
DOCKED: USER    Run = 91
DOCKED: USER    DPF = ligand_dock.biased.dpf
DOCKED: USER  
DOCKED: USER    Estimated Free Energy of Binding    =  -11.45 kcal/mol  [=(1)+(2)+(3)-(4)]
DOCKED: USER    Estimated Inhibition Constant, Ki   =    4.07 nM (nanomolar)  [Temperature = 298.15 K]
DOCKED: USER    
DOCKED: USER    (1) Final Intermolecular Energy     =  -13.83 kcal/mol
DOCKED: USER        vdW + Hbond + desolv Energy     =  -13.83 kcal/mol
DOCKED: USER        Electrostatic Energy            =   +0.00 kcal/mol
DOCKED: USER    (2) Final Total Internal Energy     =   -0.76 kcal/mol
DOCKED: USER    (3) Torsional Free Energy           =   +2.39 kcal/mol
DOCKED: USER    (4) Unbound System's Energy  [=(2)] =   -0.76 kcal/mol
DOCKED: USER    
DOCKED: USER    
DOCKED: USER    NEWDPF move ligand.pdbqt
DOCKED: USER    NEWDPF about -0.033000 -0.045000 -0.218000
DOCKED: USER    NEWDPF tran0 25.911367 -15.621852 -0.074190
DOCKED: USER    NEWDPF quaternion0 0.253995 0.354231 -0.633603 -0.639182
DOCKED: USER    NEWDPF axisangle0 0.330268 0.460606 -0.823872 -100.538302
DOCKED: USER    NEWDPF quat0 0.330268 0.460606 -0.823872 -100.538302
DOCKED: USER    NEWDPF dihe0 122.20 78.73 82.07 -130.75 -131.57 -178.87 145.19 -99.21 
DOCKED: USER  keepresnum = 1 
DOCKED: USER  
DOCKED: REMARK  Name = 
DOCKED: REMARK  8 active torsions:
DOCKED: REMARK  status: ('A' for Active; 'I' for Inactive)
DOCKED: REMARK    1  A    between atoms: C_2  and  C_5
DOCKED: REMARK    2  A    between atoms: C_5  and  C_6
DOCKED: REMARK    3  A    between atoms: C_6  and  C_7
DOCKED: REMARK    4  A    between atoms: C_7  and  C_8
DOCKED: REMARK    5  A    between atoms: C_8  and  C_9
DOCKED: REMARK    6  A    between atoms: C_9  and  C_10
DOCKED: REMARK    7  A    between atoms: C_10  and  C_11
DOCKED: REMARK    8  A    between atoms: N_12  and  C_13
DOCKED: REMARK                            x       y       z     vdW  Elec       q    Type
DOCKED: REMARK                         _______ _______ _______ _____ _____    ______ ____
DOCKED: USER                              x       y       z     vdW  Elec       q    Type
DOCKED: USER                           _______ _______ _______ _____ _____    ______ ____
DOCKED: ROOT
DOCKED: ATOM      1  C   UNL     1      27.586 -15.134  -0.040 -0.30 -0.00    +0.000 C 
DOCKED: ENDROOT
DOCKED: BRANCH   1   2
DOCKED: ATOM      2  C   UNL     1      27.479 -14.474   1.302 -0.27 -0.00    +0.000 C 
DOCKED: ATOM      3  N   UNL     1      28.431 -14.785   2.331 -0.08 -0.00    +0.000 N 
DOCKED: ATOM      4  O   UNL     1      26.545 -13.654   1.515 -0.35 -0.00    +0.000 OA
DOCKED: ATOM      5  H   UNL     1      29.041 -15.543   2.181 -1.74 -0.00    +0.000 HD
DOCKED: BRANCH   3   6
DOCKED: ATOM      6  C   UNL     1      28.550 -14.060   3.567 -0.36 -0.00    +0.000 A 
DOCKED: ATOM      7  C   UNL     1      29.817 -13.671   4.023 -0.25 -0.00    +0.000 A 
DOCKED: ATOM      8  C   UNL     1      29.944 -12.948   5.211 -0.23 -0.00    +0.000 A 
DOCKED: ATOM      9  C   UNL     1      28.797 -12.603   5.926 -0.35 -0.00    +0.000 A 
DOCKED: ATOM     10  N   UNL     1      27.571 -12.961   5.460 -0.47 -0.00    +0.000 NA
DOCKED: ATOM     11  C   UNL     1      27.422 -13.671   4.309 -0.47 -0.00    +0.000 A 
DOCKED: ENDBRANCH   3   6
DOCKED: ENDBRANCH   1   2
DOCKED: BRANCH   1  12
DOCKED: ATOM     12  C   UNL     1      27.305 -16.638   0.082 -0.38 -0.00    +0.000 C 
DOCKED: BRANCH  12  13
DOCKED: ATOM     13  C   UNL     1      25.805 -16.970  -0.006 -0.18 -0.00    +0.000 C 
DOCKED: BRANCH  13  14
DOCKED: ATOM     14  C   UNL     1      25.386 -17.678  -1.307 -0.62 -0.00    +0.000 C 
DOCKED: BRANCH  14  15
DOCKED: ATOM     15  C   UNL     1      24.128 -18.545  -1.131 -0.75 -0.00    +0.000 C 
DOCKED: BRANCH  15  16
DOCKED: ATOM     16  C   UNL     1      22.992 -17.789  -0.429 -0.79 -0.00    +0.000 C 
DOCKED: BRANCH  16  18
DOCKED: ATOM     17  O   UNL     1      20.634 -17.512  -0.716 -2.10 +0.00    +0.000 OA
DOCKED: ATOM     18  C   UNL     1      21.640 -18.251  -0.892 -0.78 -0.00    +0.000 C 
DOCKED: ATOM     19  N   UNL     1      21.486 -19.533  -1.505 -0.64 -0.00    +0.000 N 
DOCKED: ATOM     20  O   UNL     1      20.267 -19.951  -1.922 -2.31 -0.00    +0.000 OA
DOCKED: ATOM     21  H   UNL     1      22.269 -20.116  -1.626 -0.41 -0.00    +0.000 HD
DOCKED: ENDBRANCH  16  18
DOCKED: ENDBRANCH  15  16
DOCKED: ENDBRANCH  14  15
DOCKED: ENDBRANCH  13  14
DOCKED: ENDBRANCH  12  13
DOCKED: ENDBRANCH   1  12
DOCKED: TORSDOF 8
DOCKED: TER
DOCKED: ENDMDL
________________________________________________________________________________


	BEGINNING GENETIC ALGORITHM DOCKING 92 of 100
Run: 92 Seed: 531766802 2096660440 [ Run 92 of 100 GA/GALS ]
Beginning LAMARCKIAN GENETIC ALGORITHM (LGA), with a maximum of 2500000 energy evaluations.

Final-Value: -13.076


	FINAL GENETIC ALGORITHM DOCKED STATE
	_______________________________________________


Detailed state:  trans 28.352 -14.383 -1.785 quatxyzw 0.587723 -0.299133 -0.743998 -0.107558 center -0.033 -0.045 -0.218 ntor 8 170.1412 150.2600 109.8200 105.0851 -56.1128 -9.1788 177.5223 86.0481
State:	 28.352 -14.383  -1.785   0.591 -0.301 -0.748 -167.651    170.14  150.26  109.82  105.09  -56.11   -9.18  177.52   86.05

DOCKED: MODEL       92
DOCKED: USER    Run = 92
DOCKED: USER    DPF = ligand_dock.biased.dpf
DOCKED: USER  
DOCKED: USER    Estimated Free Energy of Binding    =   -9.89 kcal/mol  [=(1)+(2)+(3)-(4)]
DOCKED: USER    Estimated Inhibition Constant, Ki   =   56.67 nM (nanomolar)  [Temperature = 298.15 K]
DOCKED: USER    
DOCKED: USER    (1) Final Intermolecular Energy     =  -12.27 kcal/mol
DOCKED: USER        vdW + Hbond + desolv Energy     =  -12.27 kcal/mol
DOCKED: USER        Electrostatic Energy            =   +0.00 kcal/mol
DOCKED: USER    (2) Final Total Internal Energy     =   -0.80 kcal/mol
DOCKED: USER    (3) Torsional Free Energy           =   +2.39 kcal/mol
DOCKED: USER    (4) Unbound System's Energy  [=(2)] =   -0.80 kcal/mol
DOCKED: USER    
DOCKED: USER    
DOCKED: USER    NEWDPF move ligand.pdbqt
DOCKED: USER    NEWDPF about -0.033000 -0.045000 -0.218000
DOCKED: USER    NEWDPF tran0 28.351678 -14.383294 -1.784636
DOCKED: USER    NEWDPF quaternion0 0.587723 -0.299133 -0.743998 -0.107558
DOCKED: USER    NEWDPF axisangle0 0.591152 -0.300879 -0.748339 -167.650892
DOCKED: USER    NEWDPF quat0 0.591152 -0.300879 -0.748339 -167.650892
DOCKED: USER    NEWDPF dihe0 170.14 150.26 109.82 105.09 -56.11 -9.18 177.52 86.05 
DOCKED: USER  keepresnum = 1 
DOCKED: USER  
DOCKED: REMARK  Name = 
DOCKED: REMARK  8 active torsions:
DOCKED: REMARK  status: ('A' for Active; 'I' for Inactive)
DOCKED: REMARK    1  A    between atoms: C_2  and  C_5
DOCKED: REMARK    2  A    between atoms: C_5  and  C_6
DOCKED: REMARK    3  A    between atoms: C_6  and  C_7
DOCKED: REMARK    4  A    between atoms: C_7  and  C_8
DOCKED: REMARK    5  A    between atoms: C_8  and  C_9
DOCKED: REMARK    6  A    between atoms: C_9  and  C_10
DOCKED: REMARK    7  A    between atoms: C_10  and  C_11
DOCKED: REMARK    8  A    between atoms: N_12  and  C_13
DOCKED: REMARK                            x       y       z     vdW  Elec       q    Type
DOCKED: REMARK                         _______ _______ _______ _____ _____    ______ ____
DOCKED: USER                              x       y       z     vdW  Elec       q    Type
DOCKED: USER                           _______ _______ _______ _____ _____    ______ ____
DOCKED: ROOT
DOCKED: ATOM      1  C   UNL     1      28.278 -15.556  -0.495 -0.26 -0.00    +0.000 C 
DOCKED: ENDROOT
DOCKED: BRANCH   1   2
DOCKED: ATOM      2  C   UNL     1      28.448 -14.534   0.590 -0.23 -0.00    +0.000 C 
DOCKED: ATOM      3  N   UNL     1      28.091 -14.859   1.942 -0.21 -0.00    +0.000 N 
DOCKED: ATOM      4  O   UNL     1      28.898 -13.393   0.298 -0.11 -0.00    +0.000 OA
DOCKED: ATOM      5  H   UNL     1      27.596 -15.695   2.100 -0.60 -0.00    +0.000 HD
DOCKED: BRANCH   3   6
DOCKED: ATOM      6  C   UNL     1      28.410 -14.041   3.080 -0.32 -0.00    +0.000 A 
DOCKED: ATOM      7  C   UNL     1      29.752 -13.795   3.403 -0.22 -0.00    +0.000 A 
DOCKED: ATOM      8  C   UNL     1      30.074 -12.985   4.493 -0.18 -0.00    +0.000 A 
DOCKED: ATOM      9  C   UNL     1      29.049 -12.409   5.243 -0.27 -0.00    +0.000 A 
DOCKED: ATOM     10  N   UNL     1      27.751 -12.632   4.905 -0.42 +0.00    +0.000 NA
DOCKED: ATOM     11  C   UNL     1      27.411 -13.423   3.852 -0.41 -0.00    +0.000 A 
DOCKED: ENDBRANCH   3   6
DOCKED: ENDBRANCH   1   2
DOCKED: BRANCH   1  12
DOCKED: ATOM     12  C   UNL     1      26.977 -15.301  -1.268 -0.34 -0.00    +0.000 C 
DOCKED: BRANCH  12  13
DOCKED: ATOM     13  C   UNL     1      25.766 -16.016  -0.644 -0.42 -0.00    +0.000 C 
DOCKED: BRANCH  13  14
DOCKED: ATOM     14  C   UNL     1      25.641 -17.503  -1.022 -0.64 -0.00    +0.000 C 
DOCKED: BRANCH  14  15
DOCKED: ATOM     15  C   UNL     1      24.228 -17.876  -1.503 -0.73 -0.00    +0.000 C 
DOCKED: BRANCH  15  16
DOCKED: ATOM     16  C   UNL     1      23.224 -17.967  -0.346 -0.79 -0.00    +0.000 C 
DOCKED: BRANCH  16  18
DOCKED: ATOM     17  O   UNL     1      20.941 -17.359  -0.715 -1.96 +0.00    +0.000 OA
DOCKED: ATOM     18  C   UNL     1      21.831 -18.244  -0.833 -0.81 -0.00    +0.000 C 
DOCKED: ATOM     19  N   UNL     1      21.504 -19.513  -1.403 -0.68 -0.00    +0.000 N 
DOCKED: ATOM     20  O   UNL     1      20.247 -19.764  -1.842 -2.37 -0.00    +0.000 OA
DOCKED: ATOM     21  H   UNL     1      22.196 -20.209  -1.479 -0.35 -0.00    +0.000 HD
DOCKED: ENDBRANCH  16  18
DOCKED: ENDBRANCH  15  16
DOCKED: ENDBRANCH  14  15
DOCKED: ENDBRANCH  13  14
DOCKED: ENDBRANCH  12  13
DOCKED: ENDBRANCH   1  12
DOCKED: TORSDOF 8
DOCKED: TER
DOCKED: ENDMDL
________________________________________________________________________________


	BEGINNING GENETIC ALGORITHM DOCKING 93 of 100
Run: 93 Seed: 325802862 255800629 [ Run 93 of 100 GA/GALS ]
Beginning LAMARCKIAN GENETIC ALGORITHM (LGA), with a maximum of 2500000 energy evaluations.

Final-Value: -13.939


	FINAL GENETIC ALGORITHM DOCKED STATE
	_______________________________________________


Detailed state:  trans 24.682 -15.848 -3.977 quatxyzw 0.067947 -0.280923 -0.532496 -0.795558 center -0.033 -0.045 -0.218 ntor 8 172.6208 146.2134 70.9999 41.8316 176.5068 -116.8157 -149.5135 -20.2992
State:	 24.682 -15.848  -3.977   0.112 -0.464 -0.879 -74.584    172.62  146.21   71.00   41.83  176.51 -116.82 -149.51  -20.30

DOCKED: MODEL       93
DOCKED: USER    Run = 93
DOCKED: USER    DPF = ligand_dock.biased.dpf
DOCKED: USER  
DOCKED: USER    Estimated Free Energy of Binding    =  -10.82 kcal/mol  [=(1)+(2)+(3)-(4)]
DOCKED: USER    Estimated Inhibition Constant, Ki   =   11.74 nM (nanomolar)  [Temperature = 298.15 K]
DOCKED: USER    
DOCKED: USER    (1) Final Intermolecular Energy     =  -13.21 kcal/mol
DOCKED: USER        vdW + Hbond + desolv Energy     =  -13.21 kcal/mol
DOCKED: USER        Electrostatic Energy            =   +0.00 kcal/mol
DOCKED: USER    (2) Final Total Internal Energy     =   -0.73 kcal/mol
DOCKED: USER    (3) Torsional Free Energy           =   +2.39 kcal/mol
DOCKED: USER    (4) Unbound System's Energy  [=(2)] =   -0.73 kcal/mol
DOCKED: USER    
DOCKED: USER    
DOCKED: USER    NEWDPF move ligand.pdbqt
DOCKED: USER    NEWDPF about -0.033000 -0.045000 -0.218000
DOCKED: USER    NEWDPF tran0 24.682370 -15.847862 -3.977424
DOCKED: USER    NEWDPF quaternion0 0.067947 -0.280923 -0.532496 -0.795558
DOCKED: USER    NEWDPF axisangle0 0.112147 -0.463664 -0.878885 -74.583977
DOCKED: USER    NEWDPF quat0 0.112147 -0.463664 -0.878885 -74.583977
DOCKED: USER    NEWDPF dihe0 172.62 146.21 71.00 41.83 176.51 -116.82 -149.51 -20.30 
DOCKED: USER  keepresnum = 1 
DOCKED: USER  
DOCKED: REMARK  Name = 
DOCKED: REMARK  8 active torsions:
DOCKED: REMARK  status: ('A' for Active; 'I' for Inactive)
DOCKED: REMARK    1  A    between atoms: C_2  and  C_5
DOCKED: REMARK    2  A    between atoms: C_5  and  C_6
DOCKED: REMARK    3  A    between atoms: C_6  and  C_7
DOCKED: REMARK    4  A    between atoms: C_7  and  C_8
DOCKED: REMARK    5  A    between atoms: C_8  and  C_9
DOCKED: REMARK    6  A    between atoms: C_9  and  C_10
DOCKED: REMARK    7  A    between atoms: C_10  and  C_11
DOCKED: REMARK    8  A    between atoms: N_12  and  C_13
DOCKED: REMARK                            x       y       z     vdW  Elec       q    Type
DOCKED: REMARK                         _______ _______ _______ _____ _____    ______ ____
DOCKED: USER                              x       y       z     vdW  Elec       q    Type
DOCKED: USER                           _______ _______ _______ _____ _____    ______ ____
DOCKED: ROOT
DOCKED: ATOM      1  C   UNL     1      26.002 -14.784  -3.563 -0.52 -0.00    +0.000 C 
DOCKED: ENDROOT
DOCKED: BRANCH   1   2
DOCKED: ATOM      2  C   UNL     1      25.259 -13.538  -3.943 -0.38 -0.00    +0.000 C 
DOCKED: ATOM      3  N   UNL     1      25.972 -12.304  -4.120 -0.30 -0.00    +0.000 N 
DOCKED: ATOM      4  O   UNL     1      24.008 -13.587  -4.097 -1.00 -0.00    +0.000 OA
DOCKED: ATOM      5  H   UNL     1      26.913 -12.271  -3.835 -0.00 -0.00    +0.000 HD
DOCKED: BRANCH   3   6
DOCKED: ATOM      6  C   UNL     1      25.399 -11.114  -4.686 -0.31 -0.00    +0.000 A 
DOCKED: ATOM      7  C   UNL     1      25.008 -11.105  -6.032 -0.19 -0.00    +0.000 A 
DOCKED: ATOM      8  C   UNL     1      24.430  -9.962  -6.588 -0.38 -0.00    +0.000 A 
DOCKED: ATOM      9  C   UNL     1      24.230  -8.839  -5.785 -0.31 -0.00    +0.000 A 
DOCKED: ATOM     10  N   UNL     1      24.587  -8.867  -4.474 -0.30 -0.00    +0.000 NA
DOCKED: ATOM     11  C   UNL     1      25.157  -9.966  -3.911 -0.19 -0.00    +0.000 A 
DOCKED: ENDBRANCH   3   6
DOCKED: ENDBRANCH   1   2
DOCKED: BRANCH   1  12
DOCKED: ATOM     12  C   UNL     1      25.296 -15.491  -2.398 -0.48 -0.00    +0.000 C 
DOCKED: BRANCH  12  13
DOCKED: ATOM     13  C   UNL     1      25.781 -16.938  -2.200 -0.49 -0.00    +0.000 C 
DOCKED: BRANCH  13  14
DOCKED: ATOM     14  C   UNL     1      25.262 -17.612  -0.916 -0.68 -0.00    +0.000 C 
DOCKED: BRANCH  14  15
DOCKED: ATOM     15  C   UNL     1      24.097 -18.579  -1.185 -0.74 -0.00    +0.000 C 
DOCKED: BRANCH  15  16
DOCKED: ATOM     16  C   UNL     1      22.988 -18.463  -0.131 -0.78 -0.00    +0.000 C 
DOCKED: BRANCH  16  18
DOCKED: ATOM     17  O   UNL     1      20.918 -17.447  -0.763 -2.02 -0.00    +0.000 OA
DOCKED: ATOM     18  C   UNL     1      21.620 -18.493  -0.750 -0.85 -0.00    +0.000 C 
DOCKED: ATOM     19  N   UNL     1      21.102 -19.707  -1.298 -0.73 -0.00    +0.000 N 
DOCKED: ATOM     20  O   UNL     1      19.868 -19.736  -1.855 -2.39 -0.00    +0.000 OA
DOCKED: ATOM     21  H   UNL     1      21.644 -20.528  -1.270 -0.17 -0.00    +0.000 HD
DOCKED: ENDBRANCH  16  18
DOCKED: ENDBRANCH  15  16
DOCKED: ENDBRANCH  14  15
DOCKED: ENDBRANCH  13  14
DOCKED: ENDBRANCH  12  13
DOCKED: ENDBRANCH   1  12
DOCKED: TORSDOF 8
DOCKED: TER
DOCKED: ENDMDL
________________________________________________________________________________


	BEGINNING GENETIC ALGORITHM DOCKING 94 of 100
Run: 94 Seed: 1628035205 131358218 [ Run 94 of 100 GA/GALS ]
Beginning LAMARCKIAN GENETIC ALGORITHM (LGA), with a maximum of 2500000 energy evaluations.

Final-Value: -12.729


	FINAL GENETIC ALGORITHM DOCKED STATE
	_______________________________________________


Detailed state:  trans 25.982 -16.865 -1.058 quatxyzw 0.133368 -0.918499 0.295123 -0.226880 center -0.033 -0.045 -0.218 ntor 8 -163.5878 -105.2698 103.7194 171.7063 -46.9559 -41.9708 152.4479 -36.7129
State:	 25.982 -16.865  -1.058   0.137 -0.943  0.303 -153.773   -163.59 -105.27  103.72  171.71  -46.96  -41.97  152.45  -36.71

DOCKED: MODEL       94
DOCKED: USER    Run = 94
DOCKED: USER    DPF = ligand_dock.biased.dpf
DOCKED: USER  
DOCKED: USER    Estimated Free Energy of Binding    =   -9.65 kcal/mol  [=(1)+(2)+(3)-(4)]
DOCKED: USER    Estimated Inhibition Constant, Ki   =   85.00 nM (nanomolar)  [Temperature = 298.15 K]
DOCKED: USER    
DOCKED: USER    (1) Final Intermolecular Energy     =  -12.03 kcal/mol
DOCKED: USER        vdW + Hbond + desolv Energy     =  -12.03 kcal/mol
DOCKED: USER        Electrostatic Energy            =   +0.00 kcal/mol
DOCKED: USER    (2) Final Total Internal Energy     =   -0.70 kcal/mol
DOCKED: USER    (3) Torsional Free Energy           =   +2.39 kcal/mol
DOCKED: USER    (4) Unbound System's Energy  [=(2)] =   -0.70 kcal/mol
DOCKED: USER    
DOCKED: USER    
DOCKED: USER    NEWDPF move ligand.pdbqt
DOCKED: USER    NEWDPF about -0.033000 -0.045000 -0.218000
DOCKED: USER    NEWDPF tran0 25.982208 -16.864993 -1.058035
DOCKED: USER    NEWDPF quaternion0 0.133368 -0.918499 0.295123 -0.226880
DOCKED: USER    NEWDPF axisangle0 0.136939 -0.943092 0.303025 -153.773124
DOCKED: USER    NEWDPF quat0 0.136939 -0.943092 0.303025 -153.773124
DOCKED: USER    NEWDPF dihe0 -163.59 -105.27 103.72 171.71 -46.96 -41.97 152.45 -36.71 
DOCKED: USER  keepresnum = 1 
DOCKED: USER  
DOCKED: REMARK  Name = 
DOCKED: REMARK  8 active torsions:
DOCKED: REMARK  status: ('A' for Active; 'I' for Inactive)
DOCKED: REMARK    1  A    between atoms: C_2  and  C_5
DOCKED: REMARK    2  A    between atoms: C_5  and  C_6
DOCKED: REMARK    3  A    between atoms: C_6  and  C_7
DOCKED: REMARK    4  A    between atoms: C_7  and  C_8
DOCKED: REMARK    5  A    between atoms: C_8  and  C_9
DOCKED: REMARK    6  A    between atoms: C_9  and  C_10
DOCKED: REMARK    7  A    between atoms: C_10  and  C_11
DOCKED: REMARK    8  A    between atoms: N_12  and  C_13
DOCKED: REMARK                            x       y       z     vdW  Elec       q    Type
DOCKED: REMARK                         _______ _______ _______ _____ _____    ______ ____
DOCKED: USER                              x       y       z     vdW  Elec       q    Type
DOCKED: USER                           _______ _______ _______ _____ _____    ______ ____
DOCKED: ROOT
DOCKED: ATOM      1  C   UNL     1      25.755 -15.402  -1.982 -0.47 -0.00    +0.000 C 
DOCKED: ENDROOT
DOCKED: BRANCH   1   2
DOCKED: ATOM      2  C   UNL     1      26.986 -15.607  -2.813 -0.39 -0.00    +0.000 C 
DOCKED: ATOM      3  N   UNL     1      26.945 -15.359  -4.227 -0.44 -0.00    +0.000 N 
DOCKED: ATOM      4  O   UNL     1      28.048 -16.002  -2.258 -0.29 -0.00    +0.000 OA
DOCKED: ATOM      5  H   UNL     1      26.066 -15.211  -4.643 -0.05 -0.00    +0.000 HD
DOCKED: BRANCH   3   6
DOCKED: ATOM      6  C   UNL     1      28.106 -15.316  -5.073 -0.36 -0.00    +0.000 A 
DOCKED: ATOM      7  C   UNL     1      29.118 -16.271  -4.911 -0.26 -0.00    +0.000 A 
DOCKED: ATOM      8  C   UNL     1      30.241 -16.252  -5.741 -0.27 -0.00    +0.000 A 
DOCKED: ATOM      9  C   UNL     1      30.334 -15.286  -6.742 -0.27 -0.00    +0.000 A 
DOCKED: ATOM     10  N   UNL     1      29.334 -14.380  -6.909 -0.32 -0.00    +0.000 NA
DOCKED: ATOM     11  C   UNL     1      28.233 -14.374  -6.109 -0.32 -0.00    +0.000 A 
DOCKED: ENDBRANCH   3   6
DOCKED: ENDBRANCH   1   2
DOCKED: BRANCH   1  12
DOCKED: ATOM     12  C   UNL     1      24.751 -16.536  -2.230 -0.50 -0.00    +0.000 C 
DOCKED: BRANCH  12  13
DOCKED: ATOM     13  C   UNL     1      23.898 -16.857  -0.989 -0.62 -0.00    +0.000 C 
DOCKED: BRANCH  13  14
DOCKED: ATOM     14  C   UNL     1      24.147 -18.254  -0.391 -0.77 -0.00    +0.000 C 
DOCKED: BRANCH  14  15
DOCKED: ATOM     15  C   UNL     1      22.872 -19.113  -0.343 -0.69 -0.00    +0.000 C 
DOCKED: BRANCH  15  16
DOCKED: ATOM     16  C   UNL     1      21.615 -18.311  -0.709 -0.85 -0.00    +0.000 C 
DOCKED: BRANCH  16  18
DOCKED: ATOM     17  O   UNL     1      20.201 -19.735  -2.009 -2.35 -0.00    +0.000 OA
DOCKED: ATOM     18  C   UNL     1      20.417 -19.198  -0.889 -0.89 -0.00    +0.000 C 
DOCKED: ATOM     19  N   UNL     1      19.508 -19.413   0.193 -0.74 -0.00    +0.000 N 
DOCKED: ATOM     20  O   UNL     1      18.426 -20.212   0.031 -0.95 -0.00    +0.000 OA
DOCKED: ATOM     21  H   UNL     1      19.668 -18.978   1.061 -0.25 -0.00    +0.000 HD
DOCKED: ENDBRANCH  16  18
DOCKED: ENDBRANCH  15  16
DOCKED: ENDBRANCH  14  15
DOCKED: ENDBRANCH  13  14
DOCKED: ENDBRANCH  12  13
DOCKED: ENDBRANCH   1  12
DOCKED: TORSDOF 8
DOCKED: TER
DOCKED: ENDMDL
________________________________________________________________________________


	BEGINNING GENETIC ALGORITHM DOCKING 95 of 100
Run: 95 Seed: 1864984589 1270418733 [ Run 95 of 100 GA/GALS ]
Beginning LAMARCKIAN GENETIC ALGORITHM (LGA), with a maximum of 2500000 energy evaluations.

Final-Value: -14.762


	FINAL GENETIC ALGORITHM DOCKED STATE
	_______________________________________________


Detailed state:  trans 25.565 -15.321 -0.161 quatxyzw -0.242065 -0.316841 0.656200 0.640639 center -0.033 -0.045 -0.218 ntor 8 -94.7318 175.4722 161.6418 83.0373 10.6049 -4.6754 138.1106 -25.0301
State:	 25.565 -15.321  -0.161  -0.315 -0.413  0.855 100.321    -94.73  175.47  161.64   83.04   10.60   -4.68  138.11  -25.03

DOCKED: MODEL       95
DOCKED: USER    Run = 95
DOCKED: USER    DPF = ligand_dock.biased.dpf
DOCKED: USER  
DOCKED: USER    Estimated Free Energy of Binding    =  -11.63 kcal/mol  [=(1)+(2)+(3)-(4)]
DOCKED: USER    Estimated Inhibition Constant, Ki   =    2.98 nM (nanomolar)  [Temperature = 298.15 K]
DOCKED: USER    
DOCKED: USER    (1) Final Intermolecular Energy     =  -14.02 kcal/mol
DOCKED: USER        vdW + Hbond + desolv Energy     =  -14.02 kcal/mol
DOCKED: USER        Electrostatic Energy            =   +0.00 kcal/mol
DOCKED: USER    (2) Final Total Internal Energy     =   -0.74 kcal/mol
DOCKED: USER    (3) Torsional Free Energy           =   +2.39 kcal/mol
DOCKED: USER    (4) Unbound System's Energy  [=(2)] =   -0.74 kcal/mol
DOCKED: USER    
DOCKED: USER    
DOCKED: USER    NEWDPF move ligand.pdbqt
DOCKED: USER    NEWDPF about -0.033000 -0.045000 -0.218000
DOCKED: USER    NEWDPF tran0 25.565155 -15.320957 -0.160797
DOCKED: USER    NEWDPF quaternion0 -0.242065 -0.316841 0.656200 0.640639
DOCKED: USER    NEWDPF axisangle0 -0.315253 -0.412638 0.854602 100.321065
DOCKED: USER    NEWDPF quat0 -0.315253 -0.412638 0.854602 100.321065
DOCKED: USER    NEWDPF dihe0 -94.73 175.47 161.64 83.04 10.60 -4.68 138.11 -25.03 
DOCKED: USER  keepresnum = 1 
DOCKED: USER  
DOCKED: REMARK  Name = 
DOCKED: REMARK  8 active torsions:
DOCKED: REMARK  status: ('A' for Active; 'I' for Inactive)
DOCKED: REMARK    1  A    between atoms: C_2  and  C_5
DOCKED: REMARK    2  A    between atoms: C_5  and  C_6
DOCKED: REMARK    3  A    between atoms: C_6  and  C_7
DOCKED: REMARK    4  A    between atoms: C_7  and  C_8
DOCKED: REMARK    5  A    between atoms: C_8  and  C_9
DOCKED: REMARK    6  A    between atoms: C_9  and  C_10
DOCKED: REMARK    7  A    between atoms: C_10  and  C_11
DOCKED: REMARK    8  A    between atoms: N_12  and  C_13
DOCKED: REMARK                            x       y       z     vdW  Elec       q    Type
DOCKED: REMARK                         _______ _______ _______ _____ _____    ______ ____
DOCKED: USER                              x       y       z     vdW  Elec       q    Type
DOCKED: USER                           _______ _______ _______ _____ _____    ______ ____
DOCKED: ROOT
DOCKED: ATOM      1  C   UNL     1      27.256 -14.894  -0.126 -0.31 -0.00    +0.000 C 
DOCKED: ENDROOT
DOCKED: BRANCH   1   2
DOCKED: ATOM      2  C   UNL     1      27.147 -14.125   1.158 -0.27 -0.00    +0.000 C 
DOCKED: ATOM      3  N   UNL     1      27.962 -14.490   2.282 -0.31 -0.00    +0.000 N 
DOCKED: ATOM      4  O   UNL     1      26.331 -13.167   1.237 -0.40 -0.00    +0.000 OA
DOCKED: ATOM      5  H   UNL     1      28.462 -15.336   2.234 -1.50 -0.00    +0.000 HD
DOCKED: BRANCH   3   6
DOCKED: ATOM      6  C   UNL     1      28.093 -13.698   3.475 -0.36 -0.00    +0.000 A 
DOCKED: ATOM      7  C   UNL     1      28.113 -12.299   3.380 -0.24 -0.00    +0.000 A 
DOCKED: ATOM      8  C   UNL     1      28.218 -11.519   4.533 -0.28 +0.00    +0.000 A 
DOCKED: ATOM      9  C   UNL     1      28.285 -12.145   5.777 -0.37 +0.00    +0.000 A 
DOCKED: ATOM     10  N   UNL     1      28.238 -13.501   5.860 -0.44 -0.00    +0.000 NA
DOCKED: ATOM     11  C   UNL     1      28.142 -14.284   4.752 -0.52 -0.00    +0.000 A 
DOCKED: ENDBRANCH   3   6
DOCKED: ENDBRANCH   1   2
DOCKED: BRANCH   1  12
DOCKED: ATOM     12  C   UNL     1      26.915 -16.371   0.108 -0.33 -0.00    +0.000 C 
DOCKED: BRANCH  12  13
DOCKED: ATOM     13  C   UNL     1      26.538 -17.106  -1.191 -0.53 -0.00    +0.000 C 
DOCKED: BRANCH  13  14
DOCKED: ATOM     14  C   UNL     1      25.117 -16.806  -1.701 -0.63 -0.00    +0.000 C 
DOCKED: BRANCH  14  15
DOCKED: ATOM     15  C   UNL     1      24.025 -17.290  -0.732 -0.71 -0.00    +0.000 C 
DOCKED: BRANCH  15  16
DOCKED: ATOM     16  C   UNL     1      23.461 -18.661  -1.127 -0.81 -0.00    +0.000 C 
DOCKED: BRANCH  16  18
DOCKED: ATOM     17  O   UNL     1      21.330 -17.762  -0.517 -1.76 -0.00    +0.000 OA
DOCKED: ATOM     18  C   UNL     1      21.959 -18.672  -1.122 -0.79 -0.00    +0.000 C 
DOCKED: ATOM     19  N   UNL     1      21.242 -19.722  -1.775 -0.55 -0.00    +0.000 N 
DOCKED: ATOM     20  O   UNL     1      19.888 -19.733  -1.770 -2.38 -0.00    +0.000 OA
DOCKED: ATOM     21  H   UNL     1      21.735 -20.441  -2.232 -0.54 -0.00    +0.000 HD
DOCKED: ENDBRANCH  16  18
DOCKED: ENDBRANCH  15  16
DOCKED: ENDBRANCH  14  15
DOCKED: ENDBRANCH  13  14
DOCKED: ENDBRANCH  12  13
DOCKED: ENDBRANCH   1  12
DOCKED: TORSDOF 8
DOCKED: TER
DOCKED: ENDMDL
________________________________________________________________________________


	BEGINNING GENETIC ALGORITHM DOCKING 96 of 100
Run: 96 Seed: 1105061527 638358628 [ Run 96 of 100 GA/GALS ]
Beginning LAMARCKIAN GENETIC ALGORITHM (LGA), with a maximum of 2500000 energy evaluations.

Final-Value: -13.083


	FINAL GENETIC ALGORITHM DOCKED STATE
	_______________________________________________


Detailed state:  trans 25.276 -16.497 -3.150 quatxyzw -0.181018 -0.204547 -0.542899 -0.794137 center -0.033 -0.045 -0.218 ntor 8 -27.3844 71.1331 -170.6958 143.6844 -38.9378 -131.4591 -178.1643 -119.4610
State:	 25.276 -16.497  -3.150  -0.298 -0.337 -0.893 -74.852    -27.38   71.13 -170.70  143.68  -38.94 -131.46 -178.16 -119.46

DOCKED: MODEL       96
DOCKED: USER    Run = 96
DOCKED: USER    DPF = ligand_dock.biased.dpf
DOCKED: USER  
DOCKED: USER    Estimated Free Energy of Binding    =   -9.88 kcal/mol  [=(1)+(2)+(3)-(4)]
DOCKED: USER    Estimated Inhibition Constant, Ki   =   56.87 nM (nanomolar)  [Temperature = 298.15 K]
DOCKED: USER    
DOCKED: USER    (1) Final Intermolecular Energy     =  -12.27 kcal/mol
DOCKED: USER        vdW + Hbond + desolv Energy     =  -12.27 kcal/mol
DOCKED: USER        Electrostatic Energy            =   +0.00 kcal/mol
DOCKED: USER    (2) Final Total Internal Energy     =   -0.81 kcal/mol
DOCKED: USER    (3) Torsional Free Energy           =   +2.39 kcal/mol
DOCKED: USER    (4) Unbound System's Energy  [=(2)] =   -0.81 kcal/mol
DOCKED: USER    
DOCKED: USER    
DOCKED: USER    NEWDPF move ligand.pdbqt
DOCKED: USER    NEWDPF about -0.033000 -0.045000 -0.218000
DOCKED: USER    NEWDPF tran0 25.276115 -16.497456 -3.149944
DOCKED: USER    NEWDPF quaternion0 -0.181018 -0.204547 -0.542899 -0.794137
DOCKED: USER    NEWDPF axisangle0 -0.297855 -0.336571 -0.893310 -74.852308
DOCKED: USER    NEWDPF quat0 -0.297855 -0.336571 -0.893310 -74.852308
DOCKED: USER    NEWDPF dihe0 -27.38 71.13 -170.70 143.68 -38.94 -131.46 -178.16 -119.46 
DOCKED: USER  keepresnum = 1 
DOCKED: USER  
DOCKED: REMARK  Name = 
DOCKED: REMARK  8 active torsions:
DOCKED: REMARK  status: ('A' for Active; 'I' for Inactive)
DOCKED: REMARK    1  A    between atoms: C_2  and  C_5
DOCKED: REMARK    2  A    between atoms: C_5  and  C_6
DOCKED: REMARK    3  A    between atoms: C_6  and  C_7
DOCKED: REMARK    4  A    between atoms: C_7  and  C_8
DOCKED: REMARK    5  A    between atoms: C_8  and  C_9
DOCKED: REMARK    6  A    between atoms: C_9  and  C_10
DOCKED: REMARK    7  A    between atoms: C_10  and  C_11
DOCKED: REMARK    8  A    between atoms: N_12  and  C_13
DOCKED: REMARK                            x       y       z     vdW  Elec       q    Type
DOCKED: REMARK                         _______ _______ _______ _____ _____    ______ ____
DOCKED: USER                              x       y       z     vdW  Elec       q    Type
DOCKED: USER                           _______ _______ _______ _____ _____    ______ ____
DOCKED: ROOT
DOCKED: ATOM      1  C   UNL     1      26.735 -15.651  -3.598 -0.42 -0.00    +0.000 C 
DOCKED: ENDROOT
DOCKED: BRANCH   1   2
DOCKED: ATOM      2  C   UNL     1      26.008 -14.430  -4.077 -0.53 -0.00    +0.000 C 
DOCKED: ATOM      3  N   UNL     1      26.733 -13.215  -4.323 -0.29 -0.00    +0.000 N 
DOCKED: ATOM      4  O   UNL     1      24.760 -14.483  -4.254 -1.04 -0.00    +0.000 OA
DOCKED: ATOM      5  H   UNL     1      27.668 -13.168  -4.021 +0.00 -0.00    +0.000 HD
DOCKED: BRANCH   3   6
DOCKED: ATOM      6  C   UNL     1      26.179 -12.063  -4.981 -0.24 -0.00    +0.000 A 
DOCKED: ATOM      7  C   UNL     1      26.970 -11.329  -5.876 -0.17 -0.00    +0.000 A 
DOCKED: ATOM      8  C   UNL     1      26.437 -10.222  -6.537 -0.15 -0.00    +0.000 A 
DOCKED: ATOM      9  C   UNL     1      25.107  -9.867  -6.312 -0.28 -0.00    +0.000 A 
DOCKED: ATOM     10  N   UNL     1      24.341 -10.601  -5.463 -0.43 -0.00    +0.000 NA
DOCKED: ATOM     11  C   UNL     1      24.838 -11.681  -4.802 -0.32 -0.00    +0.000 A 
DOCKED: ENDBRANCH   3   6
DOCKED: ENDBRANCH   1   2
DOCKED: BRANCH   1  12
DOCKED: ATOM     12  C   UNL     1      26.493 -15.859  -2.097 -0.44 -0.00    +0.000 C 
DOCKED: BRANCH  12  13
DOCKED: ATOM     13  C   UNL     1      25.026 -16.191  -1.772 -0.56 -0.00    +0.000 C 
DOCKED: BRANCH  13  14
DOCKED: ATOM     14  C   UNL     1      24.824 -16.948  -0.446 -0.46 -0.00    +0.000 C 
DOCKED: BRANCH  14  15
DOCKED: ATOM     15  C   UNL     1      24.301 -18.379  -0.655 -0.77 -0.00    +0.000 C 
DOCKED: BRANCH  15  16
DOCKED: ATOM     16  C   UNL     1      23.310 -18.472  -1.823 -0.56 -0.00    +0.000 C 
DOCKED: BRANCH  16  18
DOCKED: ATOM     17  O   UNL     1      21.450 -17.778  -0.490 -1.66 -0.00    +0.000 OA
DOCKED: ATOM     18  C   UNL     1      21.891 -18.591  -1.348 -0.55 -0.00    +0.000 C 
DOCKED: ATOM     19  N   UNL     1      21.048 -19.634  -1.841 -0.65 -0.00    +0.000 N 
DOCKED: ATOM     20  O   UNL     1      19.768 -19.742  -1.411 -2.18 -0.00    +0.000 OA
DOCKED: ATOM     21  H   UNL     1      21.399 -20.279  -2.496 -0.58 -0.00    +0.000 HD
DOCKED: ENDBRANCH  16  18
DOCKED: ENDBRANCH  15  16
DOCKED: ENDBRANCH  14  15
DOCKED: ENDBRANCH  13  14
DOCKED: ENDBRANCH  12  13
DOCKED: ENDBRANCH   1  12
DOCKED: TORSDOF 8
DOCKED: TER
DOCKED: ENDMDL
________________________________________________________________________________


	BEGINNING GENETIC ALGORITHM DOCKING 97 of 100
Run: 97 Seed: 873361015 663246733 [ Run 97 of 100 GA/GALS ]
Beginning LAMARCKIAN GENETIC ALGORITHM (LGA), with a maximum of 2500000 energy evaluations.

Final-Value: -12.958


	FINAL GENETIC ALGORITHM DOCKED STATE
	_______________________________________________


Detailed state:  trans 26.739 -16.811 -1.520 quatxyzw 0.373909 -0.891982 0.111204 -0.228459 center -0.033 -0.045 -0.218 ntor 8 -26.5197 163.4611 135.3240 -175.8898 160.1499 131.0256 86.0824 -67.4687
State:	 26.739 -16.811  -1.520   0.384 -0.916  0.114 -153.587    -26.52  163.46  135.32 -175.89  160.15  131.03   86.08  -67.47

DOCKED: MODEL       97
DOCKED: USER    Run = 97
DOCKED: USER    DPF = ligand_dock.biased.dpf
DOCKED: USER  
DOCKED: USER    Estimated Free Energy of Binding    =   -9.73 kcal/mol  [=(1)+(2)+(3)-(4)]
DOCKED: USER    Estimated Inhibition Constant, Ki   =   74.36 nM (nanomolar)  [Temperature = 298.15 K]
DOCKED: USER    
DOCKED: USER    (1) Final Intermolecular Energy     =  -12.11 kcal/mol
DOCKED: USER        vdW + Hbond + desolv Energy     =  -12.11 kcal/mol
DOCKED: USER        Electrostatic Energy            =   +0.00 kcal/mol
DOCKED: USER    (2) Final Total Internal Energy     =   -0.85 kcal/mol
DOCKED: USER    (3) Torsional Free Energy           =   +2.39 kcal/mol
DOCKED: USER    (4) Unbound System's Energy  [=(2)] =   -0.85 kcal/mol
DOCKED: USER    
DOCKED: USER    
DOCKED: USER    NEWDPF move ligand.pdbqt
DOCKED: USER    NEWDPF about -0.033000 -0.045000 -0.218000
DOCKED: USER    NEWDPF tran0 26.738947 -16.811351 -1.520470
DOCKED: USER    NEWDPF quaternion0 0.373909 -0.891982 0.111204 -0.228459
DOCKED: USER    NEWDPF axisangle0 0.384066 -0.916213 0.114225 -153.587247
DOCKED: USER    NEWDPF quat0 0.384066 -0.916213 0.114225 -153.587247
DOCKED: USER    NEWDPF dihe0 -26.52 163.46 135.32 -175.89 160.15 131.03 86.08 -67.47 
DOCKED: USER  keepresnum = 1 
DOCKED: USER  
DOCKED: REMARK  Name = 
DOCKED: REMARK  8 active torsions:
DOCKED: REMARK  status: ('A' for Active; 'I' for Inactive)
DOCKED: REMARK    1  A    between atoms: C_2  and  C_5
DOCKED: REMARK    2  A    between atoms: C_5  and  C_6
DOCKED: REMARK    3  A    between atoms: C_6  and  C_7
DOCKED: REMARK    4  A    between atoms: C_7  and  C_8
DOCKED: REMARK    5  A    between atoms: C_8  and  C_9
DOCKED: REMARK    6  A    between atoms: C_9  and  C_10
DOCKED: REMARK    7  A    between atoms: C_10  and  C_11
DOCKED: REMARK    8  A    between atoms: N_12  and  C_13
DOCKED: REMARK                            x       y       z     vdW  Elec       q    Type
DOCKED: REMARK                         _______ _______ _______ _____ _____    ______ ____
DOCKED: USER                              x       y       z     vdW  Elec       q    Type
DOCKED: USER                           _______ _______ _______ _____ _____    ______ ____
DOCKED: ROOT
DOCKED: ATOM      1  C   UNL     1      25.834 -15.326  -1.656 -0.45 -0.00    +0.000 C 
DOCKED: ENDROOT
DOCKED: BRANCH   1   2
DOCKED: ATOM      2  C   UNL     1      26.791 -14.705  -2.629 -0.34 -0.00    +0.000 C 
DOCKED: ATOM      3  N   UNL     1      26.866 -15.201  -3.974 -0.41 -0.00    +0.000 N 
DOCKED: ATOM      4  O   UNL     1      27.526 -13.752  -2.251 -0.19 -0.00    +0.000 OA
DOCKED: ATOM      5  H   UNL     1      26.399 -16.042  -4.183 -0.03 -0.00    +0.000 HD
DOCKED: BRANCH   3   6
DOCKED: ATOM      6  C   UNL     1      27.582 -14.548  -5.037 -0.36 -0.00    +0.000 A 
DOCKED: ATOM      7  C   UNL     1      27.395 -13.178  -5.259 -0.24 -0.00    +0.000 A 
DOCKED: ATOM      8  C   UNL     1      28.101 -12.529  -6.274 -0.19 -0.00    +0.000 A 
DOCKED: ATOM      9  C   UNL     1      29.006 -13.254  -7.048 -0.25 -0.00    +0.000 A 
DOCKED: ATOM     10  N   UNL     1      29.201 -14.577  -6.806 -0.35 -0.00    +0.000 NA
DOCKED: ATOM     11  C   UNL     1      28.521 -15.234  -5.828 -0.37 -0.00    +0.000 A 
DOCKED: ENDBRANCH   3   6
DOCKED: ENDBRANCH   1   2
DOCKED: BRANCH   1  12
DOCKED: ATOM     12  C   UNL     1      25.193 -16.580  -2.266 -0.58 -0.00    +0.000 C 
DOCKED: BRANCH  12  13
DOCKED: ATOM     13  C   UNL     1      25.525 -17.860  -1.477 -0.51 -0.00    +0.000 C 
DOCKED: BRANCH  13  14
DOCKED: ATOM     14  C   UNL     1      25.080 -17.832  -0.004 -0.60 -0.00    +0.000 C 
DOCKED: BRANCH  14  15
DOCKED: ATOM     15  C   UNL     1      23.617 -18.267   0.181 -0.63 -0.00    +0.000 C 
DOCKED: BRANCH  15  16
DOCKED: ATOM     16  C   UNL     1      22.973 -18.722  -1.136 -0.81 -0.00    +0.000 C 
DOCKED: BRANCH  16  18
DOCKED: ATOM     17  O   UNL     1      20.920 -17.574  -0.710 -2.11 -0.00    +0.000 OA
DOCKED: ATOM     18  C   UNL     1      21.475 -18.642  -1.085 -0.80 -0.00    +0.000 C 
DOCKED: ATOM     19  N   UNL     1      20.678 -19.776  -1.433 -0.78 -0.00    +0.000 N 
DOCKED: ATOM     20  O   UNL     1      19.326 -19.704  -1.387 -1.81 -0.00    +0.000 OA
DOCKED: ATOM     21  H   UNL     1      21.113 -20.615  -1.709 -0.30 -0.00    +0.000 HD
DOCKED: ENDBRANCH  16  18
DOCKED: ENDBRANCH  15  16
DOCKED: ENDBRANCH  14  15
DOCKED: ENDBRANCH  13  14
DOCKED: ENDBRANCH  12  13
DOCKED: ENDBRANCH   1  12
DOCKED: TORSDOF 8
DOCKED: TER
DOCKED: ENDMDL
________________________________________________________________________________


	BEGINNING GENETIC ALGORITHM DOCKING 98 of 100
Run: 98 Seed: 1794852077 1231610005 [ Run 98 of 100 GA/GALS ]
Beginning LAMARCKIAN GENETIC ALGORITHM (LGA), with a maximum of 2500000 energy evaluations.

Final-Value: -13.418


	FINAL GENETIC ALGORITHM DOCKED STATE
	_______________________________________________


Detailed state:  trans 26.151 -14.843 -1.716 quatxyzw 0.183371 -0.642420 0.664468 -0.334894 center -0.033 -0.045 -0.218 ntor 8 -29.3753 -101.7439 145.4932 -165.4580 153.1610 -141.3655 0.5670 179.8504
State:	 26.151 -14.843  -1.716   0.195 -0.682  0.705 -140.868    -29.38 -101.74  145.49 -165.46  153.16 -141.37    0.57  179.85

DOCKED: MODEL       98
DOCKED: USER    Run = 98
DOCKED: USER    DPF = ligand_dock.biased.dpf
DOCKED: USER  
DOCKED: USER    Estimated Free Energy of Binding    =  -10.01 kcal/mol  [=(1)+(2)+(3)-(4)]
DOCKED: USER    Estimated Inhibition Constant, Ki   =   45.85 nM (nanomolar)  [Temperature = 298.15 K]
DOCKED: USER    
DOCKED: USER    (1) Final Intermolecular Energy     =  -12.40 kcal/mol
DOCKED: USER        vdW + Hbond + desolv Energy     =  -12.40 kcal/mol
DOCKED: USER        Electrostatic Energy            =   +0.00 kcal/mol
DOCKED: USER    (2) Final Total Internal Energy     =   -1.02 kcal/mol
DOCKED: USER    (3) Torsional Free Energy           =   +2.39 kcal/mol
DOCKED: USER    (4) Unbound System's Energy  [=(2)] =   -1.02 kcal/mol
DOCKED: USER    
DOCKED: USER    
DOCKED: USER    NEWDPF move ligand.pdbqt
DOCKED: USER    NEWDPF about -0.033000 -0.045000 -0.218000
DOCKED: USER    NEWDPF tran0 26.150906 -14.843041 -1.715952
DOCKED: USER    NEWDPF quaternion0 0.183371 -0.642420 0.664468 -0.334894
DOCKED: USER    NEWDPF axisangle0 0.194609 -0.681790 0.705188 -140.867848
DOCKED: USER    NEWDPF quat0 0.194609 -0.681790 0.705188 -140.867848
DOCKED: USER    NEWDPF dihe0 -29.38 -101.74 145.49 -165.46 153.16 -141.37 0.57 179.85 
DOCKED: USER  keepresnum = 1 
DOCKED: USER  
DOCKED: REMARK  Name = 
DOCKED: REMARK  8 active torsions:
DOCKED: REMARK  status: ('A' for Active; 'I' for Inactive)
DOCKED: REMARK    1  A    between atoms: C_2  and  C_5
DOCKED: REMARK    2  A    between atoms: C_5  and  C_6
DOCKED: REMARK    3  A    between atoms: C_6  and  C_7
DOCKED: REMARK    4  A    between atoms: C_7  and  C_8
DOCKED: REMARK    5  A    between atoms: C_8  and  C_9
DOCKED: REMARK    6  A    between atoms: C_9  and  C_10
DOCKED: REMARK    7  A    between atoms: C_10  and  C_11
DOCKED: REMARK    8  A    between atoms: N_12  and  C_13
DOCKED: REMARK                            x       y       z     vdW  Elec       q    Type
DOCKED: REMARK                         _______ _______ _______ _____ _____    ______ ____
DOCKED: USER                              x       y       z     vdW  Elec       q    Type
DOCKED: USER                           _______ _______ _______ _____ _____    ______ ____
DOCKED: ROOT
DOCKED: ATOM      1  C   UNL     1      25.329 -14.714  -3.249 -0.50 -0.00    +0.000 C 
DOCKED: ENDROOT
DOCKED: BRANCH   1   2
DOCKED: ATOM      2  C   UNL     1      26.454 -15.330  -4.027 -0.53 -0.00    +0.000 C 
DOCKED: ATOM      3  N   UNL     1      27.751 -15.462  -3.427 -0.28 -0.00    +0.000 N 
DOCKED: ATOM      4  O   UNL     1      26.247 -15.722  -5.208 -1.16 +0.00    +0.000 OA
DOCKED: ATOM      5  H   UNL     1      27.913 -15.001  -2.572 +0.00 -0.00    +0.000 HD
DOCKED: BRANCH   3   6
DOCKED: ATOM      6  C   UNL     1      28.830 -16.222  -3.995 -0.21 -0.00    +0.000 A 
DOCKED: ATOM      7  C   UNL     1      29.131 -16.088  -5.357 -0.29 -0.00    +0.000 A 
DOCKED: ATOM      8  C   UNL     1      30.191 -16.805  -5.916 -0.30 -0.00    +0.000 A 
DOCKED: ATOM      9  C   UNL     1      30.955 -17.640  -5.101 -0.22 -0.00    +0.000 A 
DOCKED: ATOM     10  N   UNL     1      30.673 -17.742  -3.776 -0.20 -0.00    +0.000 NA
DOCKED: ATOM     11  C   UNL     1      29.642 -17.059  -3.209 -0.20 -0.00    +0.000 A 
DOCKED: ENDBRANCH   3   6
DOCKED: ENDBRANCH   1   2
DOCKED: BRANCH   1  12
DOCKED: ATOM     12  C   UNL     1      24.759 -15.726  -2.246 -0.29 -0.00    +0.000 C 
DOCKED: BRANCH  12  13
DOCKED: ATOM     13  C   UNL     1      25.560 -17.040  -2.208 -0.53 -0.00    +0.000 C 
DOCKED: BRANCH  13  14
DOCKED: ATOM     14  C   UNL     1      25.619 -17.708  -0.822 -0.65 -0.00    +0.000 C 
DOCKED: BRANCH  14  15
DOCKED: ATOM     15  C   UNL     1      24.327 -18.467  -0.474 -0.73 -0.00    +0.000 C 
DOCKED: BRANCH  15  16
DOCKED: ATOM     16  C   UNL     1      23.432 -18.686  -1.701 -0.66 -0.00    +0.000 C 
DOCKED: BRANCH  16  18
DOCKED: ATOM     17  O   UNL     1      21.513 -17.768  -0.610 -1.63 -0.00    +0.000 OA
DOCKED: ATOM     18  C   UNL     1      21.975 -18.686  -1.339 -0.63 -0.00    +0.000 C 
DOCKED: ATOM     19  N   UNL     1      21.117 -19.735  -1.794 -0.62 -0.00    +0.000 N 
DOCKED: ATOM     20  O   UNL     1      19.803 -19.737  -1.467 -2.23 -0.00    +0.000 OA
DOCKED: ATOM     21  H   UNL     1      21.483 -20.462  -2.349 -0.55 -0.00    +0.000 HD
DOCKED: ENDBRANCH  16  18
DOCKED: ENDBRANCH  15  16
DOCKED: ENDBRANCH  14  15
DOCKED: ENDBRANCH  13  14
DOCKED: ENDBRANCH  12  13
DOCKED: ENDBRANCH   1  12
DOCKED: TORSDOF 8
DOCKED: TER
DOCKED: ENDMDL
________________________________________________________________________________


	BEGINNING GENETIC ALGORITHM DOCKING 99 of 100
Run: 99 Seed: 903344221 1499549710 [ Run 99 of 100 GA/GALS ]
Beginning LAMARCKIAN GENETIC ALGORITHM (LGA), with a maximum of 2500000 energy evaluations.

Final-Value: -14.664


	FINAL GENETIC ALGORITHM DOCKED STATE
	_______________________________________________


Detailed state:  trans 25.989 -15.100 -0.401 quatxyzw 0.370893 0.248972 -0.664432 -0.599150 center -0.033 -0.045 -0.218 ntor 8 -35.8108 -179.5756 -164.1892 72.0697 -22.1943 -42.1667 164.7403 -62.3537
State:	 25.989 -15.100  -0.401   0.463  0.311 -0.830 -106.382    -35.81 -179.58 -164.19   72.07  -22.19  -42.17  164.74  -62.35

DOCKED: MODEL       99
DOCKED: USER    Run = 99
DOCKED: USER    DPF = ligand_dock.biased.dpf
DOCKED: USER  
DOCKED: USER    Estimated Free Energy of Binding    =  -11.57 kcal/mol  [=(1)+(2)+(3)-(4)]
DOCKED: USER    Estimated Inhibition Constant, Ki   =    3.28 nM (nanomolar)  [Temperature = 298.15 K]
DOCKED: USER    
DOCKED: USER    (1) Final Intermolecular Energy     =  -13.96 kcal/mol
DOCKED: USER        vdW + Hbond + desolv Energy     =  -13.96 kcal/mol
DOCKED: USER        Electrostatic Energy            =   +0.00 kcal/mol
DOCKED: USER    (2) Final Total Internal Energy     =   -0.70 kcal/mol
DOCKED: USER    (3) Torsional Free Energy           =   +2.39 kcal/mol
DOCKED: USER    (4) Unbound System's Energy  [=(2)] =   -0.70 kcal/mol
DOCKED: USER    
DOCKED: USER    
DOCKED: USER    NEWDPF move ligand.pdbqt
DOCKED: USER    NEWDPF about -0.033000 -0.045000 -0.218000
DOCKED: USER    NEWDPF tran0 25.989277 -15.100112 -0.401403
DOCKED: USER    NEWDPF quaternion0 0.370893 0.248972 -0.664432 -0.599150
DOCKED: USER    NEWDPF axisangle0 0.463248 0.310968 -0.829880 -106.381917
DOCKED: USER    NEWDPF quat0 0.463248 0.310968 -0.829880 -106.381917
DOCKED: USER    NEWDPF dihe0 -35.81 -179.58 -164.19 72.07 -22.19 -42.17 164.74 -62.35 
DOCKED: USER  keepresnum = 1 
DOCKED: USER  
DOCKED: REMARK  Name = 
DOCKED: REMARK  8 active torsions:
DOCKED: REMARK  status: ('A' for Active; 'I' for Inactive)
DOCKED: REMARK    1  A    between atoms: C_2  and  C_5
DOCKED: REMARK    2  A    between atoms: C_5  and  C_6
DOCKED: REMARK    3  A    between atoms: C_6  and  C_7
DOCKED: REMARK    4  A    between atoms: C_7  and  C_8
DOCKED: REMARK    5  A    between atoms: C_8  and  C_9
DOCKED: REMARK    6  A    between atoms: C_9  and  C_10
DOCKED: REMARK    7  A    between atoms: C_10  and  C_11
DOCKED: REMARK    8  A    between atoms: N_12  and  C_13
DOCKED: REMARK                            x       y       z     vdW  Elec       q    Type
DOCKED: REMARK                         _______ _______ _______ _____ _____    ______ ____
DOCKED: USER                              x       y       z     vdW  Elec       q    Type
DOCKED: USER                           _______ _______ _______ _____ _____    ______ ____
DOCKED: ROOT
DOCKED: ATOM      1  C   UNL     1      27.674 -15.001   0.043 -0.29 -0.00    +0.000 C 
DOCKED: ENDROOT
DOCKED: BRANCH   1   2
DOCKED: ATOM      2  C   UNL     1      27.400 -14.317   1.350 -0.27 -0.00    +0.000 C 
DOCKED: ATOM      3  N   UNL     1      28.278 -14.528   2.466 -0.28 -0.00    +0.000 N 
DOCKED: ATOM      4  O   UNL     1      26.393 -13.565   1.455 -0.34 -0.00    +0.000 OA
DOCKED: ATOM      5  H   UNL     1      28.952 -15.242   2.394 -1.93 -0.00    +0.000 HD
DOCKED: BRANCH   3   6
DOCKED: ATOM      6  C   UNL     1      28.234 -13.765   3.684 -0.37 -0.00    +0.000 A 
DOCKED: ATOM      7  C   UNL     1      27.843 -12.420   3.645 -0.29 -0.00    +0.000 A 
DOCKED: ATOM      8  C   UNL     1      27.776 -11.675   4.823 -0.33 +0.00    +0.000 A 
DOCKED: ATOM      9  C   UNL     1      28.083 -12.288   6.038 -0.37 +0.00    +0.000 A 
DOCKED: ATOM     10  N   UNL     1      28.435 -13.600   6.068 -0.43 -0.00    +0.000 NA
DOCKED: ATOM     11  C   UNL     1      28.514 -14.346   4.933 -0.49 -0.00    +0.000 A 
DOCKED: ENDBRANCH   3   6
DOCKED: ENDBRANCH   1   2
DOCKED: BRANCH   1  12
DOCKED: ATOM     12  C   UNL     1      27.045 -16.401   0.034 -0.40 -0.00    +0.000 C 
DOCKED: BRANCH  12  13
DOCKED: ATOM     13  C   UNL     1      26.065 -16.604  -1.135 -0.54 -0.00    +0.000 C 
DOCKED: BRANCH  13  14
DOCKED: ATOM     14  C   UNL     1      24.599 -16.801  -0.708 -0.59 -0.00    +0.000 C 
DOCKED: BRANCH  14  15
DOCKED: ATOM     15  C   UNL     1      24.196 -18.284  -0.639 -0.78 -0.00    +0.000 C 
DOCKED: BRANCH  15  16
DOCKED: ATOM     16  C   UNL     1      23.256 -18.686  -1.784 -0.62 -0.00    +0.000 C 
DOCKED: BRANCH  16  18
DOCKED: ATOM     17  O   UNL     1      21.388 -17.738  -0.630 -1.76 -0.00    +0.000 OA
DOCKED: ATOM     18  C   UNL     1      21.816 -18.674  -1.357 -0.57 -0.00    +0.000 C 
DOCKED: ATOM     19  N   UNL     1      20.938 -19.732  -1.748 -0.71 -0.00    +0.000 N 
DOCKED: ATOM     20  O   UNL     1      19.640 -19.723  -1.362 -2.09 -0.00    +0.000 OA
DOCKED: ATOM     21  H   UNL     1      21.278 -20.472  -2.300 -0.51 -0.00    +0.000 HD
DOCKED: ENDBRANCH  16  18
DOCKED: ENDBRANCH  15  16
DOCKED: ENDBRANCH  14  15
DOCKED: ENDBRANCH  13  14
DOCKED: ENDBRANCH  12  13
DOCKED: ENDBRANCH   1  12
DOCKED: TORSDOF 8
DOCKED: TER
DOCKED: ENDMDL
________________________________________________________________________________


	BEGINNING GENETIC ALGORITHM DOCKING 100 of 100
Run: 100 Seed: 134216844 1938130203 [ Run 100 of 100 GA/GALS ]
Beginning LAMARCKIAN GENETIC ALGORITHM (LGA), with a maximum of 2500000 energy evaluations.

Final-Value: -13.724


	FINAL GENETIC ALGORITHM DOCKED STATE
	_______________________________________________


Detailed state:  trans 26.327 -16.125 -1.757 quatxyzw 0.196256 -0.813217 0.395633 -0.378995 center -0.033 -0.045 -0.218 ntor 8 -35.7200 102.5462 146.0965 -167.0924 147.9357 179.8019 -41.4344 -118.0153
State:	 26.327 -16.125  -1.757   0.212 -0.879  0.428 -135.457    -35.72  102.55  146.10 -167.09  147.94  179.80  -41.43 -118.02

DOCKED: MODEL      100
DOCKED: USER    Run = 100
DOCKED: USER    DPF = ligand_dock.biased.dpf
DOCKED: USER  
DOCKED: USER    Estimated Free Energy of Binding    =  -10.42 kcal/mol  [=(1)+(2)+(3)-(4)]
DOCKED: USER    Estimated Inhibition Constant, Ki   =   23.10 nM (nanomolar)  [Temperature = 298.15 K]
DOCKED: USER    
DOCKED: USER    (1) Final Intermolecular Energy     =  -12.80 kcal/mol
DOCKED: USER        vdW + Hbond + desolv Energy     =  -12.80 kcal/mol
DOCKED: USER        Electrostatic Energy            =   +0.00 kcal/mol
DOCKED: USER    (2) Final Total Internal Energy     =   -0.92 kcal/mol
DOCKED: USER    (3) Torsional Free Energy           =   +2.39 kcal/mol
DOCKED: USER    (4) Unbound System's Energy  [=(2)] =   -0.92 kcal/mol
DOCKED: USER    
DOCKED: USER    
DOCKED: USER    NEWDPF move ligand.pdbqt
DOCKED: USER    NEWDPF about -0.033000 -0.045000 -0.218000
DOCKED: USER    NEWDPF tran0 26.327319 -16.125436 -1.757252
DOCKED: USER    NEWDPF quaternion0 0.196256 -0.813217 0.395633 -0.378995
DOCKED: USER    NEWDPF axisangle0 0.212077 -0.878774 0.427527 -135.457124
DOCKED: USER    NEWDPF quat0 0.212077 -0.878774 0.427527 -135.457124
DOCKED: USER    NEWDPF dihe0 -35.72 102.55 146.10 -167.09 147.94 179.80 -41.43 -118.02 
DOCKED: USER  keepresnum = 1 
DOCKED: USER  
DOCKED: REMARK  Name = 
DOCKED: REMARK  8 active torsions:
DOCKED: REMARK  status: ('A' for Active; 'I' for Inactive)
DOCKED: REMARK    1  A    between atoms: C_2  and  C_5
DOCKED: REMARK    2  A    between atoms: C_5  and  C_6
DOCKED: REMARK    3  A    between atoms: C_6  and  C_7
DOCKED: REMARK    4  A    between atoms: C_7  and  C_8
DOCKED: REMARK    5  A    between atoms: C_8  and  C_9
DOCKED: REMARK    6  A    between atoms: C_9  and  C_10
DOCKED: REMARK    7  A    between atoms: C_10  and  C_11
DOCKED: REMARK    8  A    between atoms: N_12  and  C_13
DOCKED: REMARK                            x       y       z     vdW  Elec       q    Type
DOCKED: REMARK                         _______ _______ _______ _____ _____    ______ ____
DOCKED: USER                              x       y       z     vdW  Elec       q    Type
DOCKED: USER                           _______ _______ _______ _____ _____    ______ ____
DOCKED: ROOT
DOCKED: ATOM      1  C   UNL     1      25.616 -14.980  -2.864 -0.50 -0.00    +0.000 C 
DOCKED: ENDROOT
DOCKED: BRANCH   1   2
DOCKED: ATOM      2  C   UNL     1      26.537 -15.335  -3.994 -0.51 -0.00    +0.000 C 
DOCKED: ATOM      3  N   UNL     1      27.958 -15.238  -3.816 -0.27 -0.00    +0.000 N 
DOCKED: ATOM      4  O   UNL     1      26.048 -15.711  -5.094 -1.08 +0.00    +0.000 OA
DOCKED: ATOM      5  H   UNL     1      28.292 -14.790  -3.006 +0.01 -0.00    +0.000 HD
DOCKED: BRANCH   3   6
DOCKED: ATOM      6  C   UNL     1      28.925 -15.753  -4.747 -0.29 -0.00    +0.000 A 
DOCKED: ATOM      7  C   UNL     1      29.694 -16.872  -4.400 -0.24 -0.00    +0.000 A 
DOCKED: ATOM      8  C   UNL     1      30.621 -17.394  -5.304 -0.26 -0.00    +0.000 A 
DOCKED: ATOM      9  C   UNL     1      30.759 -16.801  -6.559 -0.28 -0.00    +0.000 A 
DOCKED: ATOM     10  N   UNL     1      29.989 -15.733  -6.896 -0.32 -0.00    +0.000 NA
DOCKED: ATOM     11  C   UNL     1      29.083 -15.202  -6.031 -0.34 -0.00    +0.000 A 
DOCKED: ENDBRANCH   3   6
DOCKED: ENDBRANCH   1   2
DOCKED: BRANCH   1  12
DOCKED: ATOM     12  C   UNL     1      24.755 -16.190  -2.479 -0.28 -0.00    +0.000 C 
DOCKED: BRANCH  12  13
DOCKED: ATOM     13  C   UNL     1      25.579 -17.331  -1.855 -0.53 -0.00    +0.000 C 
DOCKED: BRANCH  13  14
DOCKED: ATOM     14  C   UNL     1      25.371 -17.510  -0.340 -0.64 -0.00    +0.000 C 
DOCKED: BRANCH  14  15
DOCKED: ATOM     15  C   UNL     1      24.007 -18.134   0.001 -0.70 -0.00    +0.000 C 
DOCKED: BRANCH  15  16
DOCKED: ATOM     16  C   UNL     1      23.309 -18.719  -1.235 -0.80 -0.00    +0.000 C 
DOCKED: BRANCH  16  18
DOCKED: ATOM     17  O   UNL     1      21.297 -17.542  -0.700 -1.83 -0.00    +0.000 OA
DOCKED: ATOM     18  C   UNL     1      21.815 -18.603  -1.142 -0.75 -0.00    +0.000 C 
DOCKED: ATOM     19  N   UNL     1      20.980 -19.698  -1.524 -0.75 -0.00    +0.000 N 
DOCKED: ATOM     20  O   UNL     1      19.632 -19.595  -1.439 -2.08 -0.00    +0.000 OA
DOCKED: ATOM     21  H   UNL     1      21.386 -20.533  -1.852 -0.37 -0.00    +0.000 HD
DOCKED: ENDBRANCH  16  18
DOCKED: ENDBRANCH  15  16
DOCKED: ENDBRANCH  14  15
DOCKED: ENDBRANCH  13  14
DOCKED: ENDBRANCH  12  13
DOCKED: ENDBRANCH   1  12
DOCKED: TORSDOF 8
DOCKED: TER
DOCKED: ENDMDL
________________________________________________________________________________

DPF>                           # do this many hybrid GA-LS runs

DPF> analysis                             # perform a ranked cluster analysis


		CLUSTER ANALYSIS OF CONFORMATIONS
		_________________________________

Number of conformations = 100

RMSD cluster analysis will be performed using the ligand atoms only (21 / 21 total atoms).

Outputting structurally similar clusters, ranked in order of increasing energy.


________________________________________________________________________________

Number of distinct conformational clusters found = 11,  out of 100 runs,
Using an rmsd-tolerance of 2.0 A


	CLUSTERING HISTOGRAM
	____________________

________________________________________________________________________________
     |           |     |           |     |                                    
Clus | Lowest    | Run | Mean      | Num | Histogram                          
-ter | Binding   |     | Binding   | in  |                                    
Rank | Energy    |     | Energy    | Clus|    5    10   15   20   25   30   35
_____|___________|_____|___________|_____|____:____|____:____|____:____|____:___
   1 |    -12.05 |  76 |    -10.78 |  42 |##########################################
   2 |    -11.06 |  48 |     -9.98 |  30 |##############################
   3 |    -10.96 |  71 |    -10.12 |   8 |########
   4 |    -10.19 |  55 |     -9.75 |   3 |###
   5 |     -9.88 |  18 |     -9.52 |   3 |###
   6 |     -9.77 |  57 |     -9.26 |   2 |##
   7 |     -9.66 |  73 |     -9.46 |   6 |######
   8 |     -9.35 |   4 |     -9.29 |   2 |##
   9 |     -9.32 |  70 |     -9.26 |   2 |##
  10 |     -9.23 |  78 |     -9.23 |   1 |#
  11 |     -9.22 |  22 |     -9.22 |   1 |#
_____|___________|_____|___________|_____|______________________________________


Number of multi-member conformational clusters found = 9, out of 100 runs.

	RMSD TABLE
	__________

_____________________________________________________________________
     |      |      |           |         |                 |
Rank | Sub- | Run  | Binding   | Cluster | Reference       | Grep
     | Rank |      | Energy    | RMSD    | RMSD            | Pattern
_____|______|______|___________|_________|_________________|___________
   1      1     76      -12.05      0.00     28.43           RANKING
   1      2     40      -11.95      0.80     28.48           RANKING
   1      3     35      -11.83      0.67     28.60           RANKING
   1      4     66      -11.71      0.80     28.52           RANKING
   1      5     95      -11.63      0.64     28.54           RANKING
   1      6     58      -11.60      0.66     28.61           RANKING
   1      7     99      -11.57      0.68     28.58           RANKING
   1      8     26      -11.57      0.70     28.41           RANKING
   1      9     29      -11.51      0.88     28.40           RANKING
   1     10     81      -11.46      0.70     28.53           RANKING
   1     11     91      -11.45      0.96     28.87           RANKING
   1     12     17      -11.36      0.83     28.87           RANKING
   1     13     10      -11.34      0.78     28.60           RANKING
   1     14     88      -11.30      0.96     28.61           RANKING
   1     15     75      -11.27      0.88     28.59           RANKING
   1     16     74      -11.26      0.79     28.56           RANKING
   1     17     72      -11.26      1.00     28.69           RANKING
   1     18     23      -11.24      0.74     28.43           RANKING
   1     19     77      -11.05      1.17     28.45           RANKING
   1     20     28      -11.03      0.78     28.74           RANKING
   1     21     56      -10.98      0.89     28.58           RANKING
   1     22     82      -10.71      0.93     28.67           RANKING
   1     23     46      -10.70      0.66     28.58           RANKING
   1     24     63      -10.60      1.40     28.32           RANKING
   1     25     14      -10.55      1.80     28.33           RANKING
   1     26     86      -10.49      0.61     28.37           RANKING
   1     27     11      -10.45      0.99     28.84           RANKING
   1     28     85      -10.44      1.09     28.86           RANKING
   1     29     61      -10.44      1.45     28.73           RANKING
   1     30      5      -10.36      1.85     28.18           RANKING
   1     31     60      -10.33      1.51     28.41           RANKING
   1     32     44      -10.22      1.07     28.44           RANKING
   1     33     68      -10.17      1.02     28.76           RANKING
   1     34     21      -10.09      1.95     29.15           RANKING
   1     35     92       -9.89      1.23     28.86           RANKING
   1     36      8       -9.86      1.69     28.89           RANKING
   1     37     69       -9.84      1.51     28.82           RANKING
   1     38     33       -9.67      0.94     28.40           RANKING
   1     39     64       -9.63      1.14     29.01           RANKING
   1     40     49       -9.49      1.36     28.47           RANKING
   1     41     42       -9.34      1.63     28.07           RANKING
   1     42     79       -9.15      1.06     28.76           RANKING
   2      1     48      -11.06      0.00     29.48           RANKING
   2      2      2      -11.06      0.83     29.75           RANKING
   2      3     87      -10.70      1.68     28.67           RANKING
   2      4     12      -10.60      0.83     29.37           RANKING
   2      5      1      -10.43      1.99     28.38           RANKING
   2      6    100      -10.42      0.78     29.56           RANKING
   2      7     45      -10.38      1.53     29.10           RANKING
   2      8     27      -10.35      2.00     29.15           RANKING
   2      9      7      -10.34      1.53     29.32           RANKING
   2     10      6      -10.28      0.80     29.24           RANKING
   2     11     84      -10.23      1.25     29.71           RANKING
   2     12     13      -10.18      1.29     29.04           RANKING
   2     13     83      -10.17      1.39     29.82           RANKING
   2     14     98      -10.01      0.98     29.64           RANKING
   2     15     34       -9.98      1.44     30.24           RANKING
   2     16     51       -9.88      1.17     29.90           RANKING
   2     17     20       -9.86      1.56     28.96           RANKING
   2     18     41       -9.83      1.79     28.95           RANKING
   2     19     43       -9.82      1.55     30.13           RANKING
   2     20     97       -9.73      1.71     28.64           RANKING
   2     21     94       -9.65      1.84     28.96           RANKING
   2     22     37       -9.59      1.25     29.48           RANKING
   2     23     50       -9.50      1.11     29.54           RANKING
   2     24     90       -9.47      1.72     28.97           RANKING
   2     25     24       -9.41      1.91     30.06           RANKING
   2     26     16       -9.36      1.46     28.90           RANKING
   2     27     80       -9.32      1.76     29.19           RANKING
   2     28     67       -9.32      1.20     29.63           RANKING
   2     29     47       -9.30      1.87     29.35           RANKING
   2     30     39       -9.28      1.88     29.12           RANKING
   3      1     71      -10.96      0.00     27.05           RANKING
   3      2     93      -10.82      0.93     26.64           RANKING
   3      3     25      -10.37      1.29     26.95           RANKING
   3      4     52      -10.01      1.26     27.29           RANKING
   3      5     96       -9.88      1.16     27.27           RANKING
   3      6     30       -9.77      1.43     26.97           RANKING
   3      7     89       -9.61      1.55     27.56           RANKING
   3      8     53       -9.54      1.36     27.08           RANKING
   4      1     55      -10.19      0.00     28.38           RANKING
   4      2     31       -9.71      1.15     28.51           RANKING
   4      3     15       -9.35      1.86     28.39           RANKING
   5      1     18       -9.88      0.00     28.20           RANKING
   5      2     19       -9.51      1.87     27.94           RANKING
   5      3     62       -9.16      1.63     29.20           RANKING
   6      1     57       -9.77      0.00     27.21           RANKING
   6      2     65       -8.75      1.42     27.72           RANKING
   7      1     73       -9.66      0.00     27.77           RANKING
   7      2     36       -9.64      1.17     27.63           RANKING
   7      3     54       -9.44      0.67     27.82           RANKING
   7      4      3       -9.42      1.62     28.11           RANKING
   7      5     59       -9.38      1.54     27.76           RANKING
   7      6      9       -9.21      1.37     27.75           RANKING
   8      1      4       -9.35      0.00     27.55           RANKING
   8      2     38       -9.23      1.94     28.22           RANKING
   9      1     70       -9.32      0.00     29.99           RANKING
   9      2     32       -9.19      1.32     29.60           RANKING
  10      1     78       -9.23      0.00     28.01           RANKING
  11      1     22       -9.22      0.00     30.33           RANKING
_______________________________________________________________________



	INFORMATION ENTROPY ANALYSIS FOR THIS CLUSTERING
	________________________________________________


Information entropy for this clustering = 0.35  (rmstol = 2.00 Angstrom)

_______________________________________________________________________


	STATISTICAL MECHANICAL ANALYSIS
	_______________________________


Partition function, Q =   101.74            at Temperature, T = 298.15 K
Free energy,        A ~ -2738.70 kcal/mol   at Temperature, T = 298.15 K
Internal energy,    U =   -10.22 kcal/mol   at Temperature, T = 298.15 K
Entropy,            S =     9.15 kcal/mol/K at Temperature, T = 298.15 K

_______________________________________________________________________


	LOWEST ENERGY DOCKED CONFORMATION from EACH CLUSTER
	___________________________________________________



Keeping original residue number (specified in the input PDBQ file) for outputting.

MODEL       76
USER    Run = 76
USER    Cluster Rank = 1
USER    Number of conformations in this cluster = 42
USER  
USER    RMSD from reference structure       = 28.429 A
USER  
USER    Estimated Free Energy of Binding    =  -12.05 kcal/mol  [=(1)+(2)+(3)-(4)]
USER    Estimated Inhibition Constant, Ki   =    1.48 nM (nanomolar)  [Temperature = 298.15 K]
USER    
USER    (1) Final Intermolecular Energy     =  -14.43 kcal/mol
USER        vdW + Hbond + desolv Energy     =  -14.43 kcal/mol
USER        Electrostatic Energy            =   +0.00 kcal/mol
USER    (2) Final Total Internal Energy     =   -0.71 kcal/mol
USER    (3) Torsional Free Energy           =   +2.39 kcal/mol
USER    (4) Unbound System's Energy  [=(2)] =   -0.71 kcal/mol
USER    
USER    
USER  
USER    DPF = ligand_dock.biased.dpf
USER    NEWDPF move	ligand.pdbqt
USER    NEWDPF about	-0.033000 -0.045000 -0.218000
USER    NEWDPF tran0	26.408746 -13.574915 -1.057278
USER    NEWDPF axisangle0	-0.625209 -0.007569 0.780421 150.267163
USER    NEWDPF quaternion0	-0.604281 -0.007316 0.754297 0.256566
USER    NEWDPF dihe0	176.39 179.58 82.49 48.74 -162.33 168.39 -142.88 42.06 
USER  
USER                              x       y       z    vdW   Elec        q     RMS 
ATOM      1  C   UNL     1      27.260 -14.835  -0.202 -0.30 -0.00    +0.000    28.429
ATOM      2  C   UNL     1      27.090 -14.188   1.141 -0.24 -0.00    +0.000    28.429
ATOM      3  N   UNL     1      27.981 -14.523   2.215 -0.30 -0.00    +0.000    28.429
ATOM      4  O   UNL     1      26.158 -13.356   1.312 -0.40 -0.00    +0.000    28.429
ATOM      5  H   UNL     1      28.586 -15.289   2.090 -1.52 -0.00    +0.000    28.429
ATOM      6  C   UNL     1      28.044 -13.813   3.464 -0.37 -0.00    +0.000    28.429
ATOM      7  C   UNL     1      27.790 -12.435   3.491 -0.28 -0.00    +0.000    28.429
ATOM      8  C   UNL     1      27.827 -11.739   4.700 -0.32 +0.00    +0.000    28.429
ATOM      9  C   UNL     1      28.100 -12.432   5.879 -0.39 +0.00    +0.000    28.429
ATOM     10  N   UNL     1      28.318 -13.773   5.846 -0.43 -0.00    +0.000    28.429
ATOM     11  C   UNL     1      28.293 -14.473   4.680 -0.52 -0.00    +0.000    28.429
ATOM     12  C   UNL     1      25.892 -15.206  -0.791 -0.40 -0.00    +0.000    28.429
ATOM     13  C   UNL     1      25.851 -16.643  -1.339 -0.56 -0.00    +0.000    28.429
ATOM     14  C   UNL     1      25.276 -17.681  -0.358 -0.66 -0.00    +0.000    28.429
ATOM     15  C   UNL     1      24.070 -18.440  -0.938 -0.79 -0.00    +0.000    28.429
ATOM     16  C   UNL     1      22.884 -18.480   0.035 -0.75 -0.00    +0.000    28.429
ATOM     17  O   UNL     1      20.847 -17.473  -0.711 -2.06 +0.00    +0.000    28.429
ATOM     18  C   UNL     1      21.567 -18.507  -0.687 -0.86 -0.00    +0.000    28.429
ATOM     19  N   UNL     1      21.116 -19.705  -1.321 -0.73 -0.00    +0.000    28.429
ATOM     20  O   UNL     1      19.928 -19.731  -1.972 -2.37 -0.00    +0.000    28.429
ATOM     21  H   UNL     1      21.671 -20.518  -1.286 -0.19 -0.00    +0.000    28.429
TER
ENDMDL
MODEL       48
USER    Run = 48
USER    Cluster Rank = 2
USER    Number of conformations in this cluster = 30
USER  
USER    RMSD from reference structure       = 29.478 A
USER  
USER    Estimated Free Energy of Binding    =  -11.06 kcal/mol  [=(1)+(2)+(3)-(4)]
USER    Estimated Inhibition Constant, Ki   =    7.78 nM (nanomolar)  [Temperature = 298.15 K]
USER    
USER    (1) Final Intermolecular Energy     =  -13.45 kcal/mol
USER        vdW + Hbond + desolv Energy     =  -13.45 kcal/mol
USER        Electrostatic Energy            =   +0.00 kcal/mol
USER    (2) Final Total Internal Energy     =   -0.93 kcal/mol
USER    (3) Torsional Free Energy           =   +2.39 kcal/mol
USER    (4) Unbound System's Energy  [=(2)] =   -0.93 kcal/mol
USER    
USER    
USER  
USER    DPF = ligand_dock.biased.dpf
USER    NEWDPF move	ligand.pdbqt
USER    NEWDPF about	-0.033000 -0.045000 -0.218000
USER    NEWDPF tran0	26.399270 -15.971930 -1.785116
USER    NEWDPF axisangle0	-0.280045 0.819859 -0.499405 135.992193
USER    NEWDPF quaternion0	-0.259646 0.760140 -0.463028 0.374670
USER    NEWDPF dihe0	124.88 -62.69 80.95 143.47 10.19 -74.85 -35.79 -74.51 
USER  
USER                              x       y       z    vdW   Elec        q     RMS 
ATOM      1  C   UNL     1      25.441 -15.092  -2.948 -0.52 -0.00    +0.000    29.478
ATOM      2  C   UNL     1      26.356 -15.399  -4.096 -0.53 -0.00    +0.000    29.478
ATOM      3  N   UNL     1      27.765 -15.149  -3.975 -0.30 -0.00    +0.000    29.478
ATOM      4  O   UNL     1      25.874 -15.871  -5.162 -1.10 +0.00    +0.000    29.478
ATOM      5  H   UNL     1      28.077 -14.634  -3.197 +0.00 -0.00    +0.000    29.478
ATOM      6  C   UNL     1      28.749 -15.601  -4.921 -0.31 -0.00    +0.000    29.478
ATOM      7  C   UNL     1      29.019 -14.833  -6.061 -0.33 -0.00    +0.000    29.478
ATOM      8  C   UNL     1      29.988 -15.250  -6.975 -0.28 -0.00    +0.000    29.478
ATOM      9  C   UNL     1      30.695 -16.428  -6.732 -0.28 -0.00    +0.000    29.478
ATOM     10  N   UNL     1      30.444 -17.152  -5.609 -0.28 -0.00    +0.000    29.478
ATOM     11  C   UNL     1      29.501 -16.769  -4.706 -0.23 -0.00    +0.000    29.478
ATOM     12  C   UNL     1      24.832 -16.387  -2.392 -0.40 -0.00    +0.000    29.478
ATOM     13  C   UNL     1      25.359 -16.736  -0.989 -0.59 -0.00    +0.000    29.478
ATOM     14  C   UNL     1      25.471 -18.247  -0.711 -0.67 -0.00    +0.000    29.478
ATOM     15  C   UNL     1      24.105 -18.953  -0.715 -0.67 -0.00    +0.000    29.478
ATOM     16  C   UNL     1      22.996 -18.080  -0.112 -0.76 -0.00    +0.000    29.478
ATOM     17  O   UNL     1      20.767 -17.452  -0.708 -2.04 +0.00    +0.000    29.478
ATOM     18  C   UNL     1      21.667 -18.334  -0.762 -0.83 -0.00    +0.000    29.478
ATOM     19  N   UNL     1      21.407 -19.578  -1.416 -0.67 -0.00    +0.000    29.478
ATOM     20  O   UNL     1      20.208 -19.808  -2.002 -2.33 -0.00    +0.000    29.478
ATOM     21  H   UNL     1      22.105 -20.273  -1.442 -0.32 -0.00    +0.000    29.478
TER
ENDMDL
MODEL       71
USER    Run = 71
USER    Cluster Rank = 3
USER    Number of conformations in this cluster = 8
USER  
USER    RMSD from reference structure       = 27.050 A
USER  
USER    Estimated Free Energy of Binding    =  -10.96 kcal/mol  [=(1)+(2)+(3)-(4)]
USER    Estimated Inhibition Constant, Ki   =    9.20 nM (nanomolar)  [Temperature = 298.15 K]
USER    
USER    (1) Final Intermolecular Energy     =  -13.35 kcal/mol
USER        vdW + Hbond + desolv Energy     =  -13.35 kcal/mol
USER        Electrostatic Energy            =   +0.00 kcal/mol
USER    (2) Final Total Internal Energy     =   -0.83 kcal/mol
USER    (3) Torsional Free Energy           =   +2.39 kcal/mol
USER    (4) Unbound System's Energy  [=(2)] =   -0.83 kcal/mol
USER    
USER    
USER  
USER    DPF = ligand_dock.biased.dpf
USER    NEWDPF move	ligand.pdbqt
USER    NEWDPF about	-0.033000 -0.045000 -0.218000
USER    NEWDPF tran0	24.481534 -15.978340 -2.797281
USER    NEWDPF axisangle0	-0.492419 0.196655 -0.847851 -90.622356
USER    NEWDPF quaternion0	-0.350079 0.139809 -0.602768 -0.703256
USER    NEWDPF dihe0	156.16 171.80 82.88 93.90 -40.85 -164.28 144.25 -104.10 
USER  
USER                              x       y       z    vdW   Elec        q     RMS 
ATOM      1  C   UNL     1      25.563 -15.574  -4.106 -0.53 -0.00    +0.000    27.050
ATOM      2  C   UNL     1      25.242 -14.110  -4.062 -0.51 -0.00    +0.000    27.050
ATOM      3  N   UNL     1      26.305 -13.146  -3.995 -0.32 -0.00    +0.000    27.050
ATOM      4  O   UNL     1      24.037 -13.740  -4.078 -1.08 -0.00    +0.000    27.050
ATOM      5  H   UNL     1      27.216 -13.476  -3.821 +0.00 -0.00    +0.000    27.050
ATOM      6  C   UNL     1      26.123 -11.730  -4.164 -0.22 -0.00    +0.000    27.050
ATOM      7  C   UNL     1      25.245 -11.257  -5.148 -0.34 -0.00    +0.000    27.050
ATOM      8  C   UNL     1      25.043  -9.884  -5.307 -0.30 -0.00    +0.000    27.050
ATOM      9  C   UNL     1      25.709  -8.994  -4.466 -0.18 -0.00    +0.000    27.050
ATOM     10  N   UNL     1      26.538  -9.464  -3.496 -0.13 -0.00    +0.000    27.050
ATOM     11  C   UNL     1      26.756 -10.796  -3.325 -0.12 -0.00    +0.000    27.050
ATOM     12  C   UNL     1      26.213 -16.017  -2.788 -0.48 -0.00    +0.000    27.050
ATOM     13  C   UNL     1      25.181 -16.280  -1.676 -0.58 -0.00    +0.000    27.050
ATOM     14  C   UNL     1      25.252 -17.692  -1.066 -0.68 -0.00    +0.000    27.050
ATOM     15  C   UNL     1      23.980 -18.516  -1.330 -0.74 -0.00    +0.000    27.050
ATOM     16  C   UNL     1      22.893 -18.264  -0.276 -0.82 -0.00    +0.000    27.050
ATOM     17  O   UNL     1      20.676 -17.483  -0.717 -2.08 +0.00    +0.000    27.050
ATOM     18  C   UNL     1      21.513 -18.417  -0.846 -0.81 -0.00    +0.000    27.050
ATOM     19  N   UNL     1      21.135 -19.626  -1.509 -0.71 -0.00    +0.000    27.050
ATOM     20  O   UNL     1      19.890 -19.767  -2.022 -2.34 -0.00    +0.000    27.050
ATOM     21  H   UNL     1      21.784 -20.362  -1.593 -0.36 -0.00    +0.000    27.050
TER
ENDMDL
MODEL       55
USER    Run = 55
USER    Cluster Rank = 4
USER    Number of conformations in this cluster = 3
USER  
USER    RMSD from reference structure       = 28.377 A
USER  
USER    Estimated Free Energy of Binding    =  -10.19 kcal/mol  [=(1)+(2)+(3)-(4)]
USER    Estimated Inhibition Constant, Ki   =   34.22 nM (nanomolar)  [Temperature = 298.15 K]
USER    
USER    (1) Final Intermolecular Energy     =  -12.57 kcal/mol
USER        vdW + Hbond + desolv Energy     =  -12.57 kcal/mol
USER        Electrostatic Energy            =   +0.00 kcal/mol
USER    (2) Final Total Internal Energy     =   -0.62 kcal/mol
USER    (3) Torsional Free Energy           =   +2.39 kcal/mol
USER    (4) Unbound System's Energy  [=(2)] =   -0.62 kcal/mol
USER    
USER    
USER  
USER    DPF = ligand_dock.biased.dpf
USER    NEWDPF move	ligand.pdbqt
USER    NEWDPF about	-0.033000 -0.045000 -0.218000
USER    NEWDPF tran0	27.182309 -16.515526 -3.388948
USER    NEWDPF axisangle0	-0.327707 0.943780 0.043433 115.061115
USER    NEWDPF quaternion0	-0.276479 0.796247 0.036644 0.536850
USER    NEWDPF dihe0	-167.97 -179.98 29.58 -13.33 -170.26 -152.93 -138.21 -29.10 
USER  
USER                              x       y       z    vdW   Elec        q     RMS 
ATOM      1  C   UNL     1      26.741 -14.855  -3.086 -0.39 -0.00    +0.000    28.377
ATOM      2  C   UNL     1      26.955 -14.425  -4.507 -0.43 -0.00    +0.000    28.377
ATOM      3  N   UNL     1      27.292 -13.061  -4.799 -0.24 -0.00    +0.000    28.377
ATOM      4  O   UNL     1      26.830 -15.272  -5.434 -1.11 +0.00    +0.000    28.377
ATOM      5  H   UNL     1      27.221 -12.402  -4.072 +0.00 -0.00    +0.000    28.377
ATOM      6  C   UNL     1      27.726 -12.595  -6.088 -0.19 -0.00    +0.000    28.377
ATOM      7  C   UNL     1      28.470 -13.444  -6.918 -0.24 -0.00    +0.000    28.377
ATOM      8  C   UNL     1      28.878 -13.010  -8.181 -0.19 -0.00    +0.000    28.377
ATOM      9  C   UNL     1      28.522 -11.732  -8.612 -0.20 -0.00    +0.000    28.377
ATOM     10  N   UNL     1      27.777 -10.927  -7.811 -0.14 -0.00    +0.000    28.377
ATOM     11  C   UNL     1      27.372 -11.324  -6.574 -0.16 -0.00    +0.000    28.377
ATOM     12  C   UNL     1      25.612 -15.892  -3.008 -0.55 -0.00    +0.000    28.377
ATOM     13  C   UNL     1      25.712 -16.785  -1.758 -0.58 -0.00    +0.000    28.377
ATOM     14  C   UNL     1      24.378 -16.994  -1.019 -0.67 -0.00    +0.000    28.377
ATOM     15  C   UNL     1      23.905 -18.457  -1.052 -0.80 -0.00    +0.000    28.377
ATOM     16  C   UNL     1      22.770 -18.726  -0.055 -0.71 -0.00    +0.000    28.377
ATOM     17  O   UNL     1      20.808 -17.540  -0.734 -2.10 +0.00    +0.000    28.377
ATOM     18  C   UNL     1      21.420 -18.642  -0.705 -0.87 -0.00    +0.000    28.377
ATOM     19  N   UNL     1      20.814 -19.808  -1.267 -0.74 -0.00    +0.000    28.377
ATOM     20  O   UNL     1      19.595 -19.734  -1.853 -2.19 -0.00    +0.000    28.377
ATOM     21  H   UNL     1      21.285 -20.672  -1.228 -0.10 -0.00    +0.000    28.377
TER
ENDMDL
MODEL       18
USER    Run = 18
USER    Cluster Rank = 5
USER    Number of conformations in this cluster = 3
USER  
USER    RMSD from reference structure       = 28.195 A
USER  
USER    Estimated Free Energy of Binding    =   -9.88 kcal/mol  [=(1)+(2)+(3)-(4)]
USER    Estimated Inhibition Constant, Ki   =   56.97 nM (nanomolar)  [Temperature = 298.15 K]
USER    
USER    (1) Final Intermolecular Energy     =  -12.27 kcal/mol
USER        vdW + Hbond + desolv Energy     =  -12.27 kcal/mol
USER        Electrostatic Energy            =   +0.00 kcal/mol
USER    (2) Final Total Internal Energy     =   -0.72 kcal/mol
USER    (3) Torsional Free Energy           =   +2.39 kcal/mol
USER    (4) Unbound System's Energy  [=(2)] =   -0.72 kcal/mol
USER    
USER    
USER  
USER    DPF = ligand_dock.biased.dpf
USER    NEWDPF move	ligand.pdbqt
USER    NEWDPF about	-0.033000 -0.045000 -0.218000
USER    NEWDPF tran0	25.518042 -16.055701 -0.465624
USER    NEWDPF axisangle0	-0.494993 0.582538 -0.644695 -171.600681
USER    NEWDPF quaternion0	-0.493664 0.580974 -0.642964 -0.073232
USER    NEWDPF dihe0	-47.61 166.84 -171.49 79.48 -44.51 128.41 166.78 -12.64 
USER  
USER                              x       y       z    vdW   Elec        q     RMS 
ATOM      1  C   UNL     1      24.823 -16.210  -2.059 -0.52 -0.00    +0.000    28.195
ATOM      2  C   UNL     1      25.882 -15.378  -2.719 -0.50 -0.00    +0.000    28.195
ATOM      3  N   UNL     1      26.221 -15.610  -4.095 -0.54 -0.00    +0.000    28.195
ATOM      4  O   UNL     1      26.470 -14.483  -2.053 -0.32 -0.00    +0.000    28.195
ATOM      5  H   UNL     1      25.860 -16.416  -4.529 -0.05 -0.00    +0.000    28.195
ATOM      6  C   UNL     1      27.056 -14.741  -4.879 -0.42 -0.00    +0.000    28.195
ATOM      7  C   UNL     1      26.852 -13.355  -4.830 -0.28 -0.00    +0.000    28.195
ATOM      8  C   UNL     1      27.670 -12.500  -5.571 -0.19 -0.00    +0.000    28.195
ATOM      9  C   UNL     1      28.701 -13.037  -6.341 -0.21 -0.00    +0.000    28.195
ATOM     10  N   UNL     1      28.907 -14.380  -6.360 -0.33 -0.00    +0.000    28.195
ATOM     11  C   UNL     1      28.120 -15.236  -5.653 -0.37 -0.00    +0.000    28.195
ATOM     12  C   UNL     1      25.443 -17.476  -1.452 -0.63 -0.00    +0.000    28.195
ATOM     13  C   UNL     1      24.440 -18.283  -0.608 -0.76 -0.00    +0.000    28.195
ATOM     14  C   UNL     1      23.163 -18.696  -1.362 -0.78 -0.00    +0.000    28.195
ATOM     15  C   UNL     1      21.887 -18.117  -0.728 -0.83 -0.00    +0.000    28.195
ATOM     16  C   UNL     1      21.148 -19.146   0.138 -0.72 -0.00    +0.000    28.195
ATOM     17  O   UNL     1      19.875 -19.733  -1.799 -2.39 -0.00    +0.000    28.195
ATOM     18  C   UNL     1      19.915 -19.668  -0.541 -0.84 -0.00    +0.000    28.195
ATOM     19  N   UNL     1      18.778 -20.065   0.229 -0.74 -0.00    +0.000    28.195
ATOM     20  O   UNL     1      17.665 -20.535  -0.382 -0.81 -0.00    +0.000    28.195
ATOM     21  H   UNL     1      18.804 -19.996   1.211 -0.03 -0.00    +0.000    28.195
TER
ENDMDL
MODEL       57
USER    Run = 57
USER    Cluster Rank = 6
USER    Number of conformations in this cluster = 2
USER  
USER    RMSD from reference structure       = 27.208 A
USER  
USER    Estimated Free Energy of Binding    =   -9.77 kcal/mol  [=(1)+(2)+(3)-(4)]
USER    Estimated Inhibition Constant, Ki   =   69.48 nM (nanomolar)  [Temperature = 298.15 K]
USER    
USER    (1) Final Intermolecular Energy     =  -12.15 kcal/mol
USER        vdW + Hbond + desolv Energy     =  -12.15 kcal/mol
USER        Electrostatic Energy            =   +0.00 kcal/mol
USER    (2) Final Total Internal Energy     =   -0.86 kcal/mol
USER    (3) Torsional Free Energy           =   +2.39 kcal/mol
USER    (4) Unbound System's Energy  [=(2)] =   -0.86 kcal/mol
USER    
USER    
USER  
USER    DPF = ligand_dock.biased.dpf
USER    NEWDPF move	ligand.pdbqt
USER    NEWDPF about	-0.033000 -0.045000 -0.218000
USER    NEWDPF tran0	24.865738 -16.252106 -0.276731
USER    NEWDPF axisangle0	-0.993883 -0.103593 0.038287 176.071042
USER    NEWDPF quaternion0	-0.993298 -0.103533 0.038264 0.034280
USER    NEWDPF dihe0	81.80 125.65 -138.89 178.55 -131.53 -176.24 -175.38 -87.80 
USER  
USER                              x       y       z    vdW   Elec        q     RMS 
ATOM      1  C   UNL     1      24.813 -17.975  -0.004 -0.63 -0.00    +0.000    27.208
ATOM      2  C   UNL     1      23.330 -18.070  -0.203 -0.77 -0.00    +0.000    27.208
ATOM      3  N   UNL     1      22.704 -19.357  -0.321 -0.67 -0.00    +0.000    27.208
ATOM      4  O   UNL     1      22.646 -17.012  -0.272 -0.78 -0.00    +0.000    27.208
ATOM      5  H   UNL     1      23.285 -20.144  -0.425 -0.24 -0.00    +0.000    27.208
ATOM      6  C   UNL     1      21.282 -19.569  -0.298 -0.66 -0.00    +0.000    27.208
ATOM      7  C   UNL     1      20.625 -19.728   0.929 -0.38 -0.00    +0.000    27.208
ATOM      8  C   UNL     1      19.242 -19.914   0.965 -0.67 -0.00    +0.000    27.208
ATOM      9  C   UNL     1      18.522 -19.919  -0.229 -0.34 -0.00    +0.000    27.208
ATOM     10  N   UNL     1      19.165 -19.736  -1.412 -1.27 -0.00    +0.000    27.208
ATOM     11  C   UNL     1      20.513 -19.560  -1.475 -0.66 -0.00    +0.000    27.208
ATOM     12  C   UNL     1      25.494 -17.503  -1.295 -0.63 -0.00    +0.000    27.208
ATOM     13  C   UNL     1      25.784 -15.992  -1.297 -0.51 -0.00    +0.000    27.208
ATOM     14  C   UNL     1      27.279 -15.631  -1.234 -0.34 -0.00    +0.000    27.208
ATOM     15  C   UNL     1      27.584 -14.260  -1.862 -0.21 -0.00    +0.000    27.208
ATOM     16  C   UNL     1      26.329 -13.590  -2.438 -0.13 -0.00    +0.000    27.208
ATOM     17  O   UNL     1      24.670 -14.112  -4.079 -1.12 -0.00    +0.000    27.208
ATOM     18  C   UNL     1      25.862 -14.262  -3.696 -0.50 -0.00    +0.000    27.208
ATOM     19  N   UNL     1      26.752 -15.092  -4.446 -0.47 -0.00    +0.000    27.208
ATOM     20  O   UNL     1      26.332 -15.699  -5.581 -1.16 +0.00    +0.000    27.208
ATOM     21  H   UNL     1      27.678 -15.223  -4.136 -0.01 -0.00    +0.000    27.208
TER
ENDMDL
MODEL       73
USER    Run = 73
USER    Cluster Rank = 7
USER    Number of conformations in this cluster = 6
USER  
USER    RMSD from reference structure       = 27.770 A
USER  
USER    Estimated Free Energy of Binding    =   -9.66 kcal/mol  [=(1)+(2)+(3)-(4)]
USER    Estimated Inhibition Constant, Ki   =   83.33 nM (nanomolar)  [Temperature = 298.15 K]
USER    
USER    (1) Final Intermolecular Energy     =  -12.04 kcal/mol
USER        vdW + Hbond + desolv Energy     =  -12.04 kcal/mol
USER        Electrostatic Energy            =   +0.00 kcal/mol
USER    (2) Final Total Internal Energy     =   -1.12 kcal/mol
USER    (3) Torsional Free Energy           =   +2.39 kcal/mol
USER    (4) Unbound System's Energy  [=(2)] =   -1.12 kcal/mol
USER    
USER    
USER  
USER    DPF = ligand_dock.biased.dpf
USER    NEWDPF move	ligand.pdbqt
USER    NEWDPF about	-0.033000 -0.045000 -0.218000
USER    NEWDPF tran0	25.054244 -13.265433 -2.909583
USER    NEWDPF axisangle0	-0.368539 -0.269687 0.889633 148.142438
USER    NEWDPF quaternion0	-0.354389 -0.259332 0.855475 0.274442
USER    NEWDPF dihe0	-98.47 157.24 141.42 -87.19 155.97 172.11 56.85 88.17 
USER  
USER                              x       y       z    vdW   Elec        q     RMS 
ATOM      1  C   UNL     1      26.474 -14.263  -3.097 -0.37 -0.00    +0.000    27.770
ATOM      2  C   UNL     1      27.049 -13.882  -1.765 -0.24 -0.00    +0.000    27.770
ATOM      3  N   UNL     1      26.192 -13.781  -0.617 -0.27 -0.00    +0.000    27.770
ATOM      4  O   UNL     1      28.285 -13.648  -1.670 -0.12 -0.00    +0.000    27.770
ATOM      5  H   UNL     1      25.220 -13.811  -0.764 -0.01 -0.00    +0.000    27.770
ATOM      6  C   UNL     1      26.665 -13.637   0.733 -0.27 -0.00    +0.000    27.770
ATOM      7  C   UNL     1      27.570 -14.571   1.254 -0.22 -0.00    +0.000    27.770
ATOM      8  C   UNL     1      28.052 -14.430   2.557 -0.25 -0.00    +0.000    27.770
ATOM      9  C   UNL     1      27.639 -13.340   3.323 -0.35 -0.00    +0.000    27.770
ATOM     10  N   UNL     1      26.782 -12.425   2.799 -0.28 +0.00    +0.000    27.770
ATOM     11  C   UNL     1      26.293 -12.543   1.535 -0.33 +0.00    +0.000    27.770
ATOM     12  C   UNL     1      25.138 -14.995  -2.909 -0.44 -0.00    +0.000    27.770
ATOM     13  C   UNL     1      25.316 -16.508  -2.692 -0.49 -0.00    +0.000    27.770
ATOM     14  C   UNL     1      25.226 -16.954  -1.221 -0.63 -0.00    +0.000    27.770
ATOM     15  C   UNL     1      23.774 -17.102  -0.735 -0.69 -0.00    +0.000    27.770
ATOM     16  C   UNL     1      23.248 -18.534  -0.900 -0.82 -0.00    +0.000    27.770
ATOM     17  O   UNL     1      21.061 -17.587  -0.703 -2.05 -0.00    +0.000    27.770
ATOM     18  C   UNL     1      21.758 -18.567  -1.083 -0.80 -0.00    +0.000    27.770
ATOM     19  N   UNL     1      21.126 -19.711  -1.659 -0.65 -0.00    +0.000    27.770
ATOM     20  O   UNL     1      19.782 -19.742  -1.823 -2.32 -0.00    +0.000    27.770
ATOM     21  H   UNL     1      21.669 -20.483  -1.939 -0.45 -0.00    +0.000    27.770
TER
ENDMDL
MODEL        4
USER    Run = 4
USER    Cluster Rank = 8
USER    Number of conformations in this cluster = 2
USER  
USER    RMSD from reference structure       = 27.555 A
USER  
USER    Estimated Free Energy of Binding    =   -9.35 kcal/mol  [=(1)+(2)+(3)-(4)]
USER    Estimated Inhibition Constant, Ki   =  140.68 nM (nanomolar)  [Temperature = 298.15 K]
USER    
USER    (1) Final Intermolecular Energy     =  -11.73 kcal/mol
USER        vdW + Hbond + desolv Energy     =  -11.73 kcal/mol
USER        Electrostatic Energy            =   +0.00 kcal/mol
USER    (2) Final Total Internal Energy     =   -1.02 kcal/mol
USER    (3) Torsional Free Energy           =   +2.39 kcal/mol
USER    (4) Unbound System's Energy  [=(2)] =   -1.02 kcal/mol
USER    
USER    
USER  
USER    DPF = ligand_dock.biased.dpf
USER    NEWDPF move	ligand.pdbqt
USER    NEWDPF about	-0.033000 -0.045000 -0.218000
USER    NEWDPF tran0	24.614804 -15.794882 -0.346035
USER    NEWDPF axisangle0	0.968682 0.166943 -0.183808 144.751027
USER    NEWDPF quaternion0	0.923213 0.159106 -0.175181 0.302777
USER    NEWDPF dihe0	-1.71 136.88 -176.50 -119.21 -34.73 83.64 -142.16 -1.96 
USER  
USER                              x       y       z    vdW   Elec        q     RMS 
ATOM      1  C   UNL     1      24.612 -17.326  -1.183 -0.70 -0.00    +0.000    27.555
ATOM      2  C   UNL     1      23.153 -17.576  -0.947 -0.75 -0.00    +0.000    27.555
ATOM      3  N   UNL     1      22.639 -18.916  -0.992 -0.75 -0.00    +0.000    27.555
ATOM      4  O   UNL     1      22.388 -16.600  -0.715 -0.72 -0.00    +0.000    27.555
ATOM      5  H   UNL     1      23.231 -19.625  -1.333 -0.10 -0.00    +0.000    27.555
ATOM      6  C   UNL     1      21.316 -19.288  -0.572 -0.75 -0.00    +0.000    27.555
ATOM      7  C   UNL     1      21.017 -19.364   0.795 -0.26 -0.00    +0.000    27.555
ATOM      8  C   UNL     1      19.730 -19.704   1.215 -0.61 -0.00    +0.000    27.555
ATOM      9  C   UNL     1      18.743 -19.947   0.261 -0.64 -0.00    +0.000    27.555
ATOM     10  N   UNL     1      19.035 -19.844  -1.063 -1.10 -0.00    +0.000    27.555
ATOM     11  C   UNL     1      20.283 -19.521  -1.497 -0.61 -0.00    +0.000    27.555
ATOM     12  C   UNL     1      24.804 -16.070  -2.045 -0.48 -0.00    +0.000    27.555
ATOM     13  C   UNL     1      26.281 -15.809  -2.393 -0.47 -0.00    +0.000    27.555
ATOM     14  C   UNL     1      27.228 -16.977  -2.063 -0.22 -0.00    +0.000    27.555
ATOM     15  C   UNL     1      28.157 -16.668  -0.876 -0.36 -0.00    +0.000    27.555
ATOM     16  C   UNL     1      27.378 -16.385   0.416 -0.25 -0.00    +0.000    27.555
ATOM     17  O   UNL     1      26.785 -14.079   0.201 -0.34 -0.00    +0.000    27.555
ATOM     18  C   UNL     1      27.466 -14.942   0.818 -0.27 -0.00    +0.000    27.555
ATOM     19  N   UNL     1      28.336 -14.539   1.878 -0.25 -0.00    +0.000    27.555
ATOM     20  O   UNL     1      28.417 -13.236   2.242 -0.23 -0.00    +0.000    27.555
ATOM     21  H   UNL     1      28.880 -15.211   2.348 -1.89 -0.00    +0.000    27.555
TER
ENDMDL
MODEL       70
USER    Run = 70
USER    Cluster Rank = 9
USER    Number of conformations in this cluster = 2
USER  
USER    RMSD from reference structure       = 29.993 A
USER  
USER    Estimated Free Energy of Binding    =   -9.32 kcal/mol  [=(1)+(2)+(3)-(4)]
USER    Estimated Inhibition Constant, Ki   =  146.68 nM (nanomolar)  [Temperature = 298.15 K]
USER    
USER    (1) Final Intermolecular Energy     =  -11.71 kcal/mol
USER        vdW + Hbond + desolv Energy     =  -11.71 kcal/mol
USER        Electrostatic Energy            =   +0.00 kcal/mol
USER    (2) Final Total Internal Energy     =   -0.71 kcal/mol
USER    (3) Torsional Free Energy           =   +2.39 kcal/mol
USER    (4) Unbound System's Energy  [=(2)] =   -0.71 kcal/mol
USER    
USER    
USER  
USER    DPF = ligand_dock.biased.dpf
USER    NEWDPF move	ligand.pdbqt
USER    NEWDPF about	-0.033000 -0.045000 -0.218000
USER    NEWDPF tran0	27.108843 -16.182393 1.355398
USER    NEWDPF axisangle0	-0.207878 0.919222 -0.334392 -151.692438
USER    NEWDPF quaternion0	-0.201567 0.891317 -0.324241 -0.244525
USER    NEWDPF dihe0	-179.80 -20.77 106.10 151.43 -91.47 -140.94 -9.12 -20.60 
USER  
USER                              x       y       z    vdW   Elec        q     RMS 
ATOM      1  C   UNL     1      27.031 -14.702   0.435 -0.29 -0.00    +0.000    29.993
ATOM      2  C   UNL     1      28.410 -14.260   0.826 -0.22 -0.00    +0.000    29.993
ATOM      3  N   UNL     1      29.000 -14.745   2.042 -0.03 -0.00    +0.000    29.993
ATOM      4  O   UNL     1      29.037 -13.459   0.080 -0.10 -0.00    +0.000    29.993
ATOM      5  H   UNL     1      28.423 -15.234   2.671 -1.58 -0.00    +0.000    29.993
ATOM      6  C   UNL     1      30.380 -14.559   2.400 -0.14 -0.00    +0.000    29.993
ATOM      7  C   UNL     1      30.705 -13.998   3.642 -0.21 -0.00    +0.000    29.993
ATOM      8  C   UNL     1      32.041 -13.833   4.010 -0.13 -0.00    +0.000    29.993
ATOM      9  C   UNL     1      33.046 -14.249   3.137 -0.10 -0.00    +0.000    29.993
ATOM     10  N   UNL     1      32.721 -14.818   1.947 -0.08 -0.00    +0.000    29.993
ATOM     11  C   UNL     1      31.426 -14.984   1.562 -0.11 -0.00    +0.000    29.993
ATOM     12  C   UNL     1      27.098 -16.008  -0.367 -0.40 -0.00    +0.000    29.993
ATOM     13  C   UNL     1      25.732 -16.708  -0.477 -0.48 -0.00    +0.000    29.993
ATOM     14  C   UNL     1      25.513 -17.471  -1.797 -0.55 -0.00    +0.000    29.993
ATOM     15  C   UNL     1      24.042 -17.864  -2.017 -0.45 -0.00    +0.000    29.993
ATOM     16  C   UNL     1      23.290 -18.067  -0.695 -0.81 -0.00    +0.000    29.993
ATOM     17  O   UNL     1      21.016 -17.326  -0.704 -1.94 +0.00    +0.000    29.993
ATOM     18  C   UNL     1      21.819 -18.275  -0.913 -0.79 -0.00    +0.000    29.993
ATOM     19  N   UNL     1      21.323 -19.549  -1.330 -0.71 -0.00    +0.000    29.993
ATOM     20  O   UNL     1      19.996 -19.738  -1.527 -2.28 -0.00    +0.000    29.993
ATOM     21  H   UNL     1      21.950 -20.294  -1.476 -0.33 -0.00    +0.000    29.993
TER
ENDMDL
MODEL       78
USER    Run = 78
USER    Cluster Rank = 10
USER    Number of conformations in this cluster = 1
USER  
USER    RMSD from reference structure       = 28.010 A
USER  
USER    Estimated Free Energy of Binding    =   -9.23 kcal/mol  [=(1)+(2)+(3)-(4)]
USER    Estimated Inhibition Constant, Ki   =  172.94 nM (nanomolar)  [Temperature = 298.15 K]
USER    
USER    (1) Final Intermolecular Energy     =  -11.61 kcal/mol
USER        vdW + Hbond + desolv Energy     =  -11.61 kcal/mol
USER        Electrostatic Energy            =   +0.00 kcal/mol
USER    (2) Final Total Internal Energy     =   -0.84 kcal/mol
USER    (3) Torsional Free Energy           =   +2.39 kcal/mol
USER    (4) Unbound System's Energy  [=(2)] =   -0.84 kcal/mol
USER    
USER    
USER  
USER    DPF = ligand_dock.biased.dpf
USER    NEWDPF move	ligand.pdbqt
USER    NEWDPF about	-0.033000 -0.045000 -0.218000
USER    NEWDPF tran0	26.651579 -15.460698 -0.194267
USER    NEWDPF axisangle0	-0.938179 -0.328050 0.110468 -112.685040
USER    NEWDPF quaternion0	-0.780908 -0.273058 0.091950 -0.554227
USER    NEWDPF dihe0	178.38 -10.51 180.00 -17.54 -112.43 180.00 -51.37 -111.59 
USER  
USER                              x       y       z    vdW   Elec        q     RMS 
ATOM      1  C   UNL     1      26.907 -16.195  -1.756 -0.41 -0.00    +0.000    28.010
ATOM      2  C   UNL     1      25.486 -16.657  -1.892 -0.59 -0.00    +0.000    28.010
ATOM      3  N   UNL     1      24.974 -17.666  -1.009 -0.63 -0.00    +0.000    28.010
ATOM      4  O   UNL     1      24.756 -16.153  -2.788 -0.47 -0.00    +0.000    28.010
ATOM      5  H   UNL     1      25.614 -18.146  -0.436 -0.04 -0.00    +0.000    28.010
ATOM      6  C   UNL     1      23.585 -18.023  -0.910 -0.71 -0.00    +0.000    28.010
ATOM      7  C   UNL     1      23.220 -19.374  -0.829 -0.62 -0.00    +0.000    28.010
ATOM      8  C   UNL     1      21.876 -19.732  -0.711 -0.38 -0.00    +0.000    28.010
ATOM      9  C   UNL     1      20.905 -18.732  -0.655 -0.74 -0.00    +0.000    28.010
ATOM     10  N   UNL     1      21.271 -17.425  -0.707 -1.69 -0.00    +0.000    28.010
ATOM     11  C   UNL     1      22.573 -17.050  -0.828 -0.48 -0.00    +0.000    28.010
ATOM     12  C   UNL     1      26.966 -14.663  -1.699 -0.30 -0.00    +0.000    28.010
ATOM     13  C   UNL     1      26.480 -14.100  -0.351 -0.32 -0.00    +0.000    28.010
ATOM     14  C   UNL     1      27.599 -13.533   0.541 -0.24 -0.00    +0.000    28.010
ATOM     15  C   UNL     1      27.056 -12.825   1.794 -0.32 -0.00    +0.000    28.010
ATOM     16  C   UNL     1      28.131 -12.647   2.875 -0.27 -0.00    +0.000    28.010
ATOM     17  O   UNL     1      27.387 -12.899   5.134 -0.54 +0.00    +0.000    28.010
ATOM     18  C   UNL     1      27.835 -13.464   4.100 -0.48 -0.00    +0.000    28.010
ATOM     19  N   UNL     1      28.083 -14.872   4.108 -0.56 -0.00    +0.000    28.010
ATOM     20  O   UNL     1      27.818 -15.609   5.212 -0.49 -0.00    +0.000    28.010
ATOM     21  H   UNL     1      28.450 -15.309   3.305 -1.34 -0.00    +0.000    28.010
TER
ENDMDL
MODEL       22
USER    Run = 22
USER    Cluster Rank = 11
USER    Number of conformations in this cluster = 1
USER  
USER    RMSD from reference structure       = 30.327 A
USER  
USER    Estimated Free Energy of Binding    =   -9.22 kcal/mol  [=(1)+(2)+(3)-(4)]
USER    Estimated Inhibition Constant, Ki   =  175.65 nM (nanomolar)  [Temperature = 298.15 K]
USER    
USER    (1) Final Intermolecular Energy     =  -11.60 kcal/mol
USER        vdW + Hbond + desolv Energy     =  -11.60 kcal/mol
USER        Electrostatic Energy            =   +0.00 kcal/mol
USER    (2) Final Total Internal Energy     =   -0.84 kcal/mol
USER    (3) Torsional Free Energy           =   +2.39 kcal/mol
USER    (4) Unbound System's Energy  [=(2)] =   -0.84 kcal/mol
USER    
USER    
USER  
USER    DPF = ligand_dock.biased.dpf
USER    NEWDPF move	ligand.pdbqt
USER    NEWDPF about	-0.033000 -0.045000 -0.218000
USER    NEWDPF tran0	27.611223 -14.485590 -2.298738
USER    NEWDPF axisangle0	0.246796 0.100455 -0.963847 140.266839
USER    NEWDPF quaternion0	0.232109 0.094477 -0.906485 0.339831
USER    NEWDPF dihe0	179.61 123.89 12.40 -67.12 -155.36 -11.16 -38.77 119.22 
USER  
USER                              x       y       z    vdW   Elec        q     RMS 
ATOM      1  C   UNL     1      26.993 -16.031  -2.822 -0.35 -0.00    +0.000    30.327
ATOM      2  C   UNL     1      27.933 -16.821  -1.961 -0.32 -0.00    +0.000    30.327
ATOM      3  N   UNL     1      29.348 -16.593  -2.049 -0.22 -0.00    +0.000    30.327
ATOM      4  O   UNL     1      27.467 -17.685  -1.169 -0.48 -0.00    +0.000    30.327
ATOM      5  H   UNL     1      29.679 -16.033  -2.788 +0.00 -0.00    +0.000    30.327
ATOM      6  C   UNL     1      30.311 -17.132  -1.129 -0.18 -0.00    +0.000    30.327
ATOM      7  C   UNL     1      30.634 -16.419   0.033 -0.13 -0.00    +0.000    30.327
ATOM      8  C   UNL     1      31.553 -16.942   0.945 -0.11 -0.00    +0.000    30.327
ATOM      9  C   UNL     1      32.129 -18.188   0.696 -0.13 -0.00    +0.000    30.327
ATOM     10  N   UNL     1      31.788 -18.884  -0.421 -0.15 -0.00    +0.000    30.327
ATOM     11  C   UNL     1      30.901 -18.393  -1.327 -0.18 -0.00    +0.000    30.327
ATOM     12  C   UNL     1      26.062 -15.177  -1.951 -0.43 -0.00    +0.000    30.327
ATOM     13  C   UNL     1      25.289 -16.011  -0.913 -0.47 -0.00    +0.000    30.327
ATOM     14  C   UNL     1      24.013 -16.677  -1.458 -0.52 -0.00    +0.000    30.327
ATOM     15  C   UNL     1      23.940 -18.177  -1.124 -0.79 -0.00    +0.000    30.327
ATOM     16  C   UNL     1      22.807 -18.501  -0.141 -0.79 -0.00    +0.000    30.327
ATOM     17  O   UNL     1      20.673 -17.584  -0.707 -2.15 +0.00    +0.000    30.327
ATOM     18  C   UNL     1      21.470 -18.552  -0.824 -0.84 -0.00    +0.000    30.327
ATOM     19  N   UNL     1      21.088 -19.704  -1.580 -0.69 -0.00    +0.000    30.327
ATOM     20  O   UNL     1      19.883 -19.751  -2.195 -2.32 -0.00    +0.000    30.327
ATOM     21  H   UNL     1      21.705 -20.467  -1.655 -0.36 -0.00    +0.000    30.327
TER
ENDMDL


AVSFLD: # AVS field file
AVSFLD: #
AVSFLD: # Created by AutoDock
AVSFLD: #
AVSFLD: ndim=2           # number of dimensions in the field
AVSFLD: nspace=1         # number of physical coordinates
AVSFLD: veclen=7         # vector size
AVSFLD: dim1=21          # atoms
AVSFLD: dim2=11          # conformations
AVSFLD: data=Real       # data type (byte,integer,Real,double)
AVSFLD: field=uniform    # field coordinate layout
AVSFLD: label= x y z vdW Elec q RMS
AVSFLD: variable 1 file = ligand_dock.biased.dlg.pdb filetype = ascii offset = 5 stride = 12
AVSFLD: variable 2 file = ligand_dock.biased.dlg.pdb filetype = ascii offset = 6 stride = 12
AVSFLD: variable 3 file = ligand_dock.biased.dlg.pdb filetype = ascii offset = 7 stride = 12
AVSFLD: variable 4 file = ligand_dock.biased.dlg.pdb filetype = ascii offset = 8 stride = 12
AVSFLD: variable 5 file = ligand_dock.biased.dlg.pdb filetype = ascii offset = 9 stride = 12
AVSFLD: variable 6 file = ligand_dock.biased.dlg.pdb filetype = ascii offset = 10 stride = 12
AVSFLD: variable 7 file = ligand_dock.biased.dlg.pdb filetype = ascii offset = 11 stride = 12
AVSFLD: # end of file

>>> Closing the docking parameter file (DPF)...
This docking finished at:			11:16 00" a.m., 11/08/2024


________________________________________________________________________________

autodock4: Successful Completion on "ThinkStation-P620"

Real= 10m 41.44s,  CPU= 10m 41.21s,  System= 0.18s
________________________________________________________________________________

