REMARK  Name = 
REMARK  8 active torsions:
REMARK  status: ('A' for Active; 'I' for Inactive)
REMARK    1  A    between atoms: C_2  and  C_3
REMARK    2  A    between atoms: C_4  and  C_5
REMARK    3  A    between atoms: C_8  and  C_9
REMARK    4  A    between atoms: C_9  and  N_10
REMARK    5  A    between atoms: N_10  and  C_11
REMARK    6  A    between atoms: C_11  and  C_12
REMARK    7  A    between atoms: C_12  and  C_13
REMARK    8  A    between atoms: C_14  and  C_22
REMARK                            x       y       z     vdW  Elec       q    Type
REMARK                         _______ _______ _______ _____ _____    ______ ____
ROOT
ATOM      1  N   UNL     1      -0.133   0.116   0.446  0.00  0.00    +0.000 N 
ATOM      2  H   UNL     1       0.339   0.816   1.018  0.00  0.00    +0.000 HD
ATOM      3  H   UNL     1      -0.114  -0.803   0.889  0.00  0.00    +0.000 HD
ENDROOT
BRANCH   1   4
ATOM      4  C   UNL     1       0.567   0.007  -0.840  0.00  0.00    +0.000 C 
BRANCH   4   8
ATOM      5  C   UNL     1       4.817  -0.209  -0.066  0.00  0.00    +0.000 A 
ATOM      6  C   UNL     1       4.175   1.039  -0.197  0.00  0.00    +0.000 A 
ATOM      7  C   UNL     1       2.803   1.105  -0.459  0.00  0.00    +0.000 A 
ATOM      8  C   UNL     1       2.049  -0.069  -0.598  0.00  0.00    +0.000 A 
ATOM      9  C   UNL     1       2.678  -1.312  -0.435  0.00  0.00    +0.000 A 
ATOM     10  C   UNL     1       4.048  -1.380  -0.172  0.00  0.00    +0.000 A 
BRANCH   5  12
ATOM     11  C   UNL     1       7.166   0.624  -0.039  0.00  0.00    +0.000 C 
ATOM     12  C   UNL     1       6.267  -0.337   0.224  0.00  0.00    +0.000 C 
BRANCH  11  14
ATOM     13  O   UNL     1       9.316   1.532   0.271  0.00  0.00    +0.000 OA
ATOM     14  C   UNL     1       8.608   0.490   0.250  0.00  0.00    +0.000 C 
ATOM     15  N   UNL     1       9.230  -0.781   0.479  0.00  0.00    +0.000 N 
ATOM     16  O   UNL     1      10.532  -0.843   0.843  0.00  0.00    +0.000 OA
ATOM     17  H   UNL     1       8.709  -1.609   0.371  0.00  0.00    +0.000 HD
ENDBRANCH  11  14
ENDBRANCH   5  12
ENDBRANCH   4   8
ENDBRANCH   1   4
BRANCH   1  18
ATOM     18  C   UNL     1      -1.541   0.508   0.285  0.00  0.00    +0.000 C 
BRANCH  18  19
ATOM     19  C   UNL     1      -2.410  -0.631  -0.273  0.00  0.00    +0.000 C 
BRANCH  19  20
ATOM     20  C   UNL     1      -3.852  -0.215  -0.319  0.00  0.00    +0.000 A 
ATOM     21  C   UNL     1      -4.523   0.404  -1.375  0.00  0.00    +0.000 A 
ATOM     22  N   UNL     1      -5.800   0.691  -1.028  0.00  0.00    +0.000 N 
ATOM     23  C   UNL     1      -5.937   0.279   0.244  0.00  0.00    +0.000 A 
ATOM     24  C   UNL     1      -4.770  -0.272   0.713  0.00  0.00    +0.000 A 
ATOM     25  C   UNL     1      -4.659  -0.751   2.019  0.00  0.00    +0.000 A 
ATOM     26  C   UNL     1      -5.790  -0.662   2.850  0.00  0.00    +0.000 A 
ATOM     27  C   UNL     1      -6.992  -0.100   2.365  0.00  0.00    +0.000 A 
ATOM     28  C   UNL     1      -7.073   0.381   1.046  0.00  0.00    +0.000 A 
ATOM     29  C   UNL     1      -3.942   0.708  -2.719  0.00  0.00    +0.000 C 
ATOM     30  H   UNL     1      -6.487   1.115  -1.592  0.00  0.00    +0.000 HD
ENDBRANCH  19  20
ENDBRANCH  18  19
ENDBRANCH   1  18
TORSDOF 7
