          AutoDock 4.2 Release 4.2.6   
         (C) 1989-2012 The Scripps Research Institute
        AutoDock comes with ABSOLUTELY NO WARRANTY.
        AutoDock is free software, and you are welcome
        to redistribute it under certain conditions;
        for details type 'autodock4 -C'

                     main.cc  $Revision: 1.213 $

                   Compiled on Feb 20 2022 at 09:48:33


This file was created at:			6:07 09" p.m., 11/08/2024
                   on host:		"ThinkStation-P620"
Current Working Directory = "/home/antonio/Documenti/buccheri/IDROSSAMICO HDAC/HDAC 8/DP (copia)/Ligand_4"

      ________________________________________________________________

                   SETTING UP DEFAULT PARAMETER LIBRARY
      ________________________________________________________________


Random number generator was seeded with values 355269, 1731085629.
Docking parameter file (DPF) used for this docking:		ligand_dock.biased.dpf
DPF> parameter_file ad4_arom_params.dat

Using read_parameter_library() to try to open and read "ad4_arom_params.dat".

DPF> autodock_parameter_version 4.2       # used by autodock to validate parameter set

	Autodock parameter version 4.2.
DPF> outlev 1                             # diagnostic output level

Output Level = 1  ADT-COMPATIBLE OUTPUT DURING DOCKING.
DPF> intelec                              # calculate internal electrostatics

Electrostatic energies will be calculated for all non-bonds between moving atoms.
DPF> seed pid time                        # seeds for random generator

Random number generator was seeded with values 355269, 1731085629.
DPF> ligand_types A C OA HD N AC

WARNING: pairwise distance, Rij, 0.00, is not a very reasonable value for the equilibrium separation of two atoms! (0.90 Angstroms <= Rij <= 6.00 Angstroms)

Perhaps you meant to use "intnbp_coeffs" instead of "intnbp_r_eps"?

DPF> fld receptor.maps.fld                # grid_data_file

Opening Grid Map Dimensions file:		receptor.maps.fld
Grid Point Spacing =				0.375 Angstroms

Even Number of User-specified Grid Points =	70 x-points
						70 y-points
						70 z-points

Coordinates of Central Grid Point of Maps =	(36.691, 12.592, 124.207)
Macromolecule file used to create Grid Maps =	receptor.pdbqt
Grid Parameter file used to create Grid Maps =	receptor.gpf
Minimum coordinates in grid = (23.566, -0.533, 111.082)
Maximum coordinates in grid = (49.816, 25.717, 137.332)

DPF> map receptor.A.map                   # atom-specific affinity map

DPF> map receptor.C.map                   # atom-specific affinity map

DPF> map receptor.OA.biased.map

DPF> map receptor.HD.map                  # atom-specific affinity map

DPF> map receptor.N.map                   # atom-specific affinity map

DPF> map receptor.AC.biased.map

DPF> elecmap receptor.e.map               # electrostatics map

DPF> desolvmap receptor.d.map             # desolvation map

DPF> move ligand.dum.pdbqt

1,4-interactions will be _ignored_ in the non-bonded internal energy calculation.

Ligand PDBQT file = "ligand.dum.pdbqt"

INPUT LIGAND PDBQT FILE:
________________________

INPUT-LIGAND-PDBQT: REMARK  Name = 
INPUT-LIGAND-PDBQT: REMARK  8 active torsions:
INPUT-LIGAND-PDBQT: REMARK  status: ('A' for Active; 'I' for Inactive)
INPUT-LIGAND-PDBQT: REMARK    1  A    between atoms: C_2  and  C_3
INPUT-LIGAND-PDBQT: REMARK    2  A    between atoms: C_4  and  C_5
INPUT-LIGAND-PDBQT: REMARK    3  A    between atoms: C_8  and  C_9
INPUT-LIGAND-PDBQT: REMARK    4  A    between atoms: C_9  and  N_10
INPUT-LIGAND-PDBQT: REMARK    5  A    between atoms: N_10  and  C_11
INPUT-LIGAND-PDBQT: REMARK    6  A    between atoms: C_11  and  C_12
INPUT-LIGAND-PDBQT: REMARK    7  A    between atoms: C_12  and  C_13
INPUT-LIGAND-PDBQT: REMARK    8  A    between atoms: C_14  and  C_22
INPUT-LIGAND-PDBQT: REMARK                            x       y       z     vdW  Elec       q    Type
INPUT-LIGAND-PDBQT: REMARK                         _______ _______ _______ _____ _____    ______ ____
INPUT-LIGAND-PDBQT: ROOT
INPUT-LIGAND-PDBQT: ATOM      1  N   UNL     1      -0.133   0.116   0.446  0.00  0.00     0.000 N 
INPUT-LIGAND-PDBQT: ATOM      2  H   UNL     1       0.339   0.816   1.018  0.00  0.00     0.000 HD
INPUT-LIGAND-PDBQT: ATOM      3  H   UNL     1      -0.114  -0.803   0.889  0.00  0.00     0.000 HD
INPUT-LIGAND-PDBQT: ENDROOT
INPUT-LIGAND-PDBQT: BRANCH   1   4
INPUT-LIGAND-PDBQT: ATOM      4  C   UNL     1       0.567   0.007  -0.840  0.00  0.00     0.000 C 
INPUT-LIGAND-PDBQT: BRANCH   4   8
INPUT-LIGAND-PDBQT: ATOM      5  C   UNL     1       4.817  -0.209  -0.066  0.00  0.00     0.000 A 
INPUT-LIGAND-PDBQT: ATOM      6  C   UNL     1       4.175   1.039  -0.197  0.00  0.00     0.000 A 
INPUT-LIGAND-PDBQT: ATOM      7  C   UNL     1       2.803   1.105  -0.459  0.00  0.00     0.000 A 
INPUT-LIGAND-PDBQT: ATOM      8  C   UNL     1       2.049  -0.069  -0.598  0.00  0.00     0.000 A 
INPUT-LIGAND-PDBQT: ATOM      9  C   UNL     1       2.678  -1.312  -0.435  0.00  0.00     0.000 A 
INPUT-LIGAND-PDBQT: ATOM     10  C   UNL     1       4.048  -1.380  -0.172  0.00  0.00     0.000 A 
INPUT-LIGAND-PDBQT: ATOM     31  CM  UNL     1       3.428  -0.138  -0.321  1.00  0.00     0.000 AC
INPUT-LIGAND-PDBQT: BRANCH   5  12
INPUT-LIGAND-PDBQT: ATOM     11  C   UNL     1       7.166   0.624  -0.039  0.00  0.00     0.000 C 
INPUT-LIGAND-PDBQT: ATOM     12  C   UNL     1       6.267  -0.337   0.224  0.00  0.00     0.000 C 
INPUT-LIGAND-PDBQT: BRANCH  11  14
INPUT-LIGAND-PDBQT: ATOM     13  O   UNL     1       9.316   1.532   0.271  0.00  0.00     0.000 OA
INPUT-LIGAND-PDBQT: ATOM     14  C   UNL     1       8.608   0.490   0.250  0.00  0.00     0.000 C 
INPUT-LIGAND-PDBQT: ATOM     15  N   UNL     1       9.230  -0.781   0.479  0.00  0.00     0.000 N 
INPUT-LIGAND-PDBQT: ATOM     16  O   UNL     1      10.532  -0.843   0.843  0.00  0.00     0.000 OA
INPUT-LIGAND-PDBQT: ATOM     17  H   UNL     1       8.709  -1.609   0.371  0.00  0.00     0.000 HD
INPUT-LIGAND-PDBQT: ENDBRANCH  11  14
INPUT-LIGAND-PDBQT: ENDBRANCH   5  12
INPUT-LIGAND-PDBQT: ENDBRANCH   4   8
INPUT-LIGAND-PDBQT: ENDBRANCH   1   4
INPUT-LIGAND-PDBQT: BRANCH   1  18
INPUT-LIGAND-PDBQT: ATOM     18  C   UNL     1      -1.541   0.508   0.285  0.00  0.00     0.000 C 
INPUT-LIGAND-PDBQT: BRANCH  18  19
INPUT-LIGAND-PDBQT: ATOM     19  C   UNL     1      -2.410  -0.631  -0.273  0.00  0.00     0.000 C 
INPUT-LIGAND-PDBQT: BRANCH  19  20
INPUT-LIGAND-PDBQT: ATOM     20  C   UNL     1      -3.852  -0.215  -0.319  0.00  0.00     0.000 A 
INPUT-LIGAND-PDBQT: ATOM     21  C   UNL     1      -4.523   0.404  -1.375  0.00  0.00     0.000 A 
INPUT-LIGAND-PDBQT: ATOM     22  N   UNL     1      -5.800   0.691  -1.028  0.00  0.00     0.000 N 
INPUT-LIGAND-PDBQT: ATOM     23  C   UNL     1      -5.937   0.279   0.244  0.00  0.00     0.000 A 
INPUT-LIGAND-PDBQT: ATOM     24  C   UNL     1      -4.770  -0.272   0.713  0.00  0.00     0.000 A 
INPUT-LIGAND-PDBQT: ATOM     25  C   UNL     1      -4.659  -0.751   2.019  0.00  0.00     0.000 A 
INPUT-LIGAND-PDBQT: ATOM     26  C   UNL     1      -5.790  -0.662   2.850  0.00  0.00     0.000 A 
INPUT-LIGAND-PDBQT: ATOM     27  C   UNL     1      -6.992  -0.100   2.365  0.00  0.00     0.000 A 
INPUT-LIGAND-PDBQT: ATOM     28  C   UNL     1      -7.073   0.381   1.046  0.00  0.00     0.000 A 
INPUT-LIGAND-PDBQT: ATOM     29  C   UNL     1      -3.942   0.708  -2.719  0.00  0.00     0.000 C 
INPUT-LIGAND-PDBQT: ATOM     30  H   UNL     1      -6.487   1.115  -1.592  0.00  0.00     0.000 HD
INPUT-LIGAND-PDBQT: ATOM     32  CM  UNL     1      -5.003   0.194  -0.375  1.00  0.00     0.000 AC
INPUT-LIGAND-PDBQT: ATOM     33  CM  UNL     1      -5.870  -0.188   1.540  1.00  0.00     0.000 AC
INPUT-LIGAND-PDBQT: ENDBRANCH  19  20
INPUT-LIGAND-PDBQT: ENDBRANCH  18  19
INPUT-LIGAND-PDBQT: ENDBRANCH   1  18
INPUT-LIGAND-PDBQT: TORSDOF 7________________________________________________________________________________

Total charge on ligand                               =	+0.000 e
REMARK  Name = 
REMARK  8 active torsions:
REMARK  status: ('A' for Active; 'I' for Inactive)
REMARK    1  A    between atoms: C_2  and  C_3
REMARK    2  A    between atoms: C_4  and  C_5
REMARK    3  A    between atoms: C_8  and  C_9
REMARK    4  A    between atoms: C_9  and  N_10
REMARK    5  A    between atoms: N_10  and  C_11
REMARK    6  A    between atoms: C_11  and  C_12
REMARK    7  A    between atoms: C_12  and  C_13
REMARK    8  A    between atoms: C_14  and  C_22
REMARK                            x       y       z     vdW  Elec       q    Type
REMARK                         _______ _______ _______ _____ _____    ______ ____


Number of Rotatable Bonds in Small Molecule =	7 torsions
Number of atoms in ligand:  33

Number of non-hydrogen atoms in ligand:  29

Number of vibrational degrees of freedom of ligand:  93


Number of torsional degrees of freedom = 7
Estimated loss of torsional free energy upon binding = +2.0881 kcal/mol


DPF> about 0.576 -0.005 0.140            # small molecule center

Small molecule center of rotation =	(+0.576, -0.005, +0.140)

DPF> tran0 random                         # initial coordinates/A or random

Initial translation =			(44.895, 21.885, 123.153) Angstroms
DPF> quaternion0 random                   # initial orientation

Each run will begin with a new, random initial orientation.
Initial quaternion,  (x,y,z,w) =	( -0.555, 0.635, -0.247, 0.478 ),
DPF> dihe0 random                         # initial dihedrals (relative) or random

DPF> torsdof 7                            # torsional degrees of freedom

Number of torsional degrees of freedom = 7
Free energy coefficient for torsional degrees of freedom = 0.2983 as specified in parameter library "ad4_arom_params.dat".

Estimated loss of torsional free energy upon binding = +2.0881 kcal/mol

DPF> rmstol 2.0                           # cluster_tolerance/A

Maximum RMS tolerance for conformational cluster analysis = 2.00 Angstroms
DPF> extnrg 1000.0                        # external grid energy

External grid energy (beyond grid map walls) = 1000.00

DPF> e0max 0.0 10000                      # max initial energy; max number of retries

Using user-specified maximum number of retries for simanneal initialization, 10000 retries.
If the simanneal initial energy is greater than e0max, 0.000,
then a new, random initial state will be created.

DPF> ga_pop_size 150                      # number of individuals in population

A population of 150 individuals will be used
DPF> ga_num_evals 2500000                 # maximum number of energy evaluations

There will be at most 2500000 function evaluations used.
DPF> ga_num_generations 27000             # maximum number of generations

The GA will run for at most 27000 generations.
DPF> ga_elitism 1                         # number of top individuals to survive to next generation

The 1 best will be preserved each GA generation.
DPF> ga_mutation_rate 0.02                # rate of gene mutation

The mutation rate is 0.020000.
DPF> ga_crossover_rate 0.8                # rate of crossover

The crossover rate is 0.800000.
DPF> ga_window_size 10                    # 

The GA's selection window is 10 generations.
DPF> ga_cauchy_alpha 0.0                  # Alpha parameter of Cauchy distribution

The alpha parameter (for the Cauchy distribution) is being set to 0.000000.
DPF> ga_cauchy_beta 1.0                   # Beta parameter Cauchy distribution

The beta parameter (for the Cauchy distribution) is being set to 1.000000.
DPF> set_ga                               # set the above parameters for GA or LGA

DPF> sw_max_its 300                       # iterations of Solis & Wets local search

Solis & Wets algorithms will perform at most 300 iterations.
DPF> sw_max_succ 4                        # consecutive successes before changing rho

Solis & Wets algorithms expand rho every 4 in a row successes.
DPF> sw_max_fail 4                        # consecutive failures before changing rho

Solis & Wets algorithms contract rho every 4 in a row failures.
DPF> sw_rho 1.0                           # size of local search space to sample

rho is set to 1.000000.
DPF> sw_lb_rho 0.01                       # lower bound on rho

rho will never get smaller than 0.010000.
DPF> ls_search_freq 0.06                  # probability of performing local search on individual

Local search will be performed with frequency 0.060000.
DPF> set_psw1                             # set the above pseudo-Solis & Wets parameters

Creating a new Local Search object using the pseudo-Solis-Wets algorithm (pSW1) with the current settings.

DPF> unbound_model bound                  # state of unbound ligand

DPF> ga_run 100                           # do this many hybrid GA-LS runs

centering ligand on specified point: 0.576 -0.005 0.140
Furthest true ligand atom from "about" center is 10.016 Angstroms (maxrad).
Number of requested GA dockings = 100 runs
Unbound model to be used is 'same as bound' [AutoDock 4.2 default].

	BEGINNING GENETIC ALGORITHM DOCKING 1 of 100
Run: 1 Seed: 343377606 1254041780 [ Run 1 of 100 GA/GALS ]
Beginning LAMARCKIAN GENETIC ALGORITHM (LGA), with a maximum of 2500000 energy evaluations.

Final-Value: -15.558


	FINAL GENETIC ALGORITHM DOCKED STATE
	_______________________________________________


Detailed state:  trans 37.414 17.999 123.147 quatxyzw -0.838304 0.092571 -0.492327 -0.215153 center 0.576 -0.005 0.140 ntor 7 -24.5655 117.2585 -179.9808 -37.4387 -96.5435 -79.7617 138.9893
State:	 37.414  17.999 123.147  -0.858  0.095 -0.504 -155.151    -24.57  117.26 -179.98  -37.44  -96.54  -79.76  138.99

DOCKED: MODEL        1
DOCKED: USER    Run = 1
DOCKED: USER    DPF = ligand_dock.biased.dpf
DOCKED: USER  
DOCKED: USER    Estimated Free Energy of Binding    =  -11.16 kcal/mol  [=(1)+(2)+(3)-(4)]
DOCKED: USER    Estimated Inhibition Constant, Ki   =    6.64 nM (nanomolar)  [Temperature = 298.15 K]
DOCKED: USER    
DOCKED: USER    (1) Final Intermolecular Energy     =  -13.24 kcal/mol
DOCKED: USER        vdW + Hbond + desolv Energy     =  -13.24 kcal/mol
DOCKED: USER        Electrostatic Energy            =   +0.00 kcal/mol
DOCKED: USER    (2) Final Total Internal Energy     =   -2.31 kcal/mol
DOCKED: USER    (3) Torsional Free Energy           =   +2.09 kcal/mol
DOCKED: USER    (4) Unbound System's Energy  [=(2)] =   -2.31 kcal/mol
DOCKED: USER    
DOCKED: USER    
DOCKED: USER    NEWDPF move ligand.dum.pdbqt
DOCKED: USER    NEWDPF about 0.576000 -0.005000 0.140000
DOCKED: USER    NEWDPF tran0 37.413793 17.998610 123.146673
DOCKED: USER    NEWDPF quaternion0 -0.838304 0.092571 -0.492327 -0.215153
DOCKED: USER    NEWDPF axisangle0 -0.858408 0.094791 -0.504134 -155.151011
DOCKED: USER    NEWDPF quat0 -0.858408 0.094791 -0.504134 -155.151011
DOCKED: USER    NEWDPF dihe0 -24.57 117.26 -179.98 -37.44 -96.54 -79.76 138.99 
DOCKED: USER  keepresnum = 1 
DOCKED: USER  
DOCKED: REMARK  Name = 
DOCKED: REMARK  8 active torsions:
DOCKED: REMARK  status: ('A' for Active; 'I' for Inactive)
DOCKED: REMARK    1  A    between atoms: C_2  and  C_3
DOCKED: REMARK    2  A    between atoms: C_4  and  C_5
DOCKED: REMARK    3  A    between atoms: C_8  and  C_9
DOCKED: REMARK    4  A    between atoms: C_9  and  N_10
DOCKED: REMARK    5  A    between atoms: N_10  and  C_11
DOCKED: REMARK    6  A    between atoms: C_11  and  C_12
DOCKED: REMARK    7  A    between atoms: C_12  and  C_13
DOCKED: REMARK    8  A    between atoms: C_14  and  C_22
DOCKED: REMARK                            x       y       z     vdW  Elec       q    Type
DOCKED: REMARK                         _______ _______ _______ _____ _____    ______ ____
DOCKED: USER                              x       y       z     vdW  Elec       q    Type
DOCKED: USER                           _______ _______ _______ _____ _____    ______ ____
DOCKED: ROOT
DOCKED: ATOM      1  N   UNL     1      37.332  18.234 122.406 -0.12 -0.00    +0.000 N 
DOCKED: ATOM      2  H   UNL     1      38.102  17.591 122.218 +0.00 -0.00    +0.000 HD
DOCKED: ATOM      3  H   UNL     1      37.673  19.164 122.649 +0.00 -0.00    +0.000 HD
DOCKED: ENDROOT
DOCKED: BRANCH   1   4
DOCKED: ATOM      4  C   UNL     1      36.562  17.727 123.548 -0.24 -0.00    +0.000 C 
DOCKED: BRANCH   4   8
DOCKED: ATOM      5  C   UNL     1      36.586  13.404 123.419 -0.53 -0.00    +0.000 A 
DOCKED: ATOM      6  C   UNL     1      35.368  14.113 123.453 -0.32 -0.00    +0.000 A 
DOCKED: ATOM      7  C   UNL     1      35.364  15.510 123.507 -0.44 -0.00    +0.000 A 
DOCKED: ATOM      8  C   UNL     1      36.571  16.224 123.531 -0.31 -0.00    +0.000 A 
DOCKED: ATOM      9  C   UNL     1      37.784  15.523 123.463 -0.25 -0.00    +0.000 A 
DOCKED: ATOM     10  C   UNL     1      37.790  14.127 123.408 -0.33 -0.00    +0.000 A 
DOCKED: ATOM     11  CM  UNL     1      36.578  14.817 123.463 +0.00 -0.00    +0.000 AC
DOCKED: BRANCH   5  12
DOCKED: ATOM     12  C   UNL     1      36.767  11.236 122.202 -0.62 -0.00    +0.000 C 
DOCKED: ATOM     13  C   UNL     1      36.648  11.922 123.349 -0.69 -0.00    +0.000 C 
DOCKED: BRANCH  11  14
DOCKED: ATOM     14  O   UNL     1      36.786   9.207 121.009 -2.63 +0.00    +0.000 OA
DOCKED: ATOM     15  C   UNL     1      36.826   9.762 122.139 -0.65 -0.00    +0.000 C 
DOCKED: ATOM     16  N   UNL     1      36.900   8.945 123.315 -0.62 -0.00    +0.000 N 
DOCKED: ATOM     17  O   UNL     1      37.058   7.606 123.202 -2.50 -0.00    +0.000 OA
DOCKED: ATOM     18  H   UNL     1      36.836   9.360 124.205 -0.52 -0.00    +0.000 HD
DOCKED: ENDBRANCH  11  14
DOCKED: ENDBRANCH   5  12
DOCKED: ENDBRANCH   4   8
DOCKED: ENDBRANCH   1   4
DOCKED: BRANCH   1  18
DOCKED: ATOM     19  C   UNL     1      36.514  18.358 121.190 -0.17 -0.00    +0.000 C 
DOCKED: BRANCH  18  19
DOCKED: ATOM     20  C   UNL     1      37.323  18.110 119.907 -0.08 -0.00    +0.000 C 
DOCKED: BRANCH  19  20
DOCKED: ATOM     21  C   UNL     1      37.511  16.637 119.683 -0.12 -0.00    +0.000 A 
DOCKED: ATOM     22  C   UNL     1      38.552  15.834 120.151 -0.16 -0.00    +0.000 A 
DOCKED: ATOM     23  N   UNL     1      38.423  14.567 119.692 -0.24 -0.00    +0.000 N 
DOCKED: ATOM     24  C   UNL     1      37.322  14.565 118.921 -0.27 -0.00    +0.000 A 
DOCKED: ATOM     25  C   UNL     1      36.742  15.809 118.885 -0.17 -0.00    +0.000 A 
DOCKED: ATOM     26  C   UNL     1      35.597  16.063 118.130 -0.13 -0.00    +0.000 A 
DOCKED: ATOM     27  C   UNL     1      35.040  14.996 117.403 -0.20 -0.00    +0.000 A 
DOCKED: ATOM     28  C   UNL     1      35.633  13.714 117.445 -0.29 -0.00    +0.000 A 
DOCKED: ATOM     29  C   UNL     1      36.791  13.489 118.210 -0.36 -0.00    +0.000 A 
DOCKED: ATOM     30  C   UNL     1      39.663  16.280 121.048 -0.19 -0.00    +0.000 C 
DOCKED: ATOM     31  H   UNL     1      39.015  13.803 119.883 -0.10 -0.00    +0.000 HD
DOCKED: ATOM     32  CM  UNL     1      37.733  15.453 119.474 +0.00 -0.00    +0.000 AC
DOCKED: ATOM     33  CM  UNL     1      36.187  14.773 118.166 +0.00 -0.00    +0.000 AC
DOCKED: ENDBRANCH  19  20
DOCKED: ENDBRANCH  18  19
DOCKED: ENDBRANCH   1  18
DOCKED: TORSDOF 7DOCKED: TER
DOCKED: ENDMDL
________________________________________________________________________________


	BEGINNING GENETIC ALGORITHM DOCKING 2 of 100
Run: 2 Seed: 1744871281 1833997889 [ Run 2 of 100 GA/GALS ]
Beginning LAMARCKIAN GENETIC ALGORITHM (LGA), with a maximum of 2500000 energy evaluations.

Final-Value: -15.472


	FINAL GENETIC ALGORITHM DOCKED STATE
	_______________________________________________


Detailed state:  trans 37.810 17.347 123.308 quatxyzw 0.113538 0.085479 -0.511930 -0.847189 center 0.576 -0.005 0.140 ntor 7 152.0169 178.6674 -179.9156 -78.3183 -147.2446 33.4323 21.0528
State:	 37.810  17.347 123.308   0.214  0.161 -0.964 -64.185    152.02  178.67 -179.92  -78.32 -147.24   33.43   21.05

DOCKED: MODEL        2
DOCKED: USER    Run = 2
DOCKED: USER    DPF = ligand_dock.biased.dpf
DOCKED: USER  
DOCKED: USER    Estimated Free Energy of Binding    =  -12.01 kcal/mol  [=(1)+(2)+(3)-(4)]
DOCKED: USER    Estimated Inhibition Constant, Ki   =    1.58 nM (nanomolar)  [Temperature = 298.15 K]
DOCKED: USER    
DOCKED: USER    (1) Final Intermolecular Energy     =  -14.10 kcal/mol
DOCKED: USER        vdW + Hbond + desolv Energy     =  -14.10 kcal/mol
DOCKED: USER        Electrostatic Energy            =   +0.00 kcal/mol
DOCKED: USER    (2) Final Total Internal Energy     =   -1.38 kcal/mol
DOCKED: USER    (3) Torsional Free Energy           =   +2.09 kcal/mol
DOCKED: USER    (4) Unbound System's Energy  [=(2)] =   -1.38 kcal/mol
DOCKED: USER    
DOCKED: USER    
DOCKED: USER    NEWDPF move ligand.dum.pdbqt
DOCKED: USER    NEWDPF about 0.576000 -0.005000 0.140000
DOCKED: USER    NEWDPF tran0 37.810137 17.346564 123.307854
DOCKED: USER    NEWDPF quaternion0 0.113538 0.085479 -0.511930 -0.847189
DOCKED: USER    NEWDPF axisangle0 0.213702 0.160889 -0.963559 -64.185453
DOCKED: USER    NEWDPF quat0 0.213702 0.160889 -0.963559 -64.185453
DOCKED: USER    NEWDPF dihe0 152.02 178.67 -179.92 -78.32 -147.24 33.43 21.05 
DOCKED: USER  keepresnum = 1 
DOCKED: USER  
DOCKED: REMARK  Name = 
DOCKED: REMARK  8 active torsions:
DOCKED: REMARK  status: ('A' for Active; 'I' for Inactive)
DOCKED: REMARK    1  A    between atoms: C_2  and  C_3
DOCKED: REMARK    2  A    between atoms: C_4  and  C_5
DOCKED: REMARK    3  A    between atoms: C_8  and  C_9
DOCKED: REMARK    4  A    between atoms: C_9  and  N_10
DOCKED: REMARK    5  A    between atoms: N_10  and  C_11
DOCKED: REMARK    6  A    between atoms: C_11  and  C_12
DOCKED: REMARK    7  A    between atoms: C_12  and  C_13
DOCKED: REMARK    8  A    between atoms: C_14  and  C_22
DOCKED: REMARK                            x       y       z     vdW  Elec       q    Type
DOCKED: REMARK                         _______ _______ _______ _____ _____    ______ ____
DOCKED: USER                              x       y       z     vdW  Elec       q    Type
DOCKED: USER                           _______ _______ _______ _____ _____    ______ ____
DOCKED: ROOT
DOCKED: ATOM      1  N   UNL     1      37.599  17.917 123.799 -0.19 -0.00    +0.000 N 
DOCKED: ATOM      2  H   UNL     1      38.454  17.671 124.298 -0.01 -0.00    +0.000 HD
DOCKED: ATOM      3  H   UNL     1      36.806  17.363 124.123 -0.01 -0.00    +0.000 HD
DOCKED: ENDROOT
DOCKED: BRANCH   1   4
DOCKED: ATOM      4  C   UNL     1      37.789  17.634 122.371 -0.15 -0.00    +0.000 C 
DOCKED: BRANCH   4   8
DOCKED: ATOM      5  C   UNL     1      37.342  13.386 121.691 -0.42 -0.00    +0.000 A 
DOCKED: ATOM      6  C   UNL     1      37.925  14.211 120.709 -0.32 -0.00    +0.000 A 
DOCKED: ATOM      7  C   UNL     1      38.057  15.586 120.927 -0.20 -0.00    +0.000 A 
DOCKED: ATOM      8  C   UNL     1      37.608  16.162 122.124 -0.22 -0.00    +0.000 A 
DOCKED: ATOM      9  C   UNL     1      37.059  15.338 123.118 -0.35 -0.00    +0.000 A 
DOCKED: ATOM     10  C   UNL     1      36.927  13.965 122.902 -0.45 -0.00    +0.000 A 
DOCKED: ATOM     11  CM  UNL     1      37.486  14.775 121.912 +0.00 -0.00    +0.000 AC
DOCKED: BRANCH   5  12
DOCKED: ATOM     12  C   UNL     1      37.088  11.056 122.539 -0.55 -0.00    +0.000 C 
DOCKED: ATOM     13  C   UNL     1      37.189  11.920 121.517 -0.53 -0.00    +0.000 C 
DOCKED: BRANCH  11  14
DOCKED: ATOM     14  O   UNL     1      36.685   9.157 121.206 -2.62 -0.00    +0.000 OA
DOCKED: ATOM     15  C   UNL     1      36.938   9.598 122.359 -0.64 -0.00    +0.000 C 
DOCKED: ATOM     16  N   UNL     1      37.043   8.675 123.451 -0.64 -0.00    +0.000 N 
DOCKED: ATOM     17  O   UNL     1      37.001   7.342 123.219 -2.33 -0.00    +0.000 OA
DOCKED: ATOM     18  H   UNL     1      37.144   9.012 124.371 -0.54 -0.00    +0.000 HD
DOCKED: ENDBRANCH  11  14
DOCKED: ENDBRANCH   5  12
DOCKED: ENDBRANCH   4   8
DOCKED: ENDBRANCH   1   4
DOCKED: BRANCH   1  18
DOCKED: ATOM     19  C   UNL     1      37.293  19.332 124.053 -0.14 -0.00    +0.000 C 
DOCKED: BRANCH  18  19
DOCKED: ATOM     20  C   UNL     1      35.781  19.604 124.126 -0.20 -0.00    +0.000 C 
DOCKED: BRANCH  19  20
DOCKED: ATOM     21  C   UNL     1      35.051  18.382 124.603 -0.27 -0.00    +0.000 A 
DOCKED: ATOM     22  C   UNL     1      34.536  17.344 123.824 -0.38 -0.00    +0.000 A 
DOCKED: ATOM     23  N   UNL     1      33.882  16.445 124.597 -0.43 -0.00    +0.000 N 
DOCKED: ATOM     24  C   UNL     1      33.960  16.916 125.854 -0.37 -0.00    +0.000 A 
DOCKED: ATOM     25  C   UNL     1      34.658  18.097 125.897 -0.28 -0.00    +0.000 A 
DOCKED: ATOM     26  C   UNL     1      34.852  18.791 127.092 -0.17 -0.00    +0.000 A 
DOCKED: ATOM     27  C   UNL     1      34.314  18.237 128.268 -0.16 -0.00    +0.000 A 
DOCKED: ATOM     28  C   UNL     1      33.599  17.019 128.224 -0.31 -0.00    +0.000 A 
DOCKED: ATOM     29  C   UNL     1      33.414  16.345 127.003 -0.34 -0.00    +0.000 A 
DOCKED: ATOM     30  C   UNL     1      34.683  17.210 122.342 -0.38 -0.00    +0.000 C 
DOCKED: ATOM     31  H   UNL     1      33.439  15.618 124.299 -0.08 -0.00    +0.000 HD
DOCKED: ATOM     32  CM  UNL     1      34.400  17.405 124.943 -0.38 -0.00    +0.000 AC
DOCKED: ATOM     33  CM  UNL     1      34.133  17.568 127.057 -0.02 -0.00    +0.000 AC
DOCKED: ENDBRANCH  19  20
DOCKED: ENDBRANCH  18  19
DOCKED: ENDBRANCH   1  18
DOCKED: TORSDOF 7DOCKED: TER
DOCKED: ENDMDL
________________________________________________________________________________


	BEGINNING GENETIC ALGORITHM DOCKING 3 of 100
Run: 3 Seed: 987478612 1902075766 [ Run 3 of 100 GA/GALS ]
Beginning LAMARCKIAN GENETIC ALGORITHM (LGA), with a maximum of 2500000 energy evaluations.

Final-Value: -14.881


	FINAL GENETIC ALGORITHM DOCKED STATE
	_______________________________________________


Detailed state:  trans 37.848 17.692 121.277 quatxyzw -0.658112 0.733209 0.128473 0.113082 center 0.576 -0.005 0.140 ntor 7 159.6814 179.9030 -155.9672 124.1724 -180.0000 -4.7991 -145.2708
State:	 37.848  17.692 121.277  -0.662  0.738  0.129 167.014    159.68  179.90 -155.97  124.17 -180.00   -4.80 -145.27

DOCKED: MODEL        3
DOCKED: USER    Run = 3
DOCKED: USER    DPF = ligand_dock.biased.dpf
DOCKED: USER  
DOCKED: USER    Estimated Free Energy of Binding    =  -11.11 kcal/mol  [=(1)+(2)+(3)-(4)]
DOCKED: USER    Estimated Inhibition Constant, Ki   =    7.16 nM (nanomolar)  [Temperature = 298.15 K]
DOCKED: USER    
DOCKED: USER    (1) Final Intermolecular Energy     =  -13.20 kcal/mol
DOCKED: USER        vdW + Hbond + desolv Energy     =  -13.20 kcal/mol
DOCKED: USER        Electrostatic Energy            =   +0.00 kcal/mol
DOCKED: USER    (2) Final Total Internal Energy     =   -1.68 kcal/mol
DOCKED: USER    (3) Torsional Free Energy           =   +2.09 kcal/mol
DOCKED: USER    (4) Unbound System's Energy  [=(2)] =   -1.68 kcal/mol
DOCKED: USER    
DOCKED: USER    
DOCKED: USER    NEWDPF move ligand.dum.pdbqt
DOCKED: USER    NEWDPF about 0.576000 -0.005000 0.140000
DOCKED: USER    NEWDPF tran0 37.847575 17.691839 121.277233
DOCKED: USER    NEWDPF quaternion0 -0.658112 0.733209 0.128473 0.113082
DOCKED: USER    NEWDPF axisangle0 -0.662361 0.737942 0.129303 167.013941
DOCKED: USER    NEWDPF quat0 -0.662361 0.737942 0.129303 167.013941
DOCKED: USER    NEWDPF dihe0 159.68 179.90 -155.97 124.17 -180.00 -4.80 -145.27 
DOCKED: USER  keepresnum = 1 
DOCKED: USER  
DOCKED: REMARK  Name = 
DOCKED: REMARK  8 active torsions:
DOCKED: REMARK  status: ('A' for Active; 'I' for Inactive)
DOCKED: REMARK    1  A    between atoms: C_2  and  C_3
DOCKED: REMARK    2  A    between atoms: C_4  and  C_5
DOCKED: REMARK    3  A    between atoms: C_8  and  C_9
DOCKED: REMARK    4  A    between atoms: C_9  and  N_10
DOCKED: REMARK    5  A    between atoms: N_10  and  C_11
DOCKED: REMARK    6  A    between atoms: C_11  and  C_12
DOCKED: REMARK    7  A    between atoms: C_12  and  C_13
DOCKED: REMARK    8  A    between atoms: C_14  and  C_22
DOCKED: REMARK                            x       y       z     vdW  Elec       q    Type
DOCKED: REMARK                         _______ _______ _______ _____ _____    ______ ____
DOCKED: USER                              x       y       z     vdW  Elec       q    Type
DOCKED: USER                           _______ _______ _______ _____ _____    ______ ____
DOCKED: ROOT
DOCKED: ATOM      1  N   UNL     1      37.709  18.421 121.032 -0.07 -0.00    +0.000 N 
DOCKED: ATOM      2  H   UNL     1      36.811  18.045 120.728 +0.00 -0.00    +0.000 HD
DOCKED: ATOM      3  H   UNL     1      38.418  18.327 120.305 +0.00 -0.00    +0.000 HD
DOCKED: ENDROOT
DOCKED: BRANCH   1   4
DOCKED: ATOM      4  C   UNL     1      38.166  17.663 122.204 -0.14 -0.00    +0.000 C 
DOCKED: BRANCH   4   8
DOCKED: ATOM      5  C   UNL     1      37.440  13.440 121.613 -0.41 -0.00    +0.000 A 
DOCKED: ATOM      6  C   UNL     1      37.836  14.257 120.535 -0.31 -0.00    +0.000 A 
DOCKED: ATOM      7  C   UNL     1      38.058  15.624 120.727 -0.19 -0.00    +0.000 A 
DOCKED: ATOM      8  C   UNL     1      37.887  16.201 121.994 -0.20 -0.00    +0.000 A 
DOCKED: ATOM      9  C   UNL     1      37.526  15.385 123.076 -0.34 -0.00    +0.000 A 
DOCKED: ATOM     10  C   UNL     1      37.305  14.019 122.886 -0.45 -0.00    +0.000 A 
DOCKED: ATOM     11  CM  UNL     1      37.676  14.821 121.806 +0.00 -0.00    +0.000 AC
DOCKED: BRANCH   5  12
DOCKED: ATOM     12  C   UNL     1      37.263  11.114 122.490 -0.34 -0.00    +0.000 C 
DOCKED: ATOM     13  C   UNL     1      37.203  11.982 121.468 -0.53 -0.00    +0.000 C 
DOCKED: BRANCH  11  14
DOCKED: ATOM     14  O   UNL     1      36.689   9.224 121.208 -2.62 -0.00    +0.000 OA
DOCKED: ATOM     15  C   UNL     1      37.028   9.664 122.339 -0.61 -0.00    +0.000 C 
DOCKED: ATOM     16  N   UNL     1      37.146   8.749 123.436 -0.61 -0.00    +0.000 N 
DOCKED: ATOM     17  O   UNL     1      37.024   7.418 123.226 -2.39 -0.00    +0.000 OA
DOCKED: ATOM     18  H   UNL     1      37.316   9.090 124.344 -0.59 -0.00    +0.000 HD
DOCKED: ENDBRANCH  11  14
DOCKED: ENDBRANCH   5  12
DOCKED: ENDBRANCH   4   8
DOCKED: ENDBRANCH   1   4
DOCKED: BRANCH   1  18
DOCKED: ATOM     19  C   UNL     1      37.548  19.854 121.321 -0.09 -0.00    +0.000 C 
DOCKED: BRANCH  18  19
DOCKED: ATOM     20  C   UNL     1      36.325  20.144 122.206 -0.10 -0.00    +0.000 C 
DOCKED: BRANCH  19  20
DOCKED: ATOM     21  C   UNL     1      35.550  18.882 122.458 -0.20 -0.00    +0.000 A 
DOCKED: ATOM     22  C   UNL     1      34.860  18.109 121.523 -0.29 -0.00    +0.000 A 
DOCKED: ATOM     23  N   UNL     1      34.223  17.080 122.130 -0.37 -0.00    +0.000 N 
DOCKED: ATOM     24  C   UNL     1      34.486  17.206 123.442 -0.39 -0.00    +0.000 A 
DOCKED: ATOM     25  C   UNL     1      35.286  18.296 123.682 -0.26 -0.00    +0.000 A 
DOCKED: ATOM     26  C   UNL     1      35.676  18.648 124.975 -0.22 -0.00    +0.000 A 
DOCKED: ATOM     27  C   UNL     1      35.231  17.842 126.038 -0.15 -0.00    +0.000 A 
DOCKED: ATOM     28  C   UNL     1      34.412  16.717 125.789 -0.28 -0.00    +0.000 A 
DOCKED: ATOM     29  C   UNL     1      34.029  16.391 124.476 -0.39 -0.00    +0.000 A 
DOCKED: ATOM     30  C   UNL     1      34.822  18.352 120.048 -0.26 -0.00    +0.000 C 
DOCKED: ATOM     31  H   UNL     1      33.678  16.382 121.698 +0.02 -0.00    +0.000 HD
DOCKED: ATOM     32  CM  UNL     1      34.860  17.888 122.630 -0.01 -0.00    +0.000 AC
DOCKED: ATOM     33  CM  UNL     1      34.854  17.517 124.734 -0.43 -0.00    +0.000 AC
DOCKED: ENDBRANCH  19  20
DOCKED: ENDBRANCH  18  19
DOCKED: ENDBRANCH   1  18
DOCKED: TORSDOF 7DOCKED: TER
DOCKED: ENDMDL
________________________________________________________________________________


	BEGINNING GENETIC ALGORITHM DOCKING 4 of 100
Run: 4 Seed: 621368108 1984412257 [ Run 4 of 100 GA/GALS ]
Beginning LAMARCKIAN GENETIC ALGORITHM (LGA), with a maximum of 2500000 energy evaluations.

Final-Value: -14.752


	FINAL GENETIC ALGORITHM DOCKED STATE
	_______________________________________________


Detailed state:  trans 35.822 17.811 123.130 quatxyzw 0.098492 0.737935 0.078845 0.662974 center 0.576 -0.005 0.140 ntor 7 38.6388 60.7697 63.4109 49.8336 89.3950 102.0698 15.3754
State:	 35.822  17.811 123.130   0.132  0.986  0.105 96.946     38.64   60.77   63.41   49.83   89.39  102.07   15.38

DOCKED: MODEL        4
DOCKED: USER    Run = 4
DOCKED: USER    DPF = ligand_dock.biased.dpf
DOCKED: USER  
DOCKED: USER    Estimated Free Energy of Binding    =  -10.37 kcal/mol  [=(1)+(2)+(3)-(4)]
DOCKED: USER    Estimated Inhibition Constant, Ki   =   25.13 nM (nanomolar)  [Temperature = 298.15 K]
DOCKED: USER    
DOCKED: USER    (1) Final Intermolecular Energy     =  -12.46 kcal/mol
DOCKED: USER        vdW + Hbond + desolv Energy     =  -12.46 kcal/mol
DOCKED: USER        Electrostatic Energy            =   +0.00 kcal/mol
DOCKED: USER    (2) Final Total Internal Energy     =   -2.30 kcal/mol
DOCKED: USER    (3) Torsional Free Energy           =   +2.09 kcal/mol
DOCKED: USER    (4) Unbound System's Energy  [=(2)] =   -2.30 kcal/mol
DOCKED: USER    
DOCKED: USER    
DOCKED: USER    NEWDPF move ligand.dum.pdbqt
DOCKED: USER    NEWDPF about 0.576000 -0.005000 0.140000
DOCKED: USER    NEWDPF tran0 35.821770 17.811120 123.130244
DOCKED: USER    NEWDPF quaternion0 0.098492 0.737935 0.078845 0.662974
DOCKED: USER    NEWDPF axisangle0 0.131561 0.985698 0.105317 96.945853
DOCKED: USER    NEWDPF quat0 0.131561 0.985698 0.105317 96.945853
DOCKED: USER    NEWDPF dihe0 38.64 60.77 63.41 49.83 89.39 102.07 15.38 
DOCKED: USER  keepresnum = 1 
DOCKED: USER  
DOCKED: REMARK  Name = 
DOCKED: REMARK  8 active torsions:
DOCKED: REMARK  status: ('A' for Active; 'I' for Inactive)
DOCKED: REMARK    1  A    between atoms: C_2  and  C_3
DOCKED: REMARK    2  A    between atoms: C_4  and  C_5
DOCKED: REMARK    3  A    between atoms: C_8  and  C_9
DOCKED: REMARK    4  A    between atoms: C_9  and  N_10
DOCKED: REMARK    5  A    between atoms: N_10  and  C_11
DOCKED: REMARK    6  A    between atoms: C_11  and  C_12
DOCKED: REMARK    7  A    between atoms: C_12  and  C_13
DOCKED: REMARK    8  A    between atoms: C_14  and  C_22
DOCKED: REMARK                            x       y       z     vdW  Elec       q    Type
DOCKED: REMARK                         _______ _______ _______ _____ _____    ______ ____
DOCKED: USER                              x       y       z     vdW  Elec       q    Type
DOCKED: USER                           _______ _______ _______ _____ _____    ______ ____
DOCKED: ROOT
DOCKED: ATOM      1  N   UNL     1      35.629  17.975 122.391 -0.24 -0.00    +0.000 N 
DOCKED: ATOM      2  H   UNL     1      35.206  18.813 122.788 -0.01 -0.00    +0.000 HD
DOCKED: ATOM      3  H   UNL     1      34.971  17.195 122.374 -0.01 -0.00    +0.000 HD
DOCKED: ENDROOT
DOCKED: BRANCH   1   4
DOCKED: ATOM      4  C   UNL     1      36.769  17.580 123.227 -0.23 -0.00    +0.000 C 
DOCKED: BRANCH   4   8
DOCKED: ATOM      5  C   UNL     1      37.192  13.279 123.067 -0.51 -0.00    +0.000 A 
DOCKED: ATOM      6  C   UNL     1      35.914  13.873 123.085 -0.36 -0.00    +0.000 A 
DOCKED: ATOM      7  C   UNL     1      35.781  15.264 123.149 -0.37 -0.00    +0.000 A 
DOCKED: ATOM      8  C   UNL     1      36.917  16.084 123.199 -0.29 -0.00    +0.000 A 
DOCKED: ATOM      9  C   UNL     1      38.190  15.498 123.147 -0.27 -0.00    +0.000 A 
DOCKED: ATOM     10  C   UNL     1      38.325  14.109 123.082 -0.39 -0.00    +0.000 A 
DOCKED: ATOM     11  CM  UNL     1      37.053  14.685 123.121 +0.00 -0.00    +0.000 AC
DOCKED: BRANCH   5  12
DOCKED: ATOM     12  C   UNL     1      36.626  10.995 122.244 -0.64 -0.00    +0.000 C 
DOCKED: ATOM     13  C   UNL     1      37.391  11.810 122.987 -0.47 -0.00    +0.000 C 
DOCKED: BRANCH  11  14
DOCKED: ATOM     14  O   UNL     1      36.988   9.006 121.038 -2.69 -0.00    +0.000 OA
DOCKED: ATOM     15  C   UNL     1      36.828   9.534 122.171 -0.67 -0.00    +0.000 C 
DOCKED: ATOM     16  N   UNL     1      36.820   8.698 123.335 -0.65 -0.00    +0.000 N 
DOCKED: ATOM     17  O   UNL     1      37.113   7.382 123.227 -2.37 -0.00    +0.000 OA
DOCKED: ATOM     18  H   UNL     1      36.601   9.084 124.214 -0.44 -0.00    +0.000 HD
DOCKED: ENDBRANCH  11  14
DOCKED: ENDBRANCH   5  12
DOCKED: ENDBRANCH   4   8
DOCKED: ENDBRANCH   1   4
DOCKED: BRANCH   1  18
DOCKED: ATOM     19  C   UNL     1      36.025  18.257 121.003 -0.21 -0.00    +0.000 C 
DOCKED: BRANCH  18  19
DOCKED: ATOM     20  C   UNL     1      36.000  17.002 120.116 -0.18 -0.00    +0.000 C 
DOCKED: BRANCH  19  20
DOCKED: ATOM     21  C   UNL     1      37.366  16.381 120.048 -0.14 -0.00    +0.000 A 
DOCKED: ATOM     22  C   UNL     1      37.678  15.043 119.804 -0.22 -0.00    +0.000 A 
DOCKED: ATOM     23  N   UNL     1      39.015  14.841 119.886 -0.21 -0.00    +0.000 N 
DOCKED: ATOM     24  C   UNL     1      39.549  16.033 120.201 -0.15 -0.00    +0.000 A 
DOCKED: ATOM     25  C   UNL     1      38.575  16.995 120.315 -0.08 -0.00    +0.000 A 
DOCKED: ATOM     26  C   UNL     1      38.884  18.312 120.658 -0.04 -0.00    +0.000 A 
DOCKED: ATOM     27  C   UNL     1      40.235  18.635 120.879 -0.03 -0.00    +0.000 A 
DOCKED: ATOM     28  C   UNL     1      41.236  17.646 120.756 -0.08 -0.00    +0.000 A 
DOCKED: ATOM     29  C   UNL     1      40.895  16.325 120.415 -0.15 -0.00    +0.000 A 
DOCKED: ATOM     30  C   UNL     1      36.696  13.963 119.481 -0.27 -0.00    +0.000 C 
DOCKED: ATOM     31  H   UNL     1      39.496  13.993 119.745 -0.07 -0.00    +0.000 HD
DOCKED: ATOM     32  CM  UNL     1      38.455  15.826 120.045 +0.00 -0.00    +0.000 AC
DOCKED: ATOM     33  CM  UNL     1      39.896  17.325 120.537 +0.00 -0.00    +0.000 AC
DOCKED: ENDBRANCH  19  20
DOCKED: ENDBRANCH  18  19
DOCKED: ENDBRANCH   1  18
DOCKED: TORSDOF 7DOCKED: TER
DOCKED: ENDMDL
________________________________________________________________________________


	BEGINNING GENETIC ALGORITHM DOCKING 5 of 100
Run: 5 Seed: 1635344337 2029578397 [ Run 5 of 100 GA/GALS ]
Beginning LAMARCKIAN GENETIC ALGORITHM (LGA), with a maximum of 2500000 energy evaluations.

Final-Value: -15.884


	FINAL GENETIC ALGORITHM DOCKED STATE
	_______________________________________________


Detailed state:  trans 36.748 17.282 124.327 quatxyzw -0.170493 0.317446 -0.720067 -0.593013 center 0.576 -0.005 0.140 ntor 7 -75.7319 53.7563 -165.5123 -15.7839 126.3724 -13.2969 -154.6499
State:	 36.748  17.282 124.327  -0.212  0.394 -0.894 -107.258    -75.73   53.76 -165.51  -15.78  126.37  -13.30 -154.65

DOCKED: MODEL        5
DOCKED: USER    Run = 5
DOCKED: USER    DPF = ligand_dock.biased.dpf
DOCKED: USER  
DOCKED: USER    Estimated Free Energy of Binding    =  -12.01 kcal/mol  [=(1)+(2)+(3)-(4)]
DOCKED: USER    Estimated Inhibition Constant, Ki   =    1.57 nM (nanomolar)  [Temperature = 298.15 K]
DOCKED: USER    
DOCKED: USER    (1) Final Intermolecular Energy     =  -14.10 kcal/mol
DOCKED: USER        vdW + Hbond + desolv Energy     =  -14.10 kcal/mol
DOCKED: USER        Electrostatic Energy            =   +0.00 kcal/mol
DOCKED: USER    (2) Final Total Internal Energy     =   -1.79 kcal/mol
DOCKED: USER    (3) Torsional Free Energy           =   +2.09 kcal/mol
DOCKED: USER    (4) Unbound System's Energy  [=(2)] =   -1.79 kcal/mol
DOCKED: USER    
DOCKED: USER    
DOCKED: USER    NEWDPF move ligand.dum.pdbqt
DOCKED: USER    NEWDPF about 0.576000 -0.005000 0.140000
DOCKED: USER    NEWDPF tran0 36.747815 17.282274 124.326755
DOCKED: USER    NEWDPF quaternion0 -0.170493 0.317446 -0.720067 -0.593013
DOCKED: USER    NEWDPF axisangle0 -0.211742 0.394248 -0.894278 -107.257821
DOCKED: USER    NEWDPF quat0 -0.211742 0.394248 -0.894278 -107.257821
DOCKED: USER    NEWDPF dihe0 -75.73 53.76 -165.51 -15.78 126.37 -13.30 -154.65 
DOCKED: USER  keepresnum = 1 
DOCKED: USER  
DOCKED: REMARK  Name = 
DOCKED: REMARK  8 active torsions:
DOCKED: REMARK  status: ('A' for Active; 'I' for Inactive)
DOCKED: REMARK    1  A    between atoms: C_2  and  C_3
DOCKED: REMARK    2  A    between atoms: C_4  and  C_5
DOCKED: REMARK    3  A    between atoms: C_8  and  C_9
DOCKED: REMARK    4  A    between atoms: C_9  and  N_10
DOCKED: REMARK    5  A    between atoms: N_10  and  C_11
DOCKED: REMARK    6  A    between atoms: C_11  and  C_12
DOCKED: REMARK    7  A    between atoms: C_12  and  C_13
DOCKED: REMARK    8  A    between atoms: C_14  and  C_22
DOCKED: REMARK                            x       y       z     vdW  Elec       q    Type
DOCKED: REMARK                         _______ _______ _______ _____ _____    ______ ____
DOCKED: USER                              x       y       z     vdW  Elec       q    Type
DOCKED: USER                           _______ _______ _______ _____ _____    ______ ____
DOCKED: ROOT
DOCKED: ATOM      1  N   UNL     1      37.198  17.875 124.566 -0.21 -0.00    +0.000 N 
DOCKED: ATOM      2  H   UNL     1      37.963  17.208 124.466 -0.02 -0.00    +0.000 HD
DOCKED: ATOM      3  H   UNL     1      36.783  17.831 125.498 -0.02 -0.00    +0.000 HD
DOCKED: ENDROOT
DOCKED: BRANCH   1   4
DOCKED: ATOM      4  C   UNL     1      36.149  17.540 123.595 -0.28 -0.00    +0.000 C 
DOCKED: BRANCH   4   8
DOCKED: ATOM      5  C   UNL     1      36.119  13.250 123.043 -0.45 -0.00    +0.000 A 
DOCKED: ATOM      6  C   UNL     1      36.705  14.092 122.077 -0.28 -0.00    +0.000 A 
DOCKED: ATOM      7  C   UNL     1      36.702  15.480 122.253 -0.27 -0.00    +0.000 A 
DOCKED: ATOM      8  C   UNL     1      36.114  16.050 123.390 -0.35 -0.00    +0.000 A 
DOCKED: ATOM      9  C   UNL     1      35.560  15.213 124.370 -0.39 -0.00    +0.000 A 
DOCKED: ATOM     10  C   UNL     1      35.563  13.827 124.197 -0.29 -0.00    +0.000 A 
DOCKED: ATOM     11  CM  UNL     1      36.127  14.652 123.222 +0.00 -0.00    +0.000 AC
DOCKED: BRANCH   5  12
DOCKED: ATOM     12  C   UNL     1      37.066  11.069 122.294 -0.56 -0.00    +0.000 C 
DOCKED: ATOM     13  C   UNL     1      36.104  11.771 122.913 -0.66 -0.00    +0.000 C 
DOCKED: BRANCH  11  14
DOCKED: ATOM     14  O   UNL     1      37.059   9.095 121.011 -2.72 -0.00    +0.000 OA
DOCKED: ATOM     15  C   UNL     1      37.045   9.598 122.166 -0.61 -0.00    +0.000 C 
DOCKED: ATOM     16  N   UNL     1      36.981   8.730 123.305 -0.66 -0.00    +0.000 N 
DOCKED: ATOM     17  O   UNL     1      37.070   7.389 123.141 -2.36 -0.00    +0.000 OA
DOCKED: ATOM     18  H   UNL     1      36.873   9.109 124.206 -0.52 -0.00    +0.000 HD
DOCKED: ENDBRANCH  11  14
DOCKED: ENDBRANCH   5  12
DOCKED: ENDBRANCH   4   8
DOCKED: ENDBRANCH   1   4
DOCKED: BRANCH   1  18
DOCKED: ATOM     19  C   UNL     1      37.726  19.234 124.373 -0.14 -0.00    +0.000 C 
DOCKED: BRANCH  18  19
DOCKED: ATOM     20  C   UNL     1      38.783  19.302 123.259 -0.09 -0.00    +0.000 C 
DOCKED: BRANCH  19  20
DOCKED: ATOM     21  C   UNL     1      39.923  18.373 123.561 -0.16 -0.00    +0.000 A 
DOCKED: ATOM     22  C   UNL     1      40.940  18.556 124.499 -0.24 -0.00    +0.000 A 
DOCKED: ATOM     23  N   UNL     1      41.832  17.538 124.442 -0.29 -0.00    +0.000 N 
DOCKED: ATOM     24  C   UNL     1      41.400  16.725 123.463 -0.32 -0.00    +0.000 A 
DOCKED: ATOM     25  C   UNL     1      40.244  17.203 122.898 -0.22 -0.00    +0.000 A 
DOCKED: ATOM     26  C   UNL     1      39.616  16.541 121.842 -0.18 -0.00    +0.000 A 
DOCKED: ATOM     27  C   UNL     1      40.201  15.352 121.371 -0.27 -0.00    +0.000 A 
DOCKED: ATOM     28  C   UNL     1      41.388  14.858 121.957 -0.33 -0.00    +0.000 A 
DOCKED: ATOM     29  C   UNL     1      42.002  15.549 123.016 -0.40 +0.00    +0.000 A 
DOCKED: ATOM     30  C   UNL     1      41.049  19.699 125.457 -0.18 -0.00    +0.000 C 
DOCKED: ATOM     31  H   UNL     1      42.633  17.419 125.003 -0.62 -0.00    +0.000 HD
DOCKED: ATOM     32  CM  UNL     1      40.899  17.675 123.794 +0.00 -0.00    +0.000 AC
DOCKED: ATOM     33  CM  UNL     1      40.808  16.038 122.424 +0.00 -0.00    +0.000 AC
DOCKED: ENDBRANCH  19  20
DOCKED: ENDBRANCH  18  19
DOCKED: ENDBRANCH   1  18
DOCKED: TORSDOF 7DOCKED: TER
DOCKED: ENDMDL
________________________________________________________________________________


	BEGINNING GENETIC ALGORITHM DOCKING 6 of 100
Run: 6 Seed: 1402218362 185316595 [ Run 6 of 100 GA/GALS ]
Beginning LAMARCKIAN GENETIC ALGORITHM (LGA), with a maximum of 2500000 energy evaluations.

Final-Value: -14.261


	FINAL GENETIC ALGORITHM DOCKED STATE
	_______________________________________________


Detailed state:  trans 36.003 17.799 123.903 quatxyzw 0.368396 0.523128 0.045129 0.767193 center 0.576 -0.005 0.140 ntor 7 -169.7209 -63.0848 -152.7020 30.7852 15.0931 141.0148 143.4898
State:	 36.003  17.799 123.903   0.574  0.816  0.070 79.795   -169.72  -63.08 -152.70   30.79   15.09  141.01  143.49

DOCKED: MODEL        6
DOCKED: USER    Run = 6
DOCKED: USER    DPF = ligand_dock.biased.dpf
DOCKED: USER  
DOCKED: USER    Estimated Free Energy of Binding    =  -11.08 kcal/mol  [=(1)+(2)+(3)-(4)]
DOCKED: USER    Estimated Inhibition Constant, Ki   =    7.57 nM (nanomolar)  [Temperature = 298.15 K]
DOCKED: USER    
DOCKED: USER    (1) Final Intermolecular Energy     =  -13.17 kcal/mol
DOCKED: USER        vdW + Hbond + desolv Energy     =  -13.17 kcal/mol
DOCKED: USER        Electrostatic Energy            =   +0.00 kcal/mol
DOCKED: USER    (2) Final Total Internal Energy     =   -1.09 kcal/mol
DOCKED: USER    (3) Torsional Free Energy           =   +2.09 kcal/mol
DOCKED: USER    (4) Unbound System's Energy  [=(2)] =   -1.09 kcal/mol
DOCKED: USER    
DOCKED: USER    
DOCKED: USER    NEWDPF move ligand.dum.pdbqt
DOCKED: USER    NEWDPF about 0.576000 -0.005000 0.140000
DOCKED: USER    NEWDPF tran0 36.002887 17.799247 123.903277
DOCKED: USER    NEWDPF quaternion0 0.368396 0.523128 0.045129 0.767193
DOCKED: USER    NEWDPF axisangle0 0.574347 0.815583 0.070358 79.795043
DOCKED: USER    NEWDPF quat0 0.574347 0.815583 0.070358 79.795043
DOCKED: USER    NEWDPF dihe0 -169.72 -63.08 -152.70 30.79 15.09 141.01 143.49 
DOCKED: USER  keepresnum = 1 
DOCKED: USER  
DOCKED: REMARK  Name = 
DOCKED: REMARK  8 active torsions:
DOCKED: REMARK  status: ('A' for Active; 'I' for Inactive)
DOCKED: REMARK    1  A    between atoms: C_2  and  C_3
DOCKED: REMARK    2  A    between atoms: C_4  and  C_5
DOCKED: REMARK    3  A    between atoms: C_8  and  C_9
DOCKED: REMARK    4  A    between atoms: C_9  and  N_10
DOCKED: REMARK    5  A    between atoms: N_10  and  C_11
DOCKED: REMARK    6  A    between atoms: C_11  and  C_12
DOCKED: REMARK    7  A    between atoms: C_12  and  C_13
DOCKED: REMARK    8  A    between atoms: C_14  and  C_22
DOCKED: REMARK                            x       y       z     vdW  Elec       q    Type
DOCKED: REMARK                         _______ _______ _______ _____ _____    ______ ____
DOCKED: USER                              x       y       z     vdW  Elec       q    Type
DOCKED: USER                           _______ _______ _______ _____ _____    ______ ____
DOCKED: ROOT
DOCKED: ATOM      1  N   UNL     1      35.504  17.850 123.303 -0.26 -0.00    +0.000 N 
DOCKED: ATOM      2  H   UNL     1      35.594  18.857 123.439 -0.01 -0.00    +0.000 HD
DOCKED: ATOM      3  H   UNL     1      34.754  17.462 123.876 -0.01 -0.00    +0.000 HD
DOCKED: ENDROOT
DOCKED: BRANCH   1   4
DOCKED: ATOM      4  C   UNL     1      36.758  17.205 123.712 -0.27 -0.00    +0.000 C 
DOCKED: BRANCH   4   8
DOCKED: ATOM      5  C   UNL     1      36.571  13.022 122.626 -0.48 -0.00    +0.000 A 
DOCKED: ATOM      6  C   UNL     1      35.584  13.592 123.455 -0.42 -0.00    +0.000 A 
DOCKED: ATOM      7  C   UNL     1      35.654  14.942 123.814 -0.47 -0.00    +0.000 A 
DOCKED: ATOM      8  C   UNL     1      36.709  15.745 123.356 -0.33 -0.00    +0.000 A 
DOCKED: ATOM      9  C   UNL     1      37.674  15.189 122.504 -0.33 -0.00    +0.000 A 
DOCKED: ATOM     10  C   UNL     1      37.605  13.842 122.143 -0.42 -0.00    +0.000 A 
DOCKED: ATOM     11  CM  UNL     1      36.633  14.389 122.983 +0.00 -0.00    +0.000 AC
DOCKED: BRANCH   5  12
DOCKED: ATOM     12  C   UNL     1      37.048  10.596 122.935 -0.60 -0.00    +0.000 C 
DOCKED: ATOM     13  C   UNL     1      36.539  11.600 122.204 -0.62 -0.00    +0.000 C 
DOCKED: BRANCH  11  14
DOCKED: ATOM     14  O   UNL     1      36.981   8.926 121.276 -2.59 -0.00    +0.000 OA
DOCKED: ATOM     15  C   UNL     1      37.015   9.182 122.509 -0.66 -0.00    +0.000 C 
DOCKED: ATOM     16  N   UNL     1      36.992   8.098 123.447 -0.73 -0.00    +0.000 N 
DOCKED: ATOM     17  O   UNL     1      37.068   6.820 123.008 -1.69 -0.00    +0.000 OA
DOCKED: ATOM     18  H   UNL     1      36.922   8.285 124.411 -0.39 -0.00    +0.000 HD
DOCKED: ENDBRANCH  11  14
DOCKED: ENDBRANCH   5  12
DOCKED: ENDBRANCH   4   8
DOCKED: ENDBRANCH   1   4
DOCKED: BRANCH   1  18
DOCKED: ATOM     19  C   UNL     1      35.175  17.590 121.894 -0.32 -0.00    +0.000 C 
DOCKED: BRANCH  18  19
DOCKED: ATOM     20  C   UNL     1      34.524  18.802 121.208 -0.11 -0.00    +0.000 C 
DOCKED: BRANCH  19  20
DOCKED: ATOM     21  C   UNL     1      33.972  18.411 119.867 -0.27 -0.00    +0.000 A 
DOCKED: ATOM     22  C   UNL     1      34.682  17.930 118.766 -0.16 -0.00    +0.000 A 
DOCKED: ATOM     23  N   UNL     1      33.857  17.749 117.707 -0.15 -0.00    +0.000 N 
DOCKED: ATOM     24  C   UNL     1      32.637  18.131 118.121 -0.19 -0.00    +0.000 A 
DOCKED: ATOM     25  C   UNL     1      32.668  18.547 119.430 -0.34 -0.00    +0.000 A 
DOCKED: ATOM     26  C   UNL     1      31.524  19.015 120.077 -0.44 -0.00    +0.000 A 
DOCKED: ATOM     27  C   UNL     1      30.321  19.040 119.349 -0.37 -0.00    +0.000 A 
DOCKED: ATOM     28  C   UNL     1      30.289  18.607 118.004 -0.24 -0.00    +0.000 A 
DOCKED: ATOM     29  C   UNL     1      31.459  18.147 117.375 -0.17 -0.00    +0.000 A 
DOCKED: ATOM     30  C   UNL     1      36.147  17.633 118.734 -0.12 -0.00    +0.000 C 
DOCKED: ATOM     31  H   UNL     1      34.102  17.408 116.816 +0.00 -0.00    +0.000 HD
DOCKED: ATOM     32  CM  UNL     1      33.573  18.140 118.744 +0.00 -0.00    +0.000 AC
DOCKED: ATOM     33  CM  UNL     1      31.483  18.581 118.727 +0.00 -0.00    +0.000 AC
DOCKED: ENDBRANCH  19  20
DOCKED: ENDBRANCH  18  19
DOCKED: ENDBRANCH   1  18
DOCKED: TORSDOF 7DOCKED: TER
DOCKED: ENDMDL
________________________________________________________________________________


	BEGINNING GENETIC ALGORITHM DOCKING 7 of 100
Run: 7 Seed: 380099857 592682180 [ Run 7 of 100 GA/GALS ]
Beginning LAMARCKIAN GENETIC ALGORITHM (LGA), with a maximum of 2500000 energy evaluations.

Final-Value: -14.173


	FINAL GENETIC ALGORITHM DOCKED STATE
	_______________________________________________


Detailed state:  trans 35.984 16.495 122.141 quatxyzw 0.439650 -0.223643 -0.851665 -0.177082 center 0.576 -0.005 0.140 ntor 7 -117.3315 47.2907 166.3653 68.3974 56.4517 -75.7793 -12.5031
State:	 35.984  16.495 122.141   0.447 -0.227 -0.865 -159.600   -117.33   47.29  166.37   68.40   56.45  -75.78  -12.50

DOCKED: MODEL        7
DOCKED: USER    Run = 7
DOCKED: USER    DPF = ligand_dock.biased.dpf
DOCKED: USER  
DOCKED: USER    Estimated Free Energy of Binding    =  -10.57 kcal/mol  [=(1)+(2)+(3)-(4)]
DOCKED: USER    Estimated Inhibition Constant, Ki   =   17.91 nM (nanomolar)  [Temperature = 298.15 K]
DOCKED: USER    
DOCKED: USER    (1) Final Intermolecular Energy     =  -12.66 kcal/mol
DOCKED: USER        vdW + Hbond + desolv Energy     =  -12.66 kcal/mol
DOCKED: USER        Electrostatic Energy            =   +0.00 kcal/mol
DOCKED: USER    (2) Final Total Internal Energy     =   -1.52 kcal/mol
DOCKED: USER    (3) Torsional Free Energy           =   +2.09 kcal/mol
DOCKED: USER    (4) Unbound System's Energy  [=(2)] =   -1.52 kcal/mol
DOCKED: USER    
DOCKED: USER    
DOCKED: USER    NEWDPF move ligand.dum.pdbqt
DOCKED: USER    NEWDPF about 0.576000 -0.005000 0.140000
DOCKED: USER    NEWDPF tran0 35.984283 16.495187 122.141133
DOCKED: USER    NEWDPF quaternion0 0.439650 -0.223643 -0.851665 -0.177082
DOCKED: USER    NEWDPF axisangle0 0.446710 -0.227234 -0.865341 -159.600294
DOCKED: USER    NEWDPF quat0 0.446710 -0.227234 -0.865341 -159.600294
DOCKED: USER    NEWDPF dihe0 -117.33 47.29 166.37 68.40 56.45 -75.78 -12.50 
DOCKED: USER  keepresnum = 1 
DOCKED: USER  
DOCKED: REMARK  Name = 
DOCKED: REMARK  8 active torsions:
DOCKED: REMARK  status: ('A' for Active; 'I' for Inactive)
DOCKED: REMARK    1  A    between atoms: C_2  and  C_3
DOCKED: REMARK    2  A    between atoms: C_4  and  C_5
DOCKED: REMARK    3  A    between atoms: C_8  and  C_9
DOCKED: REMARK    4  A    between atoms: C_9  and  N_10
DOCKED: REMARK    5  A    between atoms: N_10  and  C_11
DOCKED: REMARK    6  A    between atoms: C_11  and  C_12
DOCKED: REMARK    7  A    between atoms: C_12  and  C_13
DOCKED: REMARK    8  A    between atoms: C_14  and  C_22
DOCKED: REMARK                            x       y       z     vdW  Elec       q    Type
DOCKED: REMARK                         _______ _______ _______ _____ _____    ______ ____
DOCKED: USER                              x       y       z     vdW  Elec       q    Type
DOCKED: USER                           _______ _______ _______ _____ _____    ______ ____
DOCKED: ROOT
DOCKED: ATOM      1  N   UNL     1      36.134  16.816 122.838 -0.26 -0.00    +0.000 N 
DOCKED: ATOM      2  H   UNL     1      35.474  16.124 123.191 -0.01 -0.00    +0.000 HD
DOCKED: ATOM      3  H   UNL     1      35.660  17.676 122.559 -0.00 -0.00    +0.000 HD
DOCKED: ENDROOT
DOCKED: BRANCH   1   4
DOCKED: ATOM      4  C   UNL     1      36.802  16.269 121.650 -0.23 -0.00    +0.000 C 
DOCKED: BRANCH   4   8
DOCKED: ATOM      5  C   UNL     1      36.948  11.958 121.972 -0.51 -0.00    +0.000 A 
DOCKED: ATOM      6  C   UNL     1      36.734  12.755 123.114 -0.56 -0.00    +0.000 A 
DOCKED: ATOM      7  C   UNL     1      36.700  14.149 123.009 -0.45 -0.00    +0.000 A 
DOCKED: ATOM      8  C   UNL     1      36.880  14.772 121.766 -0.23 -0.00    +0.000 A 
DOCKED: ATOM      9  C   UNL     1      37.059  13.981 120.621 -0.27 -0.00    +0.000 A 
DOCKED: ATOM     10  C   UNL     1      37.093  12.589 120.724 -0.45 -0.00    +0.000 A 
DOCKED: ATOM     11  CM  UNL     1      36.902  13.367 121.867 +0.00 -0.00    +0.000 AC
DOCKED: BRANCH   5  12
DOCKED: ATOM     12  C   UNL     1      36.374   9.750 122.976 -0.68 -0.00    +0.000 C 
DOCKED: ATOM     13  C   UNL     1      36.982  10.475 122.024 -0.55 -0.00    +0.000 C 
DOCKED: BRANCH  11  14
DOCKED: ATOM     14  O   UNL     1      37.444   7.716 123.484 -2.58 -0.00    +0.000 OA
DOCKED: ATOM     15  C   UNL     1      36.413   8.275 123.024 -0.77 -0.00    +0.000 C 
DOCKED: ATOM     16  N   UNL     1      35.334   7.462 122.544 -0.63 -0.00    +0.000 N 
DOCKED: ATOM     17  O   UNL     1      35.372   6.119 122.706 -0.83 -0.00    +0.000 OA
DOCKED: ATOM     18  H   UNL     1      34.565   7.883 122.096 -0.00 -0.00    +0.000 HD
DOCKED: ENDBRANCH  11  14
DOCKED: ENDBRANCH   5  12
DOCKED: ENDBRANCH   4   8
DOCKED: ENDBRANCH   1   4
DOCKED: BRANCH   1  18
DOCKED: ATOM     19  C   UNL     1      37.084  17.153 123.909 -0.25 -0.00    +0.000 C 
DOCKED: BRANCH  18  19
DOCKED: ATOM     20  C   UNL     1      38.109  18.214 123.475 -0.17 -0.00    +0.000 C 
DOCKED: BRANCH  19  20
DOCKED: ATOM     21  C   UNL     1      39.505  17.739 123.757 -0.21 -0.00    +0.000 A 
DOCKED: ATOM     22  C   UNL     1      40.339  18.133 124.805 -0.27 -0.00    +0.000 A 
DOCKED: ATOM     23  N   UNL     1      41.553  17.543 124.698 -0.34 -0.00    +0.000 N 
DOCKED: ATOM     24  C   UNL     1      41.502  16.796 123.581 -0.25 -0.00    +0.000 A 
DOCKED: ATOM     25  C   UNL     1      40.273  16.895 122.977 -0.25 -0.00    +0.000 A 
DOCKED: ATOM     26  C   UNL     1      39.986  16.226 121.786 -0.22 -0.00    +0.000 A 
DOCKED: ATOM     27  C   UNL     1      40.998  15.431 121.219 -0.19 -0.00    +0.000 A 
DOCKED: ATOM     28  C   UNL     1      42.260  15.326 121.844 -0.34 -0.00    +0.000 A 
DOCKED: ATOM     29  C   UNL     1      42.524  16.017 123.040 -0.38 -0.00    +0.000 A 
DOCKED: ATOM     30  C   UNL     1      39.967  19.065 125.913 -0.23 -0.00    +0.000 C 
DOCKED: ATOM     31  H   UNL     1      42.317  17.641 125.312 -0.56 -0.00    +0.000 HD
DOCKED: ATOM     32  CM  UNL     1      40.664  17.425 123.988 +0.00 -0.00    +0.000 AC
DOCKED: ATOM     33  CM  UNL     1      41.257  16.115 122.408 +0.00 -0.00    +0.000 AC
DOCKED: ENDBRANCH  19  20
DOCKED: ENDBRANCH  18  19
DOCKED: ENDBRANCH   1  18
DOCKED: TORSDOF 7DOCKED: TER
DOCKED: ENDMDL
________________________________________________________________________________


	BEGINNING GENETIC ALGORITHM DOCKING 8 of 100
Run: 8 Seed: 1236819388 1491589250 [ Run 8 of 100 GA/GALS ]
Beginning LAMARCKIAN GENETIC ALGORITHM (LGA), with a maximum of 2500000 energy evaluations.

Final-Value: -15.230


	FINAL GENETIC ALGORITHM DOCKED STATE
	_______________________________________________


Detailed state:  trans 38.147 17.540 122.109 quatxyzw -0.658743 0.749218 -0.009797 -0.068076 center 0.576 -0.005 0.140 ntor 7 146.2920 180.0000 162.0389 117.2024 -142.9459 -4.6983 -160.3795
State:	 38.147  17.540 122.109  -0.660  0.751 -0.010 -172.193    146.29  180.00  162.04  117.20 -142.95   -4.70 -160.38

DOCKED: MODEL        8
DOCKED: USER    Run = 8
DOCKED: USER    DPF = ligand_dock.biased.dpf
DOCKED: USER  
DOCKED: USER    Estimated Free Energy of Binding    =  -11.30 kcal/mol  [=(1)+(2)+(3)-(4)]
DOCKED: USER    Estimated Inhibition Constant, Ki   =    5.17 nM (nanomolar)  [Temperature = 298.15 K]
DOCKED: USER    
DOCKED: USER    (1) Final Intermolecular Energy     =  -13.39 kcal/mol
DOCKED: USER        vdW + Hbond + desolv Energy     =  -13.39 kcal/mol
DOCKED: USER        Electrostatic Energy            =   +0.00 kcal/mol
DOCKED: USER    (2) Final Total Internal Energy     =   -1.84 kcal/mol
DOCKED: USER    (3) Torsional Free Energy           =   +2.09 kcal/mol
DOCKED: USER    (4) Unbound System's Energy  [=(2)] =   -1.84 kcal/mol
DOCKED: USER    
DOCKED: USER    
DOCKED: USER    NEWDPF move ligand.dum.pdbqt
DOCKED: USER    NEWDPF about 0.576000 -0.005000 0.140000
DOCKED: USER    NEWDPF tran0 38.146997 17.539911 122.108690
DOCKED: USER    NEWDPF quaternion0 -0.658743 0.749218 -0.009797 -0.068076
DOCKED: USER    NEWDPF axisangle0 -0.660274 0.750960 -0.009820 -172.193013
DOCKED: USER    NEWDPF quat0 -0.660274 0.750960 -0.009820 -172.193013
DOCKED: USER    NEWDPF dihe0 146.29 180.00 162.04 117.20 -142.95 -4.70 -160.38 
DOCKED: USER  keepresnum = 1 
DOCKED: USER  
DOCKED: REMARK  Name = 
DOCKED: REMARK  8 active torsions:
DOCKED: REMARK  status: ('A' for Active; 'I' for Inactive)
DOCKED: REMARK    1  A    between atoms: C_2  and  C_3
DOCKED: REMARK    2  A    between atoms: C_4  and  C_5
DOCKED: REMARK    3  A    between atoms: C_8  and  C_9
DOCKED: REMARK    4  A    between atoms: C_9  and  N_10
DOCKED: REMARK    5  A    between atoms: N_10  and  C_11
DOCKED: REMARK    6  A    between atoms: C_11  and  C_12
DOCKED: REMARK    7  A    between atoms: C_12  and  C_13
DOCKED: REMARK    8  A    between atoms: C_14  and  C_22
DOCKED: REMARK                            x       y       z     vdW  Elec       q    Type
DOCKED: REMARK                         _______ _______ _______ _____ _____    ______ ____
DOCKED: USER                              x       y       z     vdW  Elec       q    Type
DOCKED: USER                           _______ _______ _______ _____ _____    ______ ____
DOCKED: ROOT
DOCKED: ATOM      1  N   UNL     1      38.150  18.280 121.856 -0.08 -0.00    +0.000 N 
DOCKED: ATOM      2  H   UNL     1      37.468  17.948 121.174 +0.00 -0.00    +0.000 HD
DOCKED: ATOM      3  H   UNL     1      39.104  18.173 121.512 +0.00 -0.00    +0.000 HD
DOCKED: ENDROOT
DOCKED: BRANCH   1   4
DOCKED: ATOM      4  C   UNL     1      38.024  17.477 123.079 -0.20 -0.00    +0.000 C 
DOCKED: BRANCH   4   8
DOCKED: ATOM      5  C   UNL     1      37.530  13.303 122.059 -0.44 -0.00    +0.000 A 
DOCKED: ATOM      6  C   UNL     1      38.263  14.164 121.217 -0.34 -0.00    +0.000 A 
DOCKED: ATOM      7  C   UNL     1      38.410  15.516 121.544 -0.24 -0.00    +0.000 A 
DOCKED: ATOM      8  C   UNL     1      37.829  16.032 122.711 -0.26 -0.00    +0.000 A 
DOCKED: ATOM      9  C   UNL     1      37.128  15.171 123.568 -0.30 -0.00    +0.000 A 
DOCKED: ATOM     10  C   UNL     1      36.980  13.820 123.243 -0.48 -0.00    +0.000 A 
DOCKED: ATOM     11  CM  UNL     1      37.690  14.668 122.391 +0.00 -0.00    +0.000 AC
DOCKED: BRANCH   5  12
DOCKED: ATOM     12  C   UNL     1      37.066  10.940 122.702 -0.59 -0.00    +0.000 C 
DOCKED: ATOM     13  C   UNL     1      37.352  11.858 121.766 -0.46 -0.00    +0.000 C 
DOCKED: BRANCH  11  14
DOCKED: ATOM     14  O   UNL     1      36.694   9.156 121.211 -2.63 -0.00    +0.000 OA
DOCKED: ATOM     15  C   UNL     1      36.893   9.504 122.405 -0.66 -0.00    +0.000 C 
DOCKED: ATOM     16  N   UNL     1      36.916   8.500 123.429 -0.67 -0.00    +0.000 N 
DOCKED: ATOM     17  O   UNL     1      36.857   7.190 123.095 -2.08 -0.00    +0.000 OA
DOCKED: ATOM     18  H   UNL     1      36.975   8.765 124.375 -0.49 -0.00    +0.000 HD
DOCKED: ENDBRANCH  11  14
DOCKED: ENDBRANCH   5  12
DOCKED: ENDBRANCH   4   8
DOCKED: ENDBRANCH   1   4
DOCKED: BRANCH   1  18
DOCKED: ATOM     19  C   UNL     1      37.918  19.711 122.100 -0.08 -0.00    +0.000 C 
DOCKED: BRANCH  18  19
DOCKED: ATOM     20  C   UNL     1      36.432  20.093 122.001 -0.10 -0.00    +0.000 C 
DOCKED: BRANCH  19  20
DOCKED: ATOM     21  C   UNL     1      35.567  18.956 122.465 -0.19 -0.00    +0.000 A 
DOCKED: ATOM     22  C   UNL     1      34.775  18.118 121.680 -0.30 -0.00    +0.000 A 
DOCKED: ATOM     23  N   UNL     1      34.082  17.250 122.455 -0.41 -0.00    +0.000 N 
DOCKED: ATOM     24  C   UNL     1      34.412  17.546 123.724 -0.37 -0.00    +0.000 A 
DOCKED: ATOM     25  C   UNL     1      35.309  18.585 123.771 -0.24 -0.00    +0.000 A 
DOCKED: ATOM     26  C   UNL     1      35.783  19.088 124.983 -0.19 -0.00    +0.000 A 
DOCKED: ATOM     27  C   UNL     1      35.319  18.492 126.170 -0.20 -0.00    +0.000 A 
DOCKED: ATOM     28  C   UNL     1      34.400  17.420 126.120 -0.30 -0.00    +0.000 A 
DOCKED: ATOM     29  C   UNL     1      33.934  16.937 124.884 -0.32 -0.00    +0.000 A 
DOCKED: ATOM     30  C   UNL     1      34.693  18.141 120.187 -0.27 -0.00    +0.000 C 
DOCKED: ATOM     31  H   UNL     1      33.463  16.547 122.151 -0.04 -0.00    +0.000 HD
DOCKED: ATOM     32  CM  UNL     1      34.805  18.064 122.807 -0.01 -0.00    +0.000 AC
DOCKED: ATOM     33  CM  UNL     1      34.860  18.012 124.942 -0.46 -0.00    +0.000 AC
DOCKED: ENDBRANCH  19  20
DOCKED: ENDBRANCH  18  19
DOCKED: ENDBRANCH   1  18
DOCKED: TORSDOF 7DOCKED: TER
DOCKED: ENDMDL
________________________________________________________________________________


	BEGINNING GENETIC ALGORITHM DOCKING 9 of 100
Run: 9 Seed: 546145041 1231055311 [ Run 9 of 100 GA/GALS ]
Beginning LAMARCKIAN GENETIC ALGORITHM (LGA), with a maximum of 2500000 energy evaluations.

Final-Value: -14.747


	FINAL GENETIC ALGORITHM DOCKED STATE
	_______________________________________________


Detailed state:  trans 37.672 18.003 122.403 quatxyzw 0.959418 -0.223491 0.044900 0.165990 center 0.576 -0.005 0.140 ntor 7 -88.6101 -161.8144 -170.5593 -7.6338 123.4143 -85.3606 -172.6969
State:	 37.672  18.003 122.403   0.973 -0.227  0.046 160.891    -88.61 -161.81 -170.56   -7.63  123.41  -85.36 -172.70

DOCKED: MODEL        9
DOCKED: USER    Run = 9
DOCKED: USER    DPF = ligand_dock.biased.dpf
DOCKED: USER  
DOCKED: USER    Estimated Free Energy of Binding    =  -10.64 kcal/mol  [=(1)+(2)+(3)-(4)]
DOCKED: USER    Estimated Inhibition Constant, Ki   =   15.76 nM (nanomolar)  [Temperature = 298.15 K]
DOCKED: USER    
DOCKED: USER    (1) Final Intermolecular Energy     =  -12.73 kcal/mol
DOCKED: USER        vdW + Hbond + desolv Energy     =  -12.73 kcal/mol
DOCKED: USER        Electrostatic Energy            =   +0.00 kcal/mol
DOCKED: USER    (2) Final Total Internal Energy     =   -2.01 kcal/mol
DOCKED: USER    (3) Torsional Free Energy           =   +2.09 kcal/mol
DOCKED: USER    (4) Unbound System's Energy  [=(2)] =   -2.01 kcal/mol
DOCKED: USER    
DOCKED: USER    
DOCKED: USER    NEWDPF move ligand.dum.pdbqt
DOCKED: USER    NEWDPF about 0.576000 -0.005000 0.140000
DOCKED: USER    NEWDPF tran0 37.671766 18.003008 122.402508
DOCKED: USER    NEWDPF quaternion0 0.959418 -0.223491 0.044900 0.165990
DOCKED: USER    NEWDPF axisangle0 0.972915 -0.226635 0.045532 160.890524
DOCKED: USER    NEWDPF quat0 0.972915 -0.226635 0.045532 160.890524
DOCKED: USER    NEWDPF dihe0 -88.61 -161.81 -170.56 -7.63 123.41 -85.36 -172.70 
DOCKED: USER  keepresnum = 1 
DOCKED: USER  
DOCKED: REMARK  Name = 
DOCKED: REMARK  8 active torsions:
DOCKED: REMARK  status: ('A' for Active; 'I' for Inactive)
DOCKED: REMARK    1  A    between atoms: C_2  and  C_3
DOCKED: REMARK    2  A    between atoms: C_4  and  C_5
DOCKED: REMARK    3  A    between atoms: C_8  and  C_9
DOCKED: REMARK    4  A    between atoms: C_9  and  N_10
DOCKED: REMARK    5  A    between atoms: N_10  and  C_11
DOCKED: REMARK    6  A    between atoms: C_11  and  C_12
DOCKED: REMARK    7  A    between atoms: C_12  and  C_13
DOCKED: REMARK    8  A    between atoms: C_14  and  C_22
DOCKED: REMARK                            x       y       z     vdW  Elec       q    Type
DOCKED: REMARK                         _______ _______ _______ _____ _____    ______ ____
DOCKED: USER                              x       y       z     vdW  Elec       q    Type
DOCKED: USER                           _______ _______ _______ _____ _____    ______ ____
DOCKED: ROOT
DOCKED: ATOM      1  N   UNL     1      37.035  18.307 122.065 -0.12 -0.00    +0.000 N 
DOCKED: ATOM      2  H   UNL     1      37.260  17.676 121.296 +0.00 -0.00    +0.000 HD
DOCKED: ATOM      3  H   UNL     1      37.504  19.207 121.960 +0.00 -0.00    +0.000 HD
DOCKED: ENDROOT
DOCKED: BRANCH   1   4
DOCKED: ATOM      4  C   UNL     1      37.502  17.704 123.320 -0.21 -0.00    +0.000 C 
DOCKED: BRANCH   4   8
DOCKED: ATOM      5  C   UNL     1      36.714  13.454 123.170 -0.51 -0.00    +0.000 A 
DOCKED: ATOM      6  C   UNL     1      35.795  14.332 123.778 -0.49 -0.00    +0.000 A 
DOCKED: ATOM      7  C   UNL     1      36.058  15.704 123.836 -0.39 -0.00    +0.000 A 
DOCKED: ATOM      8  C   UNL     1      37.241  16.224 123.292 -0.27 -0.00    +0.000 A 
DOCKED: ATOM      9  C   UNL     1      38.142  15.358 122.656 -0.32 -0.00    +0.000 A 
DOCKED: ATOM     10  C   UNL     1      37.881  13.987 122.596 -0.43 -0.00    +0.000 A 
DOCKED: ATOM     11  CM  UNL     1      36.972  14.843 123.221 +0.00 -0.00    +0.000 AC
DOCKED: BRANCH   5  12
DOCKED: ATOM     12  C   UNL     1      37.296  11.150 122.419 -0.30 -0.00    +0.000 C 
DOCKED: ATOM     13  C   UNL     1      36.479  11.992 123.070 -0.68 -0.00    +0.000 C 
DOCKED: BRANCH  11  14
DOCKED: ATOM     14  O   UNL     1      36.696   9.219 121.212 -2.62 -0.00    +0.000 OA
DOCKED: ATOM     15  C   UNL     1      37.056   9.696 122.321 -0.59 -0.00    +0.000 C 
DOCKED: ATOM     16  N   UNL     1      37.193   8.818 123.447 -0.58 -0.00    +0.000 N 
DOCKED: ATOM     17  O   UNL     1      37.065   7.481 123.283 -2.47 -0.00    +0.000 OA
DOCKED: ATOM     18  H   UNL     1      37.380   9.190 124.339 -0.62 -0.00    +0.000 HD
DOCKED: ENDBRANCH  11  14
DOCKED: ENDBRANCH   5  12
DOCKED: ENDBRANCH   4   8
DOCKED: ENDBRANCH   1   4
DOCKED: BRANCH   1  18
DOCKED: ATOM     19  C   UNL     1      35.586  18.552 122.067 -0.26 -0.00    +0.000 C 
DOCKED: BRANCH  18  19
DOCKED: ATOM     20  C   UNL     1      34.802  17.464 121.315 -0.29 -0.00    +0.000 C 
DOCKED: BRANCH  19  20
DOCKED: ATOM     21  C   UNL     1      35.229  17.411 119.877 -0.12 -0.00    +0.000 A 
DOCKED: ATOM     22  C   UNL     1      34.823  18.253 118.840 -0.17 -0.00    +0.000 A 
DOCKED: ATOM     23  N   UNL     1      35.364  17.859 117.663 -0.09 -0.00    +0.000 N 
DOCKED: ATOM     24  C   UNL     1      36.091  16.763 117.941 -0.12 -0.00    +0.000 A 
DOCKED: ATOM     25  C   UNL     1      36.028  16.455 119.278 -0.11 -0.00    +0.000 A 
DOCKED: ATOM     26  C   UNL     1      36.685  15.342 119.805 -0.14 -0.00    +0.000 A 
DOCKED: ATOM     27  C   UNL     1      37.430  14.540 118.922 -0.26 -0.00    +0.000 A 
DOCKED: ATOM     28  C   UNL     1      37.499  14.861 117.548 -0.22 -0.00    +0.000 A 
DOCKED: ATOM     29  C   UNL     1      36.821  15.985 117.044 -0.12 -0.00    +0.000 A 
DOCKED: ATOM     30  C   UNL     1      33.926  19.442 118.982 -0.23 -0.00    +0.000 C 
DOCKED: ATOM     31  H   UNL     1      35.248  18.287 116.784 +0.00 -0.00    +0.000 HD
DOCKED: ATOM     32  CM  UNL     1      35.502  17.365 118.686 +0.00 -0.00    +0.000 AC
DOCKED: ATOM     33  CM  UNL     1      36.759  15.657 118.423 +0.00 -0.00    +0.000 AC
DOCKED: ENDBRANCH  19  20
DOCKED: ENDBRANCH  18  19
DOCKED: ENDBRANCH   1  18
DOCKED: TORSDOF 7DOCKED: TER
DOCKED: ENDMDL
________________________________________________________________________________


	BEGINNING GENETIC ALGORITHM DOCKING 10 of 100
Run: 10 Seed: 1486544118 1129332078 [ Run 10 of 100 GA/GALS ]
Beginning LAMARCKIAN GENETIC ALGORITHM (LGA), with a maximum of 2500000 energy evaluations.

Final-Value: -14.362


	FINAL GENETIC ALGORITHM DOCKED STATE
	_______________________________________________


Detailed state:  trans 38.734 16.615 121.821 quatxyzw 0.140450 -0.637607 -0.056965 0.755305 center 0.576 -0.005 0.140 ntor 7 33.7096 -156.4375 170.5799 163.4719 -57.9843 118.3914 -138.6602
State:	 38.734  16.615 121.821   0.214 -0.973 -0.087 81.896     33.71 -156.44  170.58  163.47  -57.98  118.39 -138.66

DOCKED: MODEL       10
DOCKED: USER    Run = 10
DOCKED: USER    DPF = ligand_dock.biased.dpf
DOCKED: USER  
DOCKED: USER    Estimated Free Energy of Binding    =  -10.73 kcal/mol  [=(1)+(2)+(3)-(4)]
DOCKED: USER    Estimated Inhibition Constant, Ki   =   13.64 nM (nanomolar)  [Temperature = 298.15 K]
DOCKED: USER    
DOCKED: USER    (1) Final Intermolecular Energy     =  -12.82 kcal/mol
DOCKED: USER        vdW + Hbond + desolv Energy     =  -12.82 kcal/mol
DOCKED: USER        Electrostatic Energy            =   +0.00 kcal/mol
DOCKED: USER    (2) Final Total Internal Energy     =   -1.54 kcal/mol
DOCKED: USER    (3) Torsional Free Energy           =   +2.09 kcal/mol
DOCKED: USER    (4) Unbound System's Energy  [=(2)] =   -1.54 kcal/mol
DOCKED: USER    
DOCKED: USER    
DOCKED: USER    NEWDPF move ligand.dum.pdbqt
DOCKED: USER    NEWDPF about 0.576000 -0.005000 0.140000
DOCKED: USER    NEWDPF tran0 38.734214 16.615215 121.821251
DOCKED: USER    NEWDPF quaternion0 0.140450 -0.637607 -0.056965 0.755305
DOCKED: USER    NEWDPF axisangle0 0.214305 -0.972892 -0.086919 81.895876
DOCKED: USER    NEWDPF quat0 0.214305 -0.972892 -0.086919 81.895876
DOCKED: USER    NEWDPF dihe0 33.71 -156.44 170.58 163.47 -57.98 118.39 -138.66 
DOCKED: USER  keepresnum = 1 
DOCKED: USER  
DOCKED: REMARK  Name = 
DOCKED: REMARK  8 active torsions:
DOCKED: REMARK  status: ('A' for Active; 'I' for Inactive)
DOCKED: REMARK    1  A    between atoms: C_2  and  C_3
DOCKED: REMARK    2  A    between atoms: C_4  and  C_5
DOCKED: REMARK    3  A    between atoms: C_8  and  C_9
DOCKED: REMARK    4  A    between atoms: C_9  and  N_10
DOCKED: REMARK    5  A    between atoms: N_10  and  C_11
DOCKED: REMARK    6  A    between atoms: C_11  and  C_12
DOCKED: REMARK    7  A    between atoms: C_12  and  C_13
DOCKED: REMARK    8  A    between atoms: C_14  and  C_22
DOCKED: REMARK                            x       y       z     vdW  Elec       q    Type
DOCKED: REMARK                         _______ _______ _______ _____ _____    ______ ____
DOCKED: USER                              x       y       z     vdW  Elec       q    Type
DOCKED: USER                           _______ _______ _______ _____ _____    ______ ____
DOCKED: ROOT
DOCKED: ATOM      1  N   UNL     1      38.864  16.884 122.544 -0.19 -0.00    +0.000 N 
DOCKED: ATOM      2  H   UNL     1      39.305  17.671 122.068 +0.00 -0.00    +0.000 HD
DOCKED: ATOM      3  H   UNL     1      39.531  16.131 122.719 -0.01 -0.00    +0.000 HD
DOCKED: ENDROOT
DOCKED: BRANCH   1   4
DOCKED: ATOM      4  C   UNL     1      37.801  16.348 121.684 -0.21 -0.00    +0.000 C 
DOCKED: BRANCH   4   8
DOCKED: ATOM      5  C   UNL     1      36.579  12.432 123.054 -0.58 -0.00    +0.000 A 
DOCKED: ATOM      6  C   UNL     1      36.161  13.593 123.736 -0.50 -0.00    +0.000 A 
DOCKED: ATOM      7  C   UNL     1      36.568  14.856 123.297 -0.41 -0.00    +0.000 A 
DOCKED: ATOM      8  C   UNL     1      37.399  14.986 122.175 -0.32 -0.00    +0.000 A 
DOCKED: ATOM      9  C   UNL     1      37.789  13.835 121.474 -0.38 -0.00    +0.000 A 
DOCKED: ATOM     10  C   UNL     1      37.383  12.572 121.910 -0.46 -0.00    +0.000 A 
DOCKED: ATOM     11  CM  UNL     1      36.980  13.712 122.607 +0.00 -0.00    +0.000 AC
DOCKED: BRANCH   5  12
DOCKED: ATOM     12  C   UNL     1      36.565   9.949 122.844 -0.69 -0.00    +0.000 C 
DOCKED: ATOM     13  C   UNL     1      36.167  11.068 123.468 -0.68 -0.00    +0.000 C 
DOCKED: BRANCH  11  14
DOCKED: ATOM     14  O   UNL     1      37.040   7.716 123.421 -2.67 -0.00    +0.000 OA
DOCKED: ATOM     15  C   UNL     1      36.150   8.594 123.259 -0.61 -0.00    +0.000 C 
DOCKED: ATOM     16  N   UNL     1      34.776   8.238 123.458 -0.61 -0.00    +0.000 N 
DOCKED: ATOM     17  O   UNL     1      34.454   7.016 123.940 -0.79 -0.00    +0.000 OA
DOCKED: ATOM     18  H   UNL     1      34.066   8.885 123.243 -0.33 -0.00    +0.000 HD
DOCKED: ENDBRANCH  11  14
DOCKED: ENDBRANCH   5  12
DOCKED: ENDBRANCH   4   8
DOCKED: ENDBRANCH   1   4
DOCKED: BRANCH   1  18
DOCKED: ATOM     19  C   UNL     1      38.354  17.343 123.844 -0.24 -0.00    +0.000 C 
DOCKED: BRANCH  18  19
DOCKED: ATOM     20  C   UNL     1      37.411  18.551 123.714 -0.17 -0.00    +0.000 C 
DOCKED: BRANCH  19  20
DOCKED: ATOM     21  C   UNL     1      36.038  18.199 124.209 -0.22 -0.00    +0.000 A 
DOCKED: ATOM     22  C   UNL     1      34.929  17.834 123.445 -0.32 -0.00    +0.000 A 
DOCKED: ATOM     23  N   UNL     1      33.842  17.657 124.233 -0.39 -0.00    +0.000 N 
DOCKED: ATOM     24  C   UNL     1      34.248  17.926 125.485 -0.34 -0.00    +0.000 A 
DOCKED: ATOM     25  C   UNL     1      35.578  18.267 125.511 -0.22 -0.00    +0.000 A 
DOCKED: ATOM     26  C   UNL     1      36.223  18.614 126.699 -0.11 -0.00    +0.000 A 
DOCKED: ATOM     27  C   UNL     1      35.468  18.595 127.886 -0.12 -0.00    +0.000 A 
DOCKED: ATOM     28  C   UNL     1      34.102  18.239 127.860 -0.19 -0.00    +0.000 A 
DOCKED: ATOM     29  C   UNL     1      33.476  17.901 126.646 -0.31 -0.00    +0.000 A 
DOCKED: ATOM     30  C   UNL     1      34.915  17.645 121.961 -0.35 -0.00    +0.000 C 
DOCKED: ATOM     31  H   UNL     1      32.939  17.386 123.947 +0.03 -0.00    +0.000 HD
DOCKED: ATOM     32  CM  UNL     1      34.892  17.966 124.565 -0.40 -0.00    +0.000 AC
DOCKED: ATOM     33  CM  UNL     1      34.850  18.257 126.682 -0.07 -0.00    +0.000 AC
DOCKED: ENDBRANCH  19  20
DOCKED: ENDBRANCH  18  19
DOCKED: ENDBRANCH   1  18
DOCKED: TORSDOF 7DOCKED: TER
DOCKED: ENDMDL
________________________________________________________________________________


	BEGINNING GENETIC ALGORITHM DOCKING 11 of 100
Run: 11 Seed: 1319006029 1845210220 [ Run 11 of 100 GA/GALS ]
Beginning LAMARCKIAN GENETIC ALGORITHM (LGA), with a maximum of 2500000 energy evaluations.

Final-Value: -14.966


	FINAL GENETIC ALGORITHM DOCKED STATE
	_______________________________________________


Detailed state:  trans 38.351 18.385 122.840 quatxyzw 0.215206 -0.427447 -0.361766 0.800063 center 0.576 -0.005 0.140 ntor 7 -17.2539 103.9632 170.7318 -170.5530 -2.6621 143.5837 -137.4663
State:	 38.351  18.385 122.840   0.359 -0.713 -0.603 73.728    -17.25  103.96  170.73 -170.55   -2.66  143.58 -137.47

DOCKED: MODEL       11
DOCKED: USER    Run = 11
DOCKED: USER    DPF = ligand_dock.biased.dpf
DOCKED: USER  
DOCKED: USER    Estimated Free Energy of Binding    =  -11.77 kcal/mol  [=(1)+(2)+(3)-(4)]
DOCKED: USER    Estimated Inhibition Constant, Ki   =    2.37 nM (nanomolar)  [Temperature = 298.15 K]
DOCKED: USER    
DOCKED: USER    (1) Final Intermolecular Energy     =  -13.86 kcal/mol
DOCKED: USER        vdW + Hbond + desolv Energy     =  -13.86 kcal/mol
DOCKED: USER        Electrostatic Energy            =   +0.00 kcal/mol
DOCKED: USER    (2) Final Total Internal Energy     =   -1.11 kcal/mol
DOCKED: USER    (3) Torsional Free Energy           =   +2.09 kcal/mol
DOCKED: USER    (4) Unbound System's Energy  [=(2)] =   -1.11 kcal/mol
DOCKED: USER    
DOCKED: USER    
DOCKED: USER    NEWDPF move ligand.dum.pdbqt
DOCKED: USER    NEWDPF about 0.576000 -0.005000 0.140000
DOCKED: USER    NEWDPF tran0 38.351041 18.385150 122.840477
DOCKED: USER    NEWDPF quaternion0 0.215206 -0.427447 -0.361766 0.800063
DOCKED: USER    NEWDPF axisangle0 0.358726 -0.712512 -0.603028 73.727740
DOCKED: USER    NEWDPF quat0 0.358726 -0.712512 -0.603028 73.727740
DOCKED: USER    NEWDPF dihe0 -17.25 103.96 170.73 -170.55 -2.66 143.58 -137.47 
DOCKED: USER  keepresnum = 1 
DOCKED: USER  
DOCKED: REMARK  Name = 
DOCKED: REMARK  8 active torsions:
DOCKED: REMARK  status: ('A' for Active; 'I' for Inactive)
DOCKED: REMARK    1  A    between atoms: C_2  and  C_3
DOCKED: REMARK    2  A    between atoms: C_4  and  C_5
DOCKED: REMARK    3  A    between atoms: C_8  and  C_9
DOCKED: REMARK    4  A    between atoms: C_9  and  N_10
DOCKED: REMARK    5  A    between atoms: N_10  and  C_11
DOCKED: REMARK    6  A    between atoms: C_11  and  C_12
DOCKED: REMARK    7  A    between atoms: C_12  and  C_13
DOCKED: REMARK    8  A    between atoms: C_14  and  C_22
DOCKED: REMARK                            x       y       z     vdW  Elec       q    Type
DOCKED: REMARK                         _______ _______ _______ _____ _____    ______ ____
DOCKED: USER                              x       y       z     vdW  Elec       q    Type
DOCKED: USER                           _______ _______ _______ _____ _____    ______ ____
DOCKED: ROOT
DOCKED: ATOM      1  N   UNL     1      38.156  18.383 123.597 -0.14 -0.00    +0.000 N 
DOCKED: ATOM      2  H   UNL     1      38.100  19.396 123.487 +0.00 -0.00    +0.000 HD
DOCKED: ATOM      3  H   UNL     1      39.098  18.087 123.854 -0.00 -0.00    +0.000 HD
DOCKED: ENDROOT
DOCKED: BRANCH   1   4
DOCKED: ATOM      4  C   UNL     1      37.821  17.749 122.317 -0.14 -0.00    +0.000 C 
DOCKED: BRANCH   4   8
DOCKED: ATOM      5  C   UNL     1      37.372  13.476 122.818 -0.48 -0.00    +0.000 A 
DOCKED: ATOM      6  C   UNL     1      36.239  14.308 122.709 -0.29 -0.00    +0.000 A 
DOCKED: ATOM      7  C   UNL     1      36.388  15.690 122.559 -0.29 -0.00    +0.000 A 
DOCKED: ATOM      8  C   UNL     1      37.665  16.267 122.518 -0.23 -0.00    +0.000 A 
DOCKED: ATOM      9  C   UNL     1      38.795  15.439 122.592 -0.31 -0.00    +0.000 A 
DOCKED: ATOM     10  C   UNL     1      38.648  14.058 122.741 -0.36 -0.00    +0.000 A 
DOCKED: ATOM     11  CM  UNL     1      37.518  14.873 122.656 +0.00 -0.00    +0.000 AC
DOCKED: BRANCH   5  12
DOCKED: ATOM     12  C   UNL     1      37.075  11.163 121.938 -0.53 -0.00    +0.000 C 
DOCKED: ATOM     13  C   UNL     1      37.272  12.003 122.966 -0.56 -0.00    +0.000 C 
DOCKED: BRANCH  11  14
DOCKED: ATOM     14  O   UNL     1      36.777   8.998 121.063 -2.63 -0.00    +0.000 OA
DOCKED: ATOM     15  C   UNL     1      36.974   9.698 122.092 -0.61 -0.00    +0.000 C 
DOCKED: ATOM     16  N   UNL     1      37.066   9.052 123.368 -0.60 -0.00    +0.000 N 
DOCKED: ATOM     17  O   UNL     1      37.072   7.701 123.446 -2.68 -0.00    +0.000 OA
DOCKED: ATOM     18  H   UNL     1      37.123   9.593 124.189 -0.59 -0.00    +0.000 HD
DOCKED: ENDBRANCH  11  14
DOCKED: ENDBRANCH   5  12
DOCKED: ENDBRANCH   4   8
DOCKED: ENDBRANCH   1   4
DOCKED: BRANCH   1  18
DOCKED: ATOM     19  C   UNL     1      37.247  17.975 124.679 -0.17 -0.00    +0.000 C 
DOCKED: BRANCH  18  19
DOCKED: ATOM     20  C   UNL     1      35.800  18.435 124.437 -0.26 -0.00    +0.000 C 
DOCKED: BRANCH  19  20
DOCKED: ATOM     21  C   UNL     1      34.885  17.852 125.476 -0.30 -0.00    +0.000 A 
DOCKED: ATOM     22  C   UNL     1      34.066  16.728 125.350 -0.41 -0.00    +0.000 A 
DOCKED: ATOM     23  N   UNL     1      33.331  16.544 126.472 -0.45 -0.00    +0.000 N 
DOCKED: ATOM     24  C   UNL     1      33.661  17.552 127.298 -0.30 -0.00    +0.000 A 
DOCKED: ATOM     25  C   UNL     1      34.600  18.373 126.724 -0.22 -0.00    +0.000 A 
DOCKED: ATOM     26  C   UNL     1      35.084  19.505 127.381 -0.12 -0.00    +0.000 A 
DOCKED: ATOM     27  C   UNL     1      34.585  19.781 128.667 -0.06 -0.00    +0.000 A 
DOCKED: ATOM     28  C   UNL     1      33.623  18.933 129.259 -0.08 -0.00    +0.000 A 
DOCKED: ATOM     29  C   UNL     1      33.149  17.802 128.570 -0.22 -0.00    +0.000 A 
DOCKED: ATOM     30  C   UNL     1      33.999  15.827 124.159 -0.47 -0.00    +0.000 C 
DOCKED: ATOM     31  H   UNL     1      32.686  15.821 126.647 -0.23 -0.00    +0.000 HD
DOCKED: ATOM     32  CM  UNL     1      34.084  17.382 126.270 -0.10 -0.00    +0.000 AC
DOCKED: ATOM     33  CM  UNL     1      34.118  18.658 127.983 +0.00 -0.00    +0.000 AC
DOCKED: ENDBRANCH  19  20
DOCKED: ENDBRANCH  18  19
DOCKED: ENDBRANCH   1  18
DOCKED: TORSDOF 7DOCKED: TER
DOCKED: ENDMDL
________________________________________________________________________________


	BEGINNING GENETIC ALGORITHM DOCKING 12 of 100
Run: 12 Seed: 991935163 1927794783 [ Run 12 of 100 GA/GALS ]
Beginning LAMARCKIAN GENETIC ALGORITHM (LGA), with a maximum of 2500000 energy evaluations.

Final-Value: -14.720


	FINAL GENETIC ALGORITHM DOCKED STATE
	_______________________________________________


Detailed state:  trans 35.739 17.474 124.686 quatxyzw -0.069263 -0.056121 0.561724 0.822508 center 0.576 -0.005 0.140 ntor 7 -13.1350 110.2597 -170.2252 164.9998 80.7361 10.0874 95.8511
State:	 35.739  17.474 124.686  -0.122 -0.099  0.988 69.327    -13.13  110.26 -170.23  165.00   80.74   10.09   95.85

DOCKED: MODEL       12
DOCKED: USER    Run = 12
DOCKED: USER    DPF = ligand_dock.biased.dpf
DOCKED: USER  
DOCKED: USER    Estimated Free Energy of Binding    =  -11.59 kcal/mol  [=(1)+(2)+(3)-(4)]
DOCKED: USER    Estimated Inhibition Constant, Ki   =    3.21 nM (nanomolar)  [Temperature = 298.15 K]
DOCKED: USER    
DOCKED: USER    (1) Final Intermolecular Energy     =  -13.67 kcal/mol
DOCKED: USER        vdW + Hbond + desolv Energy     =  -13.67 kcal/mol
DOCKED: USER        Electrostatic Energy            =   +0.00 kcal/mol
DOCKED: USER    (2) Final Total Internal Energy     =   -1.05 kcal/mol
DOCKED: USER    (3) Torsional Free Energy           =   +2.09 kcal/mol
DOCKED: USER    (4) Unbound System's Energy  [=(2)] =   -1.05 kcal/mol
DOCKED: USER    
DOCKED: USER    
DOCKED: USER    NEWDPF move ligand.dum.pdbqt
DOCKED: USER    NEWDPF about 0.576000 -0.005000 0.140000
DOCKED: USER    NEWDPF tran0 35.739161 17.474237 124.685689
DOCKED: USER    NEWDPF quaternion0 -0.069263 -0.056121 0.561724 0.822508
DOCKED: USER    NEWDPF axisangle0 -0.121780 -0.098674 0.987640 69.326695
DOCKED: USER    NEWDPF quat0 -0.121780 -0.098674 0.987640 69.326695
DOCKED: USER    NEWDPF dihe0 -13.13 110.26 -170.23 165.00 80.74 10.09 95.85 
DOCKED: USER  keepresnum = 1 
DOCKED: USER  
DOCKED: REMARK  Name = 
DOCKED: REMARK  8 active torsions:
DOCKED: REMARK  status: ('A' for Active; 'I' for Inactive)
DOCKED: REMARK    1  A    between atoms: C_2  and  C_3
DOCKED: REMARK    2  A    between atoms: C_4  and  C_5
DOCKED: REMARK    3  A    between atoms: C_8  and  C_9
DOCKED: REMARK    4  A    between atoms: C_9  and  N_10
DOCKED: REMARK    5  A    between atoms: N_10  and  C_11
DOCKED: REMARK    6  A    between atoms: C_11  and  C_12
DOCKED: REMARK    7  A    between atoms: C_12  and  C_13
DOCKED: REMARK    8  A    between atoms: C_14  and  C_22
DOCKED: REMARK                            x       y       z     vdW  Elec       q    Type
DOCKED: REMARK                         _______ _______ _______ _____ _____    ______ ____
DOCKED: USER                              x       y       z     vdW  Elec       q    Type
DOCKED: USER                           _______ _______ _______ _____ _____    ______ ____
DOCKED: ROOT
DOCKED: ATOM      1  N   UNL     1      35.599  18.113 125.114 -0.25 -0.00    +0.000 N 
DOCKED: ATOM      2  H   UNL     1      36.431  17.831 125.632 -0.02 -0.00    +0.000 HD
DOCKED: ATOM      3  H   UNL     1      34.756  17.687 125.500 -0.01 -0.00    +0.000 HD
DOCKED: ENDROOT
DOCKED: BRANCH   1   4
DOCKED: ATOM      4  C   UNL     1      35.733  17.660 123.723 -0.31 -0.00    +0.000 C 
DOCKED: BRANCH   4   8
DOCKED: ATOM      5  C   UNL     1      36.373  13.385 123.582 -0.52 -0.00    +0.000 A 
DOCKED: ATOM      6  C   UNL     1      35.084  13.909 123.805 -0.09 -0.00    +0.000 A 
DOCKED: ATOM      7  C   UNL     1      34.883  15.292 123.862 -0.52 -0.00    +0.000 A 
DOCKED: ATOM      8  C   UNL     1      35.961  16.174 123.701 -0.36 -0.00    +0.000 A 
DOCKED: ATOM      9  C   UNL     1      37.239  15.656 123.445 -0.31 -0.00    +0.000 A 
DOCKED: ATOM     10  C   UNL     1      37.442  14.276 123.387 -0.39 -0.00    +0.000 A 
DOCKED: ATOM     11  CM  UNL     1      36.164  14.782 123.630 +0.00 -0.00    +0.000 AC
DOCKED: BRANCH   5  12
DOCKED: ATOM     12  C   UNL     1      36.550  11.217 122.365 -0.65 -0.00    +0.000 C 
DOCKED: ATOM     13  C   UNL     1      36.641  11.927 123.500 -0.70 -0.00    +0.000 C 
DOCKED: BRANCH  11  14
DOCKED: ATOM     14  O   UNL     1      36.768   9.204 121.164 -2.65 -0.00    +0.000 OA
DOCKED: ATOM     15  C   UNL     1      36.816   9.766 122.290 -0.66 -0.00    +0.000 C 
DOCKED: ATOM     16  N   UNL     1      37.098   8.976 123.453 -0.58 -0.00    +0.000 N 
DOCKED: ATOM     17  O   UNL     1      37.438   7.673 123.321 -2.47 -0.00    +0.000 OA
DOCKED: ATOM     18  H   UNL     1      37.044   9.383 124.347 -0.50 -0.00    +0.000 HD
DOCKED: ENDBRANCH  11  14
DOCKED: ENDBRANCH   5  12
DOCKED: ENDBRANCH   4   8
DOCKED: ENDBRANCH   1   4
DOCKED: BRANCH   1  18
DOCKED: ATOM     19  C   UNL     1      35.452  19.573 125.215 -0.21 -0.00    +0.000 C 
DOCKED: BRANCH  18  19
DOCKED: ATOM     20  C   UNL     1      35.041  20.027 126.625 -0.15 -0.00    +0.000 C 
DOCKED: BRANCH  19  20
DOCKED: ATOM     21  C   UNL     1      33.584  20.388 126.655 -0.16 -0.00    +0.000 A 
DOCKED: ATOM     22  C   UNL     1      32.995  21.577 126.221 -0.12 -0.00    +0.000 A 
DOCKED: ATOM     23  N   UNL     1      31.664  21.570 126.469 -0.23 -0.00    +0.000 N 
DOCKED: ATOM     24  C   UNL     1      31.408  20.397 127.074 -0.24 -0.00    +0.000 A 
DOCKED: ATOM     25  C   UNL     1      32.554  19.653 127.211 -0.20 -0.00    +0.000 A 
DOCKED: ATOM     26  C   UNL     1      32.545  18.403 127.833 -0.22 -0.00    +0.000 A 
DOCKED: ATOM     27  C   UNL     1      31.316  17.917 128.313 -0.30 -0.00    +0.000 A 
DOCKED: ATOM     28  C   UNL     1      30.137  18.681 128.167 -0.33 -0.00    +0.000 A 
DOCKED: ATOM     29  C   UNL     1      30.177  19.940 127.542 -0.32 -0.00    +0.000 A 
DOCKED: ATOM     30  C   UNL     1      33.708  22.713 125.559 -0.19 -0.00    +0.000 C 
DOCKED: ATOM     31  H   UNL     1      31.016  22.279 126.251 -0.02 -0.00    +0.000 HD
DOCKED: ATOM     32  CM  UNL     1      32.416  20.745 126.718 +0.00 -0.00    +0.000 AC
DOCKED: ATOM     33  CM  UNL     1      31.356  19.165 127.690 +0.00 -0.00    +0.000 AC
DOCKED: ENDBRANCH  19  20
DOCKED: ENDBRANCH  18  19
DOCKED: ENDBRANCH   1  18
DOCKED: TORSDOF 7DOCKED: TER
DOCKED: ENDMDL
________________________________________________________________________________


	BEGINNING GENETIC ALGORITHM DOCKING 13 of 100
Run: 13 Seed: 592545843 1375513998 [ Run 13 of 100 GA/GALS ]
Beginning LAMARCKIAN GENETIC ALGORITHM (LGA), with a maximum of 2500000 energy evaluations.

Final-Value: -16.021


	FINAL GENETIC ALGORITHM DOCKED STATE
	_______________________________________________


Detailed state:  trans 37.148 17.459 124.187 quatxyzw 0.200260 -0.328553 0.633076 0.671687 center 0.576 -0.005 0.140 ntor 7 -30.6285 166.5379 179.4072 -174.4191 162.7409 2.8309 -180.0000
State:	 37.148  17.459 124.187   0.270 -0.443  0.855 95.605    -30.63  166.54  179.41 -174.42  162.74    2.83 -180.00

DOCKED: MODEL       13
DOCKED: USER    Run = 13
DOCKED: USER    DPF = ligand_dock.biased.dpf
DOCKED: USER  
DOCKED: USER    Estimated Free Energy of Binding    =  -12.17 kcal/mol  [=(1)+(2)+(3)-(4)]
DOCKED: USER    Estimated Inhibition Constant, Ki   =    1.19 nM (nanomolar)  [Temperature = 298.15 K]
DOCKED: USER    
DOCKED: USER    (1) Final Intermolecular Energy     =  -14.26 kcal/mol
DOCKED: USER        vdW + Hbond + desolv Energy     =  -14.26 kcal/mol
DOCKED: USER        Electrostatic Energy            =   +0.00 kcal/mol
DOCKED: USER    (2) Final Total Internal Energy     =   -1.76 kcal/mol
DOCKED: USER    (3) Torsional Free Energy           =   +2.09 kcal/mol
DOCKED: USER    (4) Unbound System's Energy  [=(2)] =   -1.76 kcal/mol
DOCKED: USER    
DOCKED: USER    
DOCKED: USER    NEWDPF move ligand.dum.pdbqt
DOCKED: USER    NEWDPF about 0.576000 -0.005000 0.140000
DOCKED: USER    NEWDPF tran0 37.147876 17.458600 124.187015
DOCKED: USER    NEWDPF quaternion0 0.200260 -0.328553 0.633076 0.671687
DOCKED: USER    NEWDPF axisangle0 0.270317 -0.443490 0.854544 95.605141
DOCKED: USER    NEWDPF quat0 0.270317 -0.443490 0.854544 95.605141
DOCKED: USER    NEWDPF dihe0 -30.63 166.54 179.41 -174.42 162.74 2.83 -180.00 
DOCKED: USER  keepresnum = 1 
DOCKED: USER  
DOCKED: REMARK  Name = 
DOCKED: REMARK  8 active torsions:
DOCKED: REMARK  status: ('A' for Active; 'I' for Inactive)
DOCKED: REMARK    1  A    between atoms: C_2  and  C_3
DOCKED: REMARK    2  A    between atoms: C_4  and  C_5
DOCKED: REMARK    3  A    between atoms: C_8  and  C_9
DOCKED: REMARK    4  A    between atoms: C_9  and  N_10
DOCKED: REMARK    5  A    between atoms: N_10  and  C_11
DOCKED: REMARK    6  A    between atoms: C_11  and  C_12
DOCKED: REMARK    7  A    between atoms: C_12  and  C_13
DOCKED: REMARK    8  A    between atoms: C_14  and  C_22
DOCKED: REMARK                            x       y       z     vdW  Elec       q    Type
DOCKED: REMARK                         _______ _______ _______ _____ _____    ______ ____
DOCKED: USER                              x       y       z     vdW  Elec       q    Type
DOCKED: USER                           _______ _______ _______ _____ _____    ______ ____
DOCKED: ROOT
DOCKED: ATOM      1  N   UNL     1      37.460  18.124 124.453 -0.19 -0.00    +0.000 N 
DOCKED: ATOM      2  H   UNL     1      38.352  17.659 124.287 -0.01 -0.00    +0.000 HD
DOCKED: ATOM      3  H   UNL     1      37.107  17.932 125.390 -0.02 -0.00    +0.000 HD
DOCKED: ENDROOT
DOCKED: BRANCH   1   4
DOCKED: ATOM      4  C   UNL     1      36.476  17.613 123.491 -0.25 -0.00    +0.000 C 
DOCKED: BRANCH   4   8
DOCKED: ATOM      5  C   UNL     1      36.540  13.289 123.415 -0.54 -0.00    +0.000 A 
DOCKED: ATOM      6  C   UNL     1      35.568  13.978 124.168 -0.37 -0.00    +0.000 A 
DOCKED: ATOM      7  C   UNL     1      35.557  15.376 124.200 -0.44 -0.00    +0.000 A 
DOCKED: ATOM      8  C   UNL     1      36.515  16.110 123.486 -0.32 -0.00    +0.000 A 
DOCKED: ATOM      9  C   UNL     1      37.463  15.428 122.708 -0.32 -0.00    +0.000 A 
DOCKED: ATOM     10  C   UNL     1      37.474  14.032 122.674 -0.44 -0.00    +0.000 A 
DOCKED: ATOM     11  CM  UNL     1      36.520  14.702 123.441 +0.00 -0.00    +0.000 AC
DOCKED: BRANCH   5  12
DOCKED: ATOM     12  C   UNL     1      36.935  11.133 122.228 -0.59 -0.00    +0.000 C 
DOCKED: ATOM     13  C   UNL     1      36.590  11.807 123.336 -0.69 -0.00    +0.000 C 
DOCKED: BRANCH  11  14
DOCKED: ATOM     14  O   UNL     1      37.054   9.115 121.021 -2.72 -0.00    +0.000 OA
DOCKED: ATOM     15  C   UNL     1      36.981   9.658 122.155 -0.62 -0.00    +0.000 C 
DOCKED: ATOM     16  N   UNL     1      36.918   8.830 123.323 -0.64 -0.00    +0.000 N 
DOCKED: ATOM     17  O   UNL     1      37.069   7.489 123.213 -2.44 -0.00    +0.000 OA
DOCKED: ATOM     18  H   UNL     1      36.765   9.237 124.206 -0.51 -0.00    +0.000 HD
DOCKED: ENDBRANCH  11  14
DOCKED: ENDBRANCH   5  12
DOCKED: ENDBRANCH   4   8
DOCKED: ENDBRANCH   1   4
DOCKED: BRANCH   1  18
DOCKED: ATOM     19  C   UNL     1      37.654  19.577 124.335 -0.12 -0.00    +0.000 C 
DOCKED: BRANCH  18  19
DOCKED: ATOM     20  C   UNL     1      39.002  19.941 123.690 -0.07 -0.00    +0.000 C 
DOCKED: BRANCH  19  20
DOCKED: ATOM     21  C   UNL     1      39.971  18.802 123.824 -0.14 -0.00    +0.000 A 
DOCKED: ATOM     22  C   UNL     1      40.872  18.573 124.865 -0.26 -0.00    +0.000 A 
DOCKED: ATOM     23  N   UNL     1      41.633  17.482 124.608 -0.33 -0.00    +0.000 N 
DOCKED: ATOM     24  C   UNL     1      41.237  17.033 123.405 -0.32 -0.00    +0.000 A 
DOCKED: ATOM     25  C   UNL     1      40.231  17.814 122.892 -0.17 -0.00    +0.000 A 
DOCKED: ATOM     26  C   UNL     1      39.671  17.559 121.640 -0.10 -0.00    +0.000 A 
DOCKED: ATOM     27  C   UNL     1      40.163  16.461 120.911 -0.15 -0.00    +0.000 A 
DOCKED: ATOM     28  C   UNL     1      41.194  15.654 121.442 -0.28 -0.00    +0.000 A 
DOCKED: ATOM     29  C   UNL     1      41.744  15.939 122.704 -0.43 -0.00    +0.000 A 
DOCKED: ATOM     30  C   UNL     1      40.993  19.392 126.110 -0.23 -0.00    +0.000 C 
DOCKED: ATOM     31  H   UNL     1      42.333  17.098 125.185 -0.55 -0.00    +0.000 HD
DOCKED: ATOM     32  CM  UNL     1      40.816  17.926 123.941 +0.00 -0.00    +0.000 AC
DOCKED: ATOM     33  CM  UNL     1      40.706  16.743 122.165 +0.00 -0.00    +0.000 AC
DOCKED: ENDBRANCH  19  20
DOCKED: ENDBRANCH  18  19
DOCKED: ENDBRANCH   1  18
DOCKED: TORSDOF 7DOCKED: TER
DOCKED: ENDMDL
________________________________________________________________________________


	BEGINNING GENETIC ALGORITHM DOCKING 14 of 100
Run: 14 Seed: 828440372 1435728619 [ Run 14 of 100 GA/GALS ]
Beginning LAMARCKIAN GENETIC ALGORITHM (LGA), with a maximum of 2500000 energy evaluations.

Final-Value: -15.984


	FINAL GENETIC ALGORITHM DOCKED STATE
	_______________________________________________


Detailed state:  trans 37.280 17.424 123.833 quatxyzw 0.351377 -0.377980 0.636035 0.573694 center 0.576 -0.005 0.140 ntor 7 -6.4961 139.3645 174.1970 -148.5892 173.9666 -7.7441 146.5445
State:	 37.280  17.424 123.833   0.429 -0.461  0.777 109.983     -6.50  139.36  174.20 -148.59  173.97   -7.74  146.54

DOCKED: MODEL       14
DOCKED: USER    Run = 14
DOCKED: USER    DPF = ligand_dock.biased.dpf
DOCKED: USER  
DOCKED: USER    Estimated Free Energy of Binding    =  -12.12 kcal/mol  [=(1)+(2)+(3)-(4)]
DOCKED: USER    Estimated Inhibition Constant, Ki   =    1.30 nM (nanomolar)  [Temperature = 298.15 K]
DOCKED: USER    
DOCKED: USER    (1) Final Intermolecular Energy     =  -14.21 kcal/mol
DOCKED: USER        vdW + Hbond + desolv Energy     =  -14.21 kcal/mol
DOCKED: USER        Electrostatic Energy            =   +0.00 kcal/mol
DOCKED: USER    (2) Final Total Internal Energy     =   -1.77 kcal/mol
DOCKED: USER    (3) Torsional Free Energy           =   +2.09 kcal/mol
DOCKED: USER    (4) Unbound System's Energy  [=(2)] =   -1.77 kcal/mol
DOCKED: USER    
DOCKED: USER    
DOCKED: USER    NEWDPF move ligand.dum.pdbqt
DOCKED: USER    NEWDPF about 0.576000 -0.005000 0.140000
DOCKED: USER    NEWDPF tran0 37.280455 17.423806 123.832602
DOCKED: USER    NEWDPF quaternion0 0.351377 -0.377980 0.636035 0.573694
DOCKED: USER    NEWDPF axisangle0 0.428996 -0.461474 0.776533 109.983487
DOCKED: USER    NEWDPF quat0 0.428996 -0.461474 0.776533 109.983487
DOCKED: USER    NEWDPF dihe0 -6.50 139.36 174.20 -148.59 173.97 -7.74 146.54 
DOCKED: USER  keepresnum = 1 
DOCKED: USER  
DOCKED: REMARK  Name = 
DOCKED: REMARK  8 active torsions:
DOCKED: REMARK  status: ('A' for Active; 'I' for Inactive)
DOCKED: REMARK    1  A    between atoms: C_2  and  C_3
DOCKED: REMARK    2  A    between atoms: C_4  and  C_5
DOCKED: REMARK    3  A    between atoms: C_8  and  C_9
DOCKED: REMARK    4  A    between atoms: C_9  and  N_10
DOCKED: REMARK    5  A    between atoms: N_10  and  C_11
DOCKED: REMARK    6  A    between atoms: C_11  and  C_12
DOCKED: REMARK    7  A    between atoms: C_12  and  C_13
DOCKED: REMARK    8  A    between atoms: C_14  and  C_22
DOCKED: REMARK                            x       y       z     vdW  Elec       q    Type
DOCKED: REMARK                         _______ _______ _______ _____ _____    ______ ____
DOCKED: USER                              x       y       z     vdW  Elec       q    Type
DOCKED: USER                           _______ _______ _______ _____ _____    ______ ____
DOCKED: ROOT
DOCKED: ATOM      1  N   UNL     1      37.673  18.099 123.859 -0.18 -0.00    +0.000 N 
DOCKED: ATOM      2  H   UNL     1      38.457  17.546 123.514 -0.00 -0.00    +0.000 HD
DOCKED: ATOM      3  H   UNL     1      37.635  18.097 124.879 -0.01 -0.00    +0.000 HD
DOCKED: ENDROOT
DOCKED: BRANCH   1   4
DOCKED: ATOM      4  C   UNL     1      36.424  17.508 123.364 -0.26 -0.00    +0.000 C 
DOCKED: BRANCH   4   8
DOCKED: ATOM      5  C   UNL     1      36.699  13.192 123.368 -0.54 -0.00    +0.000 A 
DOCKED: ATOM      6  C   UNL     1      35.654  13.844 124.053 -0.38 -0.00    +0.000 A 
DOCKED: ATOM      7  C   UNL     1      35.575  15.240 124.059 -0.45 -0.00    +0.000 A 
DOCKED: ATOM      8  C   UNL     1      36.535  16.009 123.388 -0.33 -0.00    +0.000 A 
DOCKED: ATOM      9  C   UNL     1      37.558  15.363 122.677 -0.32 -0.00    +0.000 A 
DOCKED: ATOM     10  C   UNL     1      37.638  13.968 122.669 -0.44 -0.00    +0.000 A 
DOCKED: ATOM     11  CM  UNL     1      36.610  14.603 123.369 +0.00 -0.00    +0.000 AC
DOCKED: BRANCH   5  12
DOCKED: ATOM     12  C   UNL     1      36.745  10.998 122.186 -0.62 -0.00    +0.000 C 
DOCKED: ATOM     13  C   UNL     1      36.824  11.714 123.318 -0.68 -0.00    +0.000 C 
DOCKED: BRANCH  11  14
DOCKED: ATOM     14  O   UNL     1      36.975   8.965 121.020 -2.69 -0.00    +0.000 OA
DOCKED: ATOM     15  C   UNL     1      36.868   9.527 122.143 -0.66 -0.00    +0.000 C 
DOCKED: ATOM     16  N   UNL     1      36.843   8.720 123.327 -0.65 -0.00    +0.000 N 
DOCKED: ATOM     17  O   UNL     1      37.065   7.387 123.244 -2.40 -0.00    +0.000 OA
DOCKED: ATOM     18  H   UNL     1      36.665   9.136 124.201 -0.47 -0.00    +0.000 HD
DOCKED: ENDBRANCH  11  14
DOCKED: ENDBRANCH   5  12
DOCKED: ENDBRANCH   4   8
DOCKED: ENDBRANCH   1   4
DOCKED: BRANCH   1  18
DOCKED: ATOM     19  C   UNL     1      37.847  19.491 123.419 -0.10 -0.00    +0.000 C 
DOCKED: BRANCH  18  19
DOCKED: ATOM     20  C   UNL     1      39.301  19.811 123.035 -0.06 -0.00    +0.000 C 
DOCKED: BRANCH  19  20
DOCKED: ATOM     21  C   UNL     1      40.210  18.690 123.448 -0.14 -0.00    +0.000 A 
DOCKED: ATOM     22  C   UNL     1      40.957  18.593 124.623 -0.25 -0.00    +0.000 A 
DOCKED: ATOM     23  N   UNL     1      41.714  17.470 124.618 -0.30 -0.00    +0.000 N 
DOCKED: ATOM     24  C   UNL     1      41.469  16.866 123.442 -0.33 -0.00    +0.000 A 
DOCKED: ATOM     25  C   UNL     1      40.563  17.583 122.699 -0.18 -0.00    +0.000 A 
DOCKED: ATOM     26  C   UNL     1      40.168  17.167 121.427 -0.12 -0.00    +0.000 A 
DOCKED: ATOM     27  C   UNL     1      40.721  15.976 120.923 -0.20 -0.00    +0.000 A 
DOCKED: ATOM     28  C   UNL     1      41.648  15.237 121.691 -0.29 -0.00    +0.000 A 
DOCKED: ATOM     29  C   UNL     1      42.033  15.683 122.968 -0.40 +0.00    +0.000 A 
DOCKED: ATOM     30  C   UNL     1      40.935  19.571 125.754 -0.20 -0.00    +0.000 C 
DOCKED: ATOM     31  H   UNL     1      42.319  17.159 125.330 -0.56 -0.00    +0.000 HD
DOCKED: ATOM     32  CM  UNL     1      41.006  17.828 123.794 +0.00 -0.00    +0.000 AC
DOCKED: ATOM     33  CM  UNL     1      41.100  16.419 122.191 +0.00 -0.00    +0.000 AC
DOCKED: ENDBRANCH  19  20
DOCKED: ENDBRANCH  18  19
DOCKED: ENDBRANCH   1  18
DOCKED: TORSDOF 7DOCKED: TER
DOCKED: ENDMDL
________________________________________________________________________________


	BEGINNING GENETIC ALGORITHM DOCKING 15 of 100
Run: 15 Seed: 1711882988 222421602 [ Run 15 of 100 GA/GALS ]
Beginning LAMARCKIAN GENETIC ALGORITHM (LGA), with a maximum of 2500000 energy evaluations.

Final-Value: -14.732


	FINAL GENETIC ALGORITHM DOCKED STATE
	_______________________________________________


Detailed state:  trans 36.804 17.231 124.118 quatxyzw -0.076369 0.395680 -0.488949 -0.773650 center 0.576 -0.005 0.140 ntor 7 143.5848 -175.3426 25.1364 -10.5391 -79.0039 12.3606 -51.5965
State:	 36.804  17.231 124.118  -0.121  0.624 -0.772 -78.634    143.58 -175.34   25.14  -10.54  -79.00   12.36  -51.60

DOCKED: MODEL       15
DOCKED: USER    Run = 15
DOCKED: USER    DPF = ligand_dock.biased.dpf
DOCKED: USER  
DOCKED: USER    Estimated Free Energy of Binding    =  -11.28 kcal/mol  [=(1)+(2)+(3)-(4)]
DOCKED: USER    Estimated Inhibition Constant, Ki   =    5.40 nM (nanomolar)  [Temperature = 298.15 K]
DOCKED: USER    
DOCKED: USER    (1) Final Intermolecular Energy     =  -13.37 kcal/mol
DOCKED: USER        vdW + Hbond + desolv Energy     =  -13.37 kcal/mol
DOCKED: USER        Electrostatic Energy            =   +0.00 kcal/mol
DOCKED: USER    (2) Final Total Internal Energy     =   -1.36 kcal/mol
DOCKED: USER    (3) Torsional Free Energy           =   +2.09 kcal/mol
DOCKED: USER    (4) Unbound System's Energy  [=(2)] =   -1.36 kcal/mol
DOCKED: USER    
DOCKED: USER    
DOCKED: USER    NEWDPF move ligand.dum.pdbqt
DOCKED: USER    NEWDPF about 0.576000 -0.005000 0.140000
DOCKED: USER    NEWDPF tran0 36.804005 17.231327 124.118348
DOCKED: USER    NEWDPF quaternion0 -0.076369 0.395680 -0.488949 -0.773650
DOCKED: USER    NEWDPF axisangle0 -0.120530 0.624482 -0.771683 -78.634402
DOCKED: USER    NEWDPF quat0 -0.120530 0.624482 -0.771683 -78.634402
DOCKED: USER    NEWDPF dihe0 143.58 -175.34 25.14 -10.54 -79.00 12.36 -51.60 
DOCKED: USER  keepresnum = 1 
DOCKED: USER  
DOCKED: REMARK  Name = 
DOCKED: REMARK  8 active torsions:
DOCKED: REMARK  status: ('A' for Active; 'I' for Inactive)
DOCKED: REMARK    1  A    between atoms: C_2  and  C_3
DOCKED: REMARK    2  A    between atoms: C_4  and  C_5
DOCKED: REMARK    3  A    between atoms: C_8  and  C_9
DOCKED: REMARK    4  A    between atoms: C_9  and  N_10
DOCKED: REMARK    5  A    between atoms: N_10  and  C_11
DOCKED: REMARK    6  A    between atoms: C_11  and  C_12
DOCKED: REMARK    7  A    between atoms: C_12  and  C_13
DOCKED: REMARK    8  A    between atoms: C_14  and  C_22
DOCKED: REMARK                            x       y       z     vdW  Elec       q    Type
DOCKED: REMARK                         _______ _______ _______ _____ _____    ______ ____
DOCKED: USER                              x       y       z     vdW  Elec       q    Type
DOCKED: USER                           _______ _______ _______ _____ _____    ______ ____
DOCKED: ROOT
DOCKED: ATOM      1  N   UNL     1      36.950  17.790 124.645 -0.21 -0.00    +0.000 N 
DOCKED: ATOM      2  H   UNL     1      37.929  17.608 124.424 -0.02 -0.00    +0.000 HD
DOCKED: ATOM      3  H   UNL     1      36.619  17.187 125.398 -0.01 -0.00    +0.000 HD
DOCKED: ENDROOT
DOCKED: BRANCH   1   4
DOCKED: ATOM      4  C   UNL     1      36.137  17.508 123.455 -0.28 -0.00    +0.000 C 
DOCKED: BRANCH   4   8
DOCKED: ATOM      5  C   UNL     1      36.780  13.388 122.308 -0.43 -0.00    +0.000 A 
DOCKED: ATOM      6  C   UNL     1      37.486  14.428 121.670 -0.34 -0.00    +0.000 A 
DOCKED: ATOM      7  C   UNL     1      37.267  15.760 122.035 -0.24 -0.00    +0.000 A 
DOCKED: ATOM      8  C   UNL     1      36.340  16.078 123.038 -0.32 -0.00    +0.000 A 
DOCKED: ATOM      9  C   UNL     1      35.660  15.044 123.698 -0.46 -0.00    +0.000 A 
DOCKED: ATOM     10  C   UNL     1      35.879  13.713 123.335 -0.44 -0.00    +0.000 A 
DOCKED: ATOM     11  CM  UNL     1      36.569  14.735 122.681 +0.00 -0.00    +0.000 AC
DOCKED: BRANCH   5  12
DOCKED: ATOM     12  C   UNL     1      36.608  10.944 122.764 -0.68 -0.00    +0.000 C 
DOCKED: ATOM     13  C   UNL     1      36.982  11.957 121.968 -0.58 -0.00    +0.000 C 
DOCKED: BRANCH  11  14
DOCKED: ATOM     14  O   UNL     1      37.007   9.216 121.215 -2.71 -0.00    +0.000 OA
DOCKED: ATOM     15  C   UNL     1      36.814   9.522 122.422 -0.68 -0.00    +0.000 C 
DOCKED: ATOM     16  N   UNL     1      36.774   8.481 123.407 -0.67 -0.00    +0.000 N 
DOCKED: ATOM     17  O   UNL     1      37.072   7.208 123.060 -2.16 -0.00    +0.000 OA
DOCKED: ATOM     18  H   UNL     1      36.530   8.695 124.336 -0.35 -0.00    +0.000 HD
DOCKED: ENDBRANCH  11  14
DOCKED: ENDBRANCH   5  12
DOCKED: ENDBRANCH   4   8
DOCKED: ENDBRANCH   1   4
DOCKED: BRANCH   1  18
DOCKED: ATOM     19  C   UNL     1      36.819  19.184 125.095 -0.17 -0.00    +0.000 C 
DOCKED: BRANCH  18  19
DOCKED: ATOM     20  C   UNL     1      35.528  19.848 124.588 -0.19 -0.00    +0.000 C 
DOCKED: BRANCH  19  20
DOCKED: ATOM     21  C   UNL     1      34.457  19.778 125.638 -0.18 -0.00    +0.000 A 
DOCKED: ATOM     22  C   UNL     1      33.855  20.845 126.308 -0.15 -0.00    +0.000 A 
DOCKED: ATOM     23  N   UNL     1      32.979  20.394 127.236 -0.16 -0.00    +0.000 N 
DOCKED: ATOM     24  C   UNL     1      33.035  19.053 127.175 -0.21 -0.00    +0.000 A 
DOCKED: ATOM     25  C   UNL     1      33.929  18.640 126.218 -0.27 -0.00    +0.000 A 
DOCKED: ATOM     26  C   UNL     1      34.179  17.287 125.984 -0.35 -0.00    +0.000 A 
DOCKED: ATOM     27  C   UNL     1      33.477  16.345 126.758 -0.33 -0.00    +0.000 A 
DOCKED: ATOM     28  C   UNL     1      32.553  16.771 127.738 -0.39 -0.00    +0.000 A 
DOCKED: ATOM     29  C   UNL     1      32.326  18.142 127.956 -0.24 -0.00    +0.000 A 
DOCKED: ATOM     30  C   UNL     1      34.114  22.295 126.048 -0.16 -0.00    +0.000 C 
DOCKED: ATOM     31  H   UNL     1      32.416  20.938 127.834 +0.00 -0.00    +0.000 HD
DOCKED: ATOM     32  CM  UNL     1      33.629  19.763 126.538 +0.00 -0.00    +0.000 AC
DOCKED: ATOM     33  CM  UNL     1      33.250  17.706 126.971 +0.00 -0.00    +0.000 AC
DOCKED: ENDBRANCH  19  20
DOCKED: ENDBRANCH  18  19
DOCKED: ENDBRANCH   1  18
DOCKED: TORSDOF 7DOCKED: TER
DOCKED: ENDMDL
________________________________________________________________________________


	BEGINNING GENETIC ALGORITHM DOCKING 16 of 100
Run: 16 Seed: 1618242532 388052802 [ Run 16 of 100 GA/GALS ]
Beginning LAMARCKIAN GENETIC ALGORITHM (LGA), with a maximum of 2500000 energy evaluations.

Final-Value: -15.764


	FINAL GENETIC ALGORITHM DOCKED STATE
	_______________________________________________


Detailed state:  trans 35.068 18.182 123.458 quatxyzw 0.551341 0.627275 0.049990 0.547768 center 0.576 -0.005 0.140 ntor 7 48.5663 -97.2550 7.5119 -174.1398 12.1476 173.1087 -172.0500
State:	 35.068  18.182 123.458   0.659  0.750  0.060 113.572     48.57  -97.26    7.51 -174.14   12.15  173.11 -172.05

DOCKED: MODEL       16
DOCKED: USER    Run = 16
DOCKED: USER    DPF = ligand_dock.biased.dpf
DOCKED: USER  
DOCKED: USER    Estimated Free Energy of Binding    =  -11.83 kcal/mol  [=(1)+(2)+(3)-(4)]
DOCKED: USER    Estimated Inhibition Constant, Ki   =    2.15 nM (nanomolar)  [Temperature = 298.15 K]
DOCKED: USER    
DOCKED: USER    (1) Final Intermolecular Energy     =  -13.91 kcal/mol
DOCKED: USER        vdW + Hbond + desolv Energy     =  -13.91 kcal/mol
DOCKED: USER        Electrostatic Energy            =   +0.00 kcal/mol
DOCKED: USER    (2) Final Total Internal Energy     =   -1.85 kcal/mol
DOCKED: USER    (3) Torsional Free Energy           =   +2.09 kcal/mol
DOCKED: USER    (4) Unbound System's Energy  [=(2)] =   -1.85 kcal/mol
DOCKED: USER    
DOCKED: USER    
DOCKED: USER    NEWDPF move ligand.dum.pdbqt
DOCKED: USER    NEWDPF about 0.576000 -0.005000 0.140000
DOCKED: USER    NEWDPF tran0 35.067878 18.181577 123.457894
DOCKED: USER    NEWDPF quaternion0 0.551341 0.627275 0.049990 0.547768
DOCKED: USER    NEWDPF axisangle0 0.659002 0.749764 0.059751 113.571975
DOCKED: USER    NEWDPF quat0 0.659002 0.749764 0.059751 113.571975
DOCKED: USER    NEWDPF dihe0 48.57 -97.26 7.51 -174.14 12.15 173.11 -172.05 
DOCKED: USER  keepresnum = 1 
DOCKED: USER  
DOCKED: REMARK  Name = 
DOCKED: REMARK  8 active torsions:
DOCKED: REMARK  status: ('A' for Active; 'I' for Inactive)
DOCKED: REMARK    1  A    between atoms: C_2  and  C_3
DOCKED: REMARK    2  A    between atoms: C_4  and  C_5
DOCKED: REMARK    3  A    between atoms: C_8  and  C_9
DOCKED: REMARK    4  A    between atoms: C_9  and  N_10
DOCKED: REMARK    5  A    between atoms: N_10  and  C_11
DOCKED: REMARK    6  A    between atoms: C_11  and  C_12
DOCKED: REMARK    7  A    between atoms: C_12  and  C_13
DOCKED: REMARK    8  A    between atoms: C_14  and  C_22
DOCKED: REMARK                            x       y       z     vdW  Elec       q    Type
DOCKED: REMARK                         _______ _______ _______ _____ _____    ______ ____
DOCKED: USER                              x       y       z     vdW  Elec       q    Type
DOCKED: USER                           _______ _______ _______ _____ _____    ______ ____
DOCKED: ROOT
DOCKED: ATOM      1  N   UNL     1      34.817  17.981 122.745 -0.32 -0.00    +0.000 N 
DOCKED: ATOM      2  H   UNL     1      35.076  18.934 122.491 -0.01 -0.00    +0.000 HD
DOCKED: ATOM      3  H   UNL     1      33.855  17.933 123.082 -0.03 -0.00    +0.000 HD
DOCKED: ENDROOT
DOCKED: BRANCH   1   4
DOCKED: ATOM      4  C   UNL     1      35.694  17.527 123.832 -0.32 -0.00    +0.000 C 
DOCKED: BRANCH   4   8
DOCKED: ATOM      5  C   UNL     1      36.774  13.376 123.271 -0.52 -0.00    +0.000 A 
DOCKED: ATOM      6  C   UNL     1      37.657  14.405 122.884 -0.41 -0.00    +0.000 A 
DOCKED: ATOM      7  C   UNL     1      37.300  15.746 123.056 -0.31 -0.00    +0.000 A 
DOCKED: ATOM      8  C   UNL     1      36.058  16.085 123.612 -0.35 -0.00    +0.000 A 
DOCKED: ATOM      9  C   UNL     1      35.191  15.064 124.029 -0.50 -0.00    +0.000 A 
DOCKED: ATOM     10  C   UNL     1      35.546  13.724 123.859 -0.42 -0.00    +0.000 A 
DOCKED: ATOM     11  CM  UNL     1      36.421  14.733 123.452 +0.00 -0.00    +0.000 AC
DOCKED: BRANCH   5  12
DOCKED: ATOM     12  C   UNL     1      36.389  11.080 122.381 -0.67 -0.00    +0.000 C 
DOCKED: ATOM     13  C   UNL     1      37.107  11.938 123.123 -0.64 -0.00    +0.000 C 
DOCKED: BRANCH  11  14
DOCKED: ATOM     14  O   UNL     1      37.066   9.222 121.103 -2.73 -0.00    +0.000 OA
DOCKED: ATOM     15  C   UNL     1      36.724   9.649 122.238 -0.69 -0.00    +0.000 C 
DOCKED: ATOM     16  N   UNL     1      36.648   8.731 123.336 -0.63 -0.00    +0.000 N 
DOCKED: ATOM     17  O   UNL     1      37.066   7.453 123.181 -2.41 -0.00    +0.000 OA
DOCKED: ATOM     18  H   UNL     1      36.292   9.030 124.203 -0.33 -0.00    +0.000 HD
DOCKED: ENDBRANCH  11  14
DOCKED: ENDBRANCH   5  12
DOCKED: ENDBRANCH   4   8
DOCKED: ENDBRANCH   1   4
DOCKED: BRANCH   1  18
DOCKED: ATOM     19  C   UNL     1      34.919  17.128 121.551 -0.23 -0.00    +0.000 C 
DOCKED: BRANCH  18  19
DOCKED: ATOM     20  C   UNL     1      35.840  17.727 120.476 -0.21 -0.00    +0.000 C 
DOCKED: BRANCH  19  20
DOCKED: ATOM     21  C   UNL     1      35.762  16.921 119.212 -0.11 -0.00    +0.000 A 
DOCKED: ATOM     22  C   UNL     1      34.995  17.195 118.078 -0.13 -0.00    +0.000 A 
DOCKED: ATOM     23  N   UNL     1      35.127  16.207 117.161 -0.15 -0.00    +0.000 N 
DOCKED: ATOM     24  C   UNL     1      35.953  15.302 117.712 -0.22 -0.00    +0.000 A 
DOCKED: ATOM     25  C   UNL     1      36.356  15.698 118.964 -0.16 -0.00    +0.000 A 
DOCKED: ATOM     26  C   UNL     1      37.200  14.909 119.746 -0.23 -0.00    +0.000 A 
DOCKED: ATOM     27  C   UNL     1      37.641  13.686 119.209 -0.33 -0.00    +0.000 A 
DOCKED: ATOM     28  C   UNL     1      37.231  13.282 117.919 -0.35 -0.00    +0.000 A 
DOCKED: ATOM     29  C   UNL     1      36.374  14.095 117.155 -0.33 -0.00    +0.000 A 
DOCKED: ATOM     30  C   UNL     1      34.146  18.408 117.871 -0.15 -0.00    +0.000 C 
DOCKED: ATOM     31  H   UNL     1      34.704  16.162 116.273 +0.00 -0.00    +0.000 HD
DOCKED: ATOM     32  CM  UNL     1      35.622  16.263 118.191 +0.00 -0.00    +0.000 AC
DOCKED: ATOM     33  CM  UNL     1      36.793  14.495 118.451 +0.00 -0.00    +0.000 AC
DOCKED: ENDBRANCH  19  20
DOCKED: ENDBRANCH  18  19
DOCKED: ENDBRANCH   1  18
DOCKED: TORSDOF 7DOCKED: TER
DOCKED: ENDMDL
________________________________________________________________________________


	BEGINNING GENETIC ALGORITHM DOCKING 17 of 100
Run: 17 Seed: 1102066209 229934116 [ Run 17 of 100 GA/GALS ]
Beginning LAMARCKIAN GENETIC ALGORITHM (LGA), with a maximum of 2500000 energy evaluations.

Final-Value: -14.820


	FINAL GENETIC ALGORITHM DOCKED STATE
	_______________________________________________


Detailed state:  trans 36.217 17.201 124.703 quatxyzw 0.120604 -0.289505 0.640072 0.701391 center 0.576 -0.005 0.140 ntor 7 94.5744 -146.7398 -33.6665 14.9795 -121.4968 -15.4568 -180.0000
State:	 36.217  17.201 124.703   0.169 -0.406  0.898 90.923     94.57 -146.74  -33.67   14.98 -121.50  -15.46 -180.00

DOCKED: MODEL       17
DOCKED: USER    Run = 17
DOCKED: USER    DPF = ligand_dock.biased.dpf
DOCKED: USER  
DOCKED: USER    Estimated Free Energy of Binding    =  -10.70 kcal/mol  [=(1)+(2)+(3)-(4)]
DOCKED: USER    Estimated Inhibition Constant, Ki   =   14.38 nM (nanomolar)  [Temperature = 298.15 K]
DOCKED: USER    
DOCKED: USER    (1) Final Intermolecular Energy     =  -12.79 kcal/mol
DOCKED: USER        vdW + Hbond + desolv Energy     =  -12.79 kcal/mol
DOCKED: USER        Electrostatic Energy            =   +0.00 kcal/mol
DOCKED: USER    (2) Final Total Internal Energy     =   -2.03 kcal/mol
DOCKED: USER    (3) Torsional Free Energy           =   +2.09 kcal/mol
DOCKED: USER    (4) Unbound System's Energy  [=(2)] =   -2.03 kcal/mol
DOCKED: USER    
DOCKED: USER    
DOCKED: USER    NEWDPF move ligand.dum.pdbqt
DOCKED: USER    NEWDPF about 0.576000 -0.005000 0.140000
DOCKED: USER    NEWDPF tran0 36.216781 17.200946 124.702669
DOCKED: USER    NEWDPF quaternion0 0.120604 -0.289505 0.640072 0.701391
DOCKED: USER    NEWDPF axisangle0 0.169203 -0.406164 0.897998 90.922597
DOCKED: USER    NEWDPF quat0 0.169203 -0.406164 0.897998 90.922597
DOCKED: USER    NEWDPF dihe0 94.57 -146.74 -33.67 14.98 -121.50 -15.46 -180.00 
DOCKED: USER  keepresnum = 1 
DOCKED: USER  
DOCKED: REMARK  Name = 
DOCKED: REMARK  8 active torsions:
DOCKED: REMARK  status: ('A' for Active; 'I' for Inactive)
DOCKED: REMARK    1  A    between atoms: C_2  and  C_3
DOCKED: REMARK    2  A    between atoms: C_4  and  C_5
DOCKED: REMARK    3  A    between atoms: C_8  and  C_9
DOCKED: REMARK    4  A    between atoms: C_9  and  N_10
DOCKED: REMARK    5  A    between atoms: N_10  and  C_11
DOCKED: REMARK    6  A    between atoms: C_11  and  C_12
DOCKED: REMARK    7  A    between atoms: C_12  and  C_13
DOCKED: REMARK    8  A    between atoms: C_14  and  C_22
DOCKED: REMARK                            x       y       z     vdW  Elec       q    Type
DOCKED: REMARK                         _______ _______ _______ _____ _____    ______ ____
DOCKED: USER                              x       y       z     vdW  Elec       q    Type
DOCKED: USER                           _______ _______ _______ _____ _____    ______ ____
DOCKED: ROOT
DOCKED: ATOM      1  N   UNL     1      36.479  17.844 125.062 -0.21 -0.00    +0.000 N 
DOCKED: ATOM      2  H   UNL     1      37.386  17.378 125.024 -0.02 -0.00    +0.000 HD
DOCKED: ATOM      3  H   UNL     1      35.967  17.597 125.909 -0.02 -0.00    +0.000 HD
DOCKED: ENDROOT
DOCKED: BRANCH   1   4
DOCKED: ATOM      4  C   UNL     1      35.677  17.409 123.911 -0.33 -0.00    +0.000 C 
DOCKED: BRANCH   4   8
DOCKED: ATOM      5  C   UNL     1      36.805  13.354 122.913 -0.50 -0.00    +0.000 A 
DOCKED: ATOM      6  C   UNL     1      37.675  14.429 122.638 -0.40 -0.00    +0.000 A 
DOCKED: ATOM      7  C   UNL     1      37.302  15.739 122.951 -0.30 -0.00    +0.000 A 
DOCKED: ATOM      8  C   UNL     1      36.057  16.002 123.540 -0.36 -0.00    +0.000 A 
DOCKED: ATOM      9  C   UNL     1      35.203  14.933 123.845 -0.51 -0.00    +0.000 A 
DOCKED: ATOM     10  C   UNL     1      35.574  13.623 123.534 -0.42 -0.00    +0.000 A 
DOCKED: ATOM     11  CM  UNL     1      36.436  14.680 123.237 +0.00 -0.00    +0.000 AC
DOCKED: BRANCH   5  12
DOCKED: ATOM     12  C   UNL     1      36.277  10.930 122.673 -0.69 -0.00    +0.000 C 
DOCKED: ATOM     13  C   UNL     1      37.155  11.943 122.612 -0.58 -0.00    +0.000 C 
DOCKED: BRANCH  11  14
DOCKED: ATOM     14  O   UNL     1      36.912   9.219 121.187 -2.69 -0.00    +0.000 OA
DOCKED: ATOM     15  C   UNL     1      36.631   9.528 122.375 -0.71 -0.00    +0.000 C 
DOCKED: ATOM     16  N   UNL     1      36.640   8.508 123.382 -0.66 -0.00    +0.000 N 
DOCKED: ATOM     17  O   UNL     1      37.073   7.261 123.081 -2.23 -0.00    +0.000 OA
DOCKED: ATOM     18  H   UNL     1      36.330   8.715 124.294 -0.30 -0.00    +0.000 HD
DOCKED: ENDBRANCH  11  14
DOCKED: ENDBRANCH   5  12
DOCKED: ENDBRANCH   4   8
DOCKED: ENDBRANCH   1   4
DOCKED: BRANCH   1  18
DOCKED: ATOM     19  C   UNL     1      36.695  19.298 125.075 -0.17 -0.00    +0.000 C 
DOCKED: BRANCH  18  19
DOCKED: ATOM     20  C   UNL     1      38.136  19.684 124.701 -0.11 -0.00    +0.000 C 
DOCKED: BRANCH  19  20
DOCKED: ATOM     21  C   UNL     1      38.515  19.073 123.382 -0.09 -0.00    +0.000 A 
DOCKED: ATOM     22  C   UNL     1      37.864  19.227 122.157 -0.08 -0.00    +0.000 A 
DOCKED: ATOM     23  N   UNL     1      38.454  18.471 121.202 -0.05 -0.00    +0.000 N 
DOCKED: ATOM     24  C   UNL     1      39.460  17.823 121.816 -0.09 -0.00    +0.000 A 
DOCKED: ATOM     25  C   UNL     1      39.525  18.159 123.146 -0.14 -0.00    +0.000 A 
DOCKED: ATOM     26  C   UNL     1      40.475  17.595 123.998 -0.26 -0.00    +0.000 A 
DOCKED: ATOM     27  C   UNL     1      41.381  16.669 123.452 -0.31 -0.00    +0.000 A 
DOCKED: ATOM     28  C   UNL     1      41.317  16.329 122.082 -0.29 -0.00    +0.000 A 
DOCKED: ATOM     29  C   UNL     1      40.345  16.908 121.248 -0.14 -0.00    +0.000 A 
DOCKED: ATOM     30  C   UNL     1      36.683  20.110 121.902 -0.13 -0.00    +0.000 C 
DOCKED: ATOM     31  H   UNL     1      38.199  18.407 120.253 +0.00 -0.00    +0.000 HD
DOCKED: ATOM     32  CM  UNL     1      38.753  18.548 122.304 +0.00 -0.00    +0.000 AC
DOCKED: ATOM     33  CM  UNL     1      40.418  17.247 122.624 +0.00 -0.00    +0.000 AC
DOCKED: ENDBRANCH  19  20
DOCKED: ENDBRANCH  18  19
DOCKED: ENDBRANCH   1  18
DOCKED: TORSDOF 7DOCKED: TER
DOCKED: ENDMDL
________________________________________________________________________________


	BEGINNING GENETIC ALGORITHM DOCKING 18 of 100
Run: 18 Seed: 1139585077 506319027 [ Run 18 of 100 GA/GALS ]
Beginning LAMARCKIAN GENETIC ALGORITHM (LGA), with a maximum of 2500000 energy evaluations.

Final-Value: -14.950


	FINAL GENETIC ALGORITHM DOCKED STATE
	_______________________________________________


Detailed state:  trans 38.101 17.803 122.395 quatxyzw -0.915030 0.364552 0.052979 -0.164365 center 0.576 -0.005 0.140 ntor 7 146.7891 -30.1881 113.0899 -7.0456 -67.5098 -62.9122 -144.1048
State:	 38.101  17.803 122.395  -0.928  0.370  0.054 -161.079    146.79  -30.19  113.09   -7.05  -67.51  -62.91 -144.10

DOCKED: MODEL       18
DOCKED: USER    Run = 18
DOCKED: USER    DPF = ligand_dock.biased.dpf
DOCKED: USER  
DOCKED: USER    Estimated Free Energy of Binding    =  -11.66 kcal/mol  [=(1)+(2)+(3)-(4)]
DOCKED: USER    Estimated Inhibition Constant, Ki   =    2.84 nM (nanomolar)  [Temperature = 298.15 K]
DOCKED: USER    
DOCKED: USER    (1) Final Intermolecular Energy     =  -13.75 kcal/mol
DOCKED: USER        vdW + Hbond + desolv Energy     =  -13.75 kcal/mol
DOCKED: USER        Electrostatic Energy            =   +0.00 kcal/mol
DOCKED: USER    (2) Final Total Internal Energy     =   -1.20 kcal/mol
DOCKED: USER    (3) Torsional Free Energy           =   +2.09 kcal/mol
DOCKED: USER    (4) Unbound System's Energy  [=(2)] =   -1.20 kcal/mol
DOCKED: USER    
DOCKED: USER    
DOCKED: USER    NEWDPF move ligand.dum.pdbqt
DOCKED: USER    NEWDPF about 0.576000 -0.005000 0.140000
DOCKED: USER    NEWDPF tran0 38.100652 17.802713 122.394805
DOCKED: USER    NEWDPF quaternion0 -0.915030 0.364552 0.052979 -0.164365
DOCKED: USER    NEWDPF axisangle0 -0.927646 0.369578 0.053710 -161.079347
DOCKED: USER    NEWDPF quat0 -0.927646 0.369578 0.053710 -161.079347
DOCKED: USER    NEWDPF dihe0 146.79 -30.19 113.09 -7.05 -67.51 -62.91 -144.10 
DOCKED: USER  keepresnum = 1 
DOCKED: USER  
DOCKED: REMARK  Name = 
DOCKED: REMARK  8 active torsions:
DOCKED: REMARK  status: ('A' for Active; 'I' for Inactive)
DOCKED: REMARK    1  A    between atoms: C_2  and  C_3
DOCKED: REMARK    2  A    between atoms: C_4  and  C_5
DOCKED: REMARK    3  A    between atoms: C_8  and  C_9
DOCKED: REMARK    4  A    between atoms: C_9  and  N_10
DOCKED: REMARK    5  A    between atoms: N_10  and  C_11
DOCKED: REMARK    6  A    between atoms: C_11  and  C_12
DOCKED: REMARK    7  A    between atoms: C_12  and  C_13
DOCKED: REMARK    8  A    between atoms: C_14  and  C_22
DOCKED: REMARK                            x       y       z     vdW  Elec       q    Type
DOCKED: REMARK                         _______ _______ _______ _____ _____    ______ ____
DOCKED: USER                              x       y       z     vdW  Elec       q    Type
DOCKED: USER                           _______ _______ _______ _____ _____    ______ ____
DOCKED: ROOT
DOCKED: ATOM      1  N   UNL     1      37.508  18.285 122.229 -0.10 -0.00    +0.000 N 
DOCKED: ATOM      2  H   UNL     1      37.386  17.696 121.405 +0.00 -0.00    +0.000 HD
DOCKED: ATOM      3  H   UNL     1      38.161  19.048 122.049 +0.00 -0.00    +0.000 HD
DOCKED: ENDROOT
DOCKED: BRANCH   1   4
DOCKED: ATOM      4  C   UNL     1      38.063  17.468 123.315 -0.21 -0.00    +0.000 C 
DOCKED: BRANCH   4   8
DOCKED: ATOM      5  C   UNL     1      37.483  13.299 122.320 -0.46 -0.00    +0.000 A 
DOCKED: ATOM      6  C   UNL     1      36.545  13.982 123.120 -0.47 -0.00    +0.000 A 
DOCKED: ATOM      7  C   UNL     1      36.742  15.326 123.449 -0.37 -0.00    +0.000 A 
DOCKED: ATOM      8  C   UNL     1      37.876  16.011 122.991 -0.27 -0.00    +0.000 A 
DOCKED: ATOM      9  C   UNL     1      38.795  15.344 122.168 -0.30 -0.00    +0.000 A 
DOCKED: ATOM     10  C   UNL     1      38.599  14.002 121.836 -0.35 -0.00    +0.000 A 
DOCKED: ATOM     11  CM  UNL     1      37.674  14.661 122.647 +0.00 -0.00    +0.000 AC
DOCKED: BRANCH   5  12
DOCKED: ATOM     12  C   UNL     1      37.096  10.885 122.807 -0.56 -0.00    +0.000 C 
DOCKED: ATOM     13  C   UNL     1      37.318  11.876 121.930 -0.47 -0.00    +0.000 C 
DOCKED: BRANCH  11  14
DOCKED: ATOM     14  O   UNL     1      36.692   9.208 121.205 -2.63 -0.00    +0.000 OA
DOCKED: ATOM     15  C   UNL     1      36.934   9.471 122.413 -0.65 -0.00    +0.000 C 
DOCKED: ATOM     16  N   UNL     1      37.017   8.397 123.358 -0.70 -0.00    +0.000 N 
DOCKED: ATOM     17  O   UNL     1      36.966   7.113 122.932 -1.94 -0.00    +0.000 OA
DOCKED: ATOM     18  H   UNL     1      37.110   8.594 124.318 -0.50 -0.00    +0.000 HD
DOCKED: ENDBRANCH  11  14
DOCKED: ENDBRANCH   5  12
DOCKED: ENDBRANCH   4   8
DOCKED: ENDBRANCH   1   4
DOCKED: BRANCH   1  18
DOCKED: ATOM     19  C   UNL     1      36.210  18.878 122.583 -0.21 -0.00    +0.000 C 
DOCKED: BRANCH  18  19
DOCKED: ATOM     20  C   UNL     1      35.083  17.835 122.647 -0.34 -0.00    +0.000 C 
DOCKED: BRANCH  19  20
DOCKED: ATOM     21  C   UNL     1      34.674  17.593 124.071 -0.36 -0.00    +0.000 A 
DOCKED: ATOM     22  C   UNL     1      34.052  16.458 124.594 -0.41 -0.00    +0.000 A 
DOCKED: ATOM     23  N   UNL     1      33.773  16.627 125.908 -0.45 -0.00    +0.000 N 
DOCKED: ATOM     24  C   UNL     1      34.194  17.866 126.217 -0.31 -0.00    +0.000 A 
DOCKED: ATOM     25  C   UNL     1      34.742  18.488 125.123 -0.28 -0.00    +0.000 A 
DOCKED: ATOM     26  C   UNL     1      35.229  19.794 125.190 -0.18 -0.00    +0.000 A 
DOCKED: ATOM     27  C   UNL     1      35.152  20.461 126.425 -0.12 -0.00    +0.000 A 
DOCKED: ATOM     28  C   UNL     1      34.593  19.818 127.552 -0.10 -0.00    +0.000 A 
DOCKED: ATOM     29  C   UNL     1      34.103  18.504 127.453 -0.19 -0.00    +0.000 A 
DOCKED: ATOM     30  C   UNL     1      33.736  15.209 123.835 -0.38 -0.00    +0.000 C 
DOCKED: ATOM     31  H   UNL     1      33.349  15.976 126.513 -0.07 -0.00    +0.000 HD
DOCKED: ATOM     32  CM  UNL     1      34.271  17.381 125.206 -0.32 -0.00    +0.000 AC
DOCKED: ATOM     33  CM  UNL     1      34.669  19.156 126.327 -0.04 -0.00    +0.000 AC
DOCKED: ENDBRANCH  19  20
DOCKED: ENDBRANCH  18  19
DOCKED: ENDBRANCH   1  18
DOCKED: TORSDOF 7DOCKED: TER
DOCKED: ENDMDL
________________________________________________________________________________


	BEGINNING GENETIC ALGORITHM DOCKING 19 of 100
Run: 19 Seed: 1806734861 1449571596 [ Run 19 of 100 GA/GALS ]
Beginning LAMARCKIAN GENETIC ALGORITHM (LGA), with a maximum of 2500000 energy evaluations.

Final-Value: -15.038


	FINAL GENETIC ALGORITHM DOCKED STATE
	_______________________________________________


Detailed state:  trans 36.625 17.535 123.705 quatxyzw -0.283219 0.120712 -0.822452 -0.478318 center 0.576 -0.005 0.140 ntor 7 -26.9995 180.0000 59.1238 178.8293 112.3323 -38.4599 -104.9885
State:	 36.625  17.535 123.705  -0.323  0.137 -0.937 -122.849    -27.00  180.00   59.12  178.83  112.33  -38.46 -104.99

DOCKED: MODEL       19
DOCKED: USER    Run = 19
DOCKED: USER    DPF = ligand_dock.biased.dpf
DOCKED: USER  
DOCKED: USER    Estimated Free Energy of Binding    =  -11.26 kcal/mol  [=(1)+(2)+(3)-(4)]
DOCKED: USER    Estimated Inhibition Constant, Ki   =    5.57 nM (nanomolar)  [Temperature = 298.15 K]
DOCKED: USER    
DOCKED: USER    (1) Final Intermolecular Energy     =  -13.35 kcal/mol
DOCKED: USER        vdW + Hbond + desolv Energy     =  -13.35 kcal/mol
DOCKED: USER        Electrostatic Energy            =   +0.00 kcal/mol
DOCKED: USER    (2) Final Total Internal Energy     =   -1.69 kcal/mol
DOCKED: USER    (3) Torsional Free Energy           =   +2.09 kcal/mol
DOCKED: USER    (4) Unbound System's Energy  [=(2)] =   -1.69 kcal/mol
DOCKED: USER    
DOCKED: USER    
DOCKED: USER    NEWDPF move ligand.dum.pdbqt
DOCKED: USER    NEWDPF about 0.576000 -0.005000 0.140000
DOCKED: USER    NEWDPF tran0 36.625182 17.534571 123.704821
DOCKED: USER    NEWDPF quaternion0 -0.283219 0.120712 -0.822452 -0.478318
DOCKED: USER    NEWDPF axisangle0 -0.322504 0.137456 -0.936535 -122.848850
DOCKED: USER    NEWDPF quat0 -0.322504 0.137456 -0.936535 -122.848850
DOCKED: USER    NEWDPF dihe0 -27.00 180.00 59.12 178.83 112.33 -38.46 -104.99 
DOCKED: USER  keepresnum = 1 
DOCKED: USER  
DOCKED: REMARK  Name = 
DOCKED: REMARK  8 active torsions:
DOCKED: REMARK  status: ('A' for Active; 'I' for Inactive)
DOCKED: REMARK    1  A    between atoms: C_2  and  C_3
DOCKED: REMARK    2  A    between atoms: C_4  and  C_5
DOCKED: REMARK    3  A    between atoms: C_8  and  C_9
DOCKED: REMARK    4  A    between atoms: C_9  and  N_10
DOCKED: REMARK    5  A    between atoms: N_10  and  C_11
DOCKED: REMARK    6  A    between atoms: C_11  and  C_12
DOCKED: REMARK    7  A    between atoms: C_12  and  C_13
DOCKED: REMARK    8  A    between atoms: C_14  and  C_22
DOCKED: REMARK                            x       y       z     vdW  Elec       q    Type
DOCKED: REMARK                         _______ _______ _______ _____ _____    ______ ____
DOCKED: USER                              x       y       z     vdW  Elec       q    Type
DOCKED: USER                           _______ _______ _______ _____ _____    ______ ____
DOCKED: ROOT
DOCKED: ATOM      1  N   UNL     1      37.161  18.101 123.648 -0.17 -0.00    +0.000 N 
DOCKED: ATOM      2  H   UNL     1      37.816  17.379 123.948 -0.01 -0.00    +0.000 HD
DOCKED: ATOM      3  H   UNL     1      36.751  18.588 124.445 -0.00 -0.00    +0.000 HD
DOCKED: ENDROOT
DOCKED: BRANCH   1   4
DOCKED: ATOM      4  C   UNL     1      36.068  17.465 122.902 -0.27 -0.00    +0.000 C 
DOCKED: BRANCH   4   8
DOCKED: ATOM      5  C   UNL     1      36.372  13.158 123.149 -0.53 -0.00    +0.000 A 
DOCKED: ATOM      6  C   UNL     1      35.604  13.877 124.087 -0.37 -0.00    +0.000 A 
DOCKED: ATOM      7  C   UNL     1      35.518  15.270 124.011 -0.46 -0.00    +0.000 A 
DOCKED: ATOM      8  C   UNL     1      36.196  15.971 123.003 -0.33 -0.00    +0.000 A 
DOCKED: ATOM      9  C   UNL     1      36.933  15.256 122.048 -0.27 -0.00    +0.000 A 
DOCKED: ATOM     10  C   UNL     1      37.019  13.864 122.121 -0.39 -0.00    +0.000 A 
DOCKED: ATOM     11  CM  UNL     1      36.274  14.566 123.070 +0.00 -0.00    +0.000 AC
DOCKED: BRANCH   5  12
DOCKED: ATOM     12  C   UNL     1      36.815  10.939 122.104 -0.60 -0.00    +0.000 C 
DOCKED: ATOM     13  C   UNL     1      36.488  11.678 123.175 -0.69 -0.00    +0.000 C 
DOCKED: BRANCH  11  14
DOCKED: ATOM     14  O   UNL     1      37.046   8.849 121.044 -2.70 -0.00    +0.000 OA
DOCKED: ATOM     15  C   UNL     1      36.928   9.466 122.136 -0.65 -0.00    +0.000 C 
DOCKED: ATOM     16  N   UNL     1      36.880   8.719 123.358 -0.64 -0.00    +0.000 N 
DOCKED: ATOM     17  O   UNL     1      37.092   7.383 123.345 -2.41 -0.00    +0.000 OA
DOCKED: ATOM     18  H   UNL     1      36.692   9.179 124.208 -0.48 -0.00    +0.000 HD
DOCKED: ENDBRANCH  11  14
DOCKED: ENDBRANCH   5  12
DOCKED: ENDBRANCH   4   8
DOCKED: ENDBRANCH   1   4
DOCKED: BRANCH   1  18
DOCKED: ATOM     19  C   UNL     1      37.887  19.092 122.840 -0.10 -0.00    +0.000 C 
DOCKED: BRANCH  18  19
DOCKED: ATOM     20  C   UNL     1      37.924  18.723 121.348 -0.08 -0.00    +0.000 C 
DOCKED: BRANCH  19  20
DOCKED: ATOM     21  C   UNL     1      38.848  17.562 121.118 -0.07 -0.00    +0.000 A 
DOCKED: ATOM     22  C   UNL     1      38.748  16.581 120.130 -0.11 -0.00    +0.000 A 
DOCKED: ATOM     23  N   UNL     1      39.724  15.654 120.276 -0.19 -0.00    +0.000 N 
DOCKED: ATOM     24  C   UNL     1      40.427  16.027 121.359 -0.22 -0.00    +0.000 A 
DOCKED: ATOM     25  C   UNL     1      39.919  17.181 121.904 -0.14 -0.00    +0.000 A 
DOCKED: ATOM     26  C   UNL     1      40.469  17.752 123.052 -0.19 -0.00    +0.000 A 
DOCKED: ATOM     27  C   UNL     1      41.575  17.113 123.639 -0.32 -0.00    +0.000 A 
DOCKED: ATOM     28  C   UNL     1      42.100  15.929 123.075 -0.38 +0.00    +0.000 A 
DOCKED: ATOM     29  C   UNL     1      41.522  15.371 121.921 -0.38 -0.00    +0.000 A 
DOCKED: ATOM     30  C   UNL     1      37.724  16.541 119.041 -0.13 -0.00    +0.000 C 
DOCKED: ATOM     31  H   UNL     1      39.885  14.867 119.706 -0.06 -0.00    +0.000 HD
DOCKED: ATOM     32  CM  UNL     1      39.539  16.570 120.935 +0.00 -0.00    +0.000 AC
DOCKED: ATOM     33  CM  UNL     1      41.002  16.563 122.492 +0.00 -0.00    +0.000 AC
DOCKED: ENDBRANCH  19  20
DOCKED: ENDBRANCH  18  19
DOCKED: ENDBRANCH   1  18
DOCKED: TORSDOF 7DOCKED: TER
DOCKED: ENDMDL
________________________________________________________________________________


	BEGINNING GENETIC ALGORITHM DOCKING 20 of 100
Run: 20 Seed: 1510301711 969131251 [ Run 20 of 100 GA/GALS ]
Beginning LAMARCKIAN GENETIC ALGORITHM (LGA), with a maximum of 2500000 energy evaluations.

Final-Value: -14.779


	FINAL GENETIC ALGORITHM DOCKED STATE
	_______________________________________________


Detailed state:  trans 35.898 17.140 124.229 quatxyzw 0.038395 -0.291481 -0.093446 -0.951227 center 0.576 -0.005 0.140 ntor 7 155.6923 4.6931 -25.8044 51.1479 49.9506 87.1657 -15.7996
State:	 35.898  17.140 124.229   0.124 -0.945 -0.303 -35.937    155.69    4.69  -25.80   51.15   49.95   87.17  -15.80

DOCKED: MODEL       20
DOCKED: USER    Run = 20
DOCKED: USER    DPF = ligand_dock.biased.dpf
DOCKED: USER  
DOCKED: USER    Estimated Free Energy of Binding    =  -11.45 kcal/mol  [=(1)+(2)+(3)-(4)]
DOCKED: USER    Estimated Inhibition Constant, Ki   =    4.05 nM (nanomolar)  [Temperature = 298.15 K]
DOCKED: USER    
DOCKED: USER    (1) Final Intermolecular Energy     =  -13.54 kcal/mol
DOCKED: USER        vdW + Hbond + desolv Energy     =  -13.54 kcal/mol
DOCKED: USER        Electrostatic Energy            =   +0.00 kcal/mol
DOCKED: USER    (2) Final Total Internal Energy     =   -1.24 kcal/mol
DOCKED: USER    (3) Torsional Free Energy           =   +2.09 kcal/mol
DOCKED: USER    (4) Unbound System's Energy  [=(2)] =   -1.24 kcal/mol
DOCKED: USER    
DOCKED: USER    
DOCKED: USER    NEWDPF move ligand.dum.pdbqt
DOCKED: USER    NEWDPF about 0.576000 -0.005000 0.140000
DOCKED: USER    NEWDPF tran0 35.897529 17.140110 124.228540
DOCKED: USER    NEWDPF quaternion0 0.038395 -0.291481 -0.093446 -0.951227
DOCKED: USER    NEWDPF axisangle0 0.124459 -0.944857 -0.302912 -35.936811
DOCKED: USER    NEWDPF quat0 0.124459 -0.944857 -0.302912 -35.936811
DOCKED: USER    NEWDPF dihe0 155.69 4.69 -25.80 51.15 49.95 87.17 -15.80 
DOCKED: USER  keepresnum = 1 
DOCKED: USER  
DOCKED: REMARK  Name = 
DOCKED: REMARK  8 active torsions:
DOCKED: REMARK  status: ('A' for Active; 'I' for Inactive)
DOCKED: REMARK    1  A    between atoms: C_2  and  C_3
DOCKED: REMARK    2  A    between atoms: C_4  and  C_5
DOCKED: REMARK    3  A    between atoms: C_8  and  C_9
DOCKED: REMARK    4  A    between atoms: C_9  and  N_10
DOCKED: REMARK    5  A    between atoms: N_10  and  C_11
DOCKED: REMARK    6  A    between atoms: C_11  and  C_12
DOCKED: REMARK    7  A    between atoms: C_12  and  C_13
DOCKED: REMARK    8  A    between atoms: C_14  and  C_22
DOCKED: REMARK                            x       y       z     vdW  Elec       q    Type
DOCKED: REMARK                         _______ _______ _______ _____ _____    ______ ____
DOCKED: USER                              x       y       z     vdW  Elec       q    Type
DOCKED: USER                           _______ _______ _______ _____ _____    ______ ____
DOCKED: ROOT
DOCKED: ATOM      1  N   UNL     1      35.168  17.395 124.109 -0.33 -0.00    +0.000 N 
DOCKED: ATOM      2  H   UNL     1      35.339  17.975 124.930 -0.01 -0.00    +0.000 HD
DOCKED: ATOM      3  H   UNL     1      34.792  16.483 124.369 -0.01 -0.00    +0.000 HD
DOCKED: ENDROOT
DOCKED: BRANCH   1   4
DOCKED: ATOM      4  C   UNL     1      36.443  17.172 123.415 -0.28 -0.00    +0.000 C 
DOCKED: BRANCH   4   8
DOCKED: ATOM      5  C   UNL     1      36.762  12.979 122.400 -0.48 -0.00    +0.000 A 
DOCKED: ATOM      6  C   UNL     1      36.156  13.380 123.608 -0.52 -0.00    +0.000 A 
DOCKED: ATOM      7  C   UNL     1      36.066  14.736 123.938 -0.43 -0.00    +0.000 A 
DOCKED: ATOM      8  C   UNL     1      36.578  15.714 123.074 -0.33 -0.00    +0.000 A 
DOCKED: ATOM      9  C   UNL     1      37.151  15.320 121.855 -0.26 -0.00    +0.000 A 
DOCKED: ATOM     10  C   UNL     1      37.241  13.967 121.523 -0.34 -0.00    +0.000 A 
DOCKED: ATOM     11  CM  UNL     1      36.659  14.350 122.733 +0.00 -0.00    +0.000 AC
DOCKED: BRANCH   5  12
DOCKED: ATOM     12  C   UNL     1      36.746  10.527 122.846 -0.67 -0.00    +0.000 C 
DOCKED: ATOM     13  C   UNL     1      36.874  11.556 121.994 -0.59 -0.00    +0.000 C 
DOCKED: BRANCH  11  14
DOCKED: ATOM     14  O   UNL     1      36.944   8.848 121.207 -2.66 -0.00    +0.000 OA
DOCKED: ATOM     15  C   UNL     1      36.860   9.113 122.436 -0.70 -0.00    +0.000 C 
DOCKED: ATOM     16  N   UNL     1      36.852   8.037 123.383 -0.73 -0.00    +0.000 N 
DOCKED: ATOM     17  O   UNL     1      37.065   6.766 122.967 -1.61 -0.00    +0.000 OA
DOCKED: ATOM     18  H   UNL     1      36.691   8.223 124.336 -0.33 -0.00    +0.000 HD
DOCKED: ENDBRANCH  11  14
DOCKED: ENDBRANCH   5  12
DOCKED: ENDBRANCH   4   8
DOCKED: ENDBRANCH   1   4
DOCKED: BRANCH   1  18
DOCKED: ATOM     19  C   UNL     1      34.175  18.064 123.255 -0.24 -0.00    +0.000 C 
DOCKED: BRANCH  18  19
DOCKED: ATOM     20  C   UNL     1      33.894  17.286 121.959 -0.24 -0.00    +0.000 C 
DOCKED: BRANCH  19  20
DOCKED: ATOM     21  C   UNL     1      33.890  18.217 120.781 -0.32 -0.00    +0.000 A 
DOCKED: ATOM     22  C   UNL     1      34.964  18.957 120.281 -0.21 -0.00    +0.000 A 
DOCKED: ATOM     23  N   UNL     1      34.567  19.738 119.248 -0.18 -0.00    +0.000 N 
DOCKED: ATOM     24  C   UNL     1      33.249  19.516 119.104 -0.23 -0.00    +0.000 A 
DOCKED: ATOM     25  C   UNL     1      32.799  18.601 120.024 -0.38 -0.00    +0.000 A 
DOCKED: ATOM     26  C   UNL     1      31.457  18.225 120.086 -0.43 -0.00    +0.000 A 
DOCKED: ATOM     27  C   UNL     1      30.567  18.808 119.166 -0.39 -0.00    +0.000 A 
DOCKED: ATOM     28  C   UNL     1      31.032  19.745 118.217 -0.23 -0.00    +0.000 A 
DOCKED: ATOM     29  C   UNL     1      32.390  20.110 118.181 -0.19 -0.00    +0.000 A 
DOCKED: ATOM     30  C   UNL     1      36.370  18.904 120.786 -0.16 -0.00    +0.000 C 
DOCKED: ATOM     31  H   UNL     1      35.129  20.344 118.713 -0.04 -0.00    +0.000 HD
DOCKED: ATOM     32  CM  UNL     1      33.916  19.029 119.867 +0.00 -0.00    +0.000 AC
DOCKED: ATOM     33  CM  UNL     1      31.915  19.167 119.130 +0.00 -0.00    +0.000 AC
DOCKED: ENDBRANCH  19  20
DOCKED: ENDBRANCH  18  19
DOCKED: ENDBRANCH   1  18
DOCKED: TORSDOF 7DOCKED: TER
DOCKED: ENDMDL
________________________________________________________________________________


	BEGINNING GENETIC ALGORITHM DOCKING 21 of 100
Run: 21 Seed: 487964951 29453489 [ Run 21 of 100 GA/GALS ]
Beginning LAMARCKIAN GENETIC ALGORITHM (LGA), with a maximum of 2500000 energy evaluations.

Final-Value: -14.011


	FINAL GENETIC ALGORITHM DOCKED STATE
	_______________________________________________


Detailed state:  trans 37.060 16.602 123.481 quatxyzw 0.730139 -0.138032 0.586213 0.322796 center 0.576 -0.005 0.140 ntor 7 172.9337 -146.8109 -0.8015 120.6996 -151.3931 -64.1367 149.2314
State:	 37.060  16.602 123.481   0.771 -0.146  0.619 142.336    172.93 -146.81   -0.80  120.70 -151.39  -64.14  149.23

DOCKED: MODEL       21
DOCKED: USER    Run = 21
DOCKED: USER    DPF = ligand_dock.biased.dpf
DOCKED: USER  
DOCKED: USER    Estimated Free Energy of Binding    =   -9.92 kcal/mol  [=(1)+(2)+(3)-(4)]
DOCKED: USER    Estimated Inhibition Constant, Ki   =   53.49 nM (nanomolar)  [Temperature = 298.15 K]
DOCKED: USER    
DOCKED: USER    (1) Final Intermolecular Energy     =  -12.01 kcal/mol
DOCKED: USER        vdW + Hbond + desolv Energy     =  -12.01 kcal/mol
DOCKED: USER        Electrostatic Energy            =   +0.00 kcal/mol
DOCKED: USER    (2) Final Total Internal Energy     =   -2.00 kcal/mol
DOCKED: USER    (3) Torsional Free Energy           =   +2.09 kcal/mol
DOCKED: USER    (4) Unbound System's Energy  [=(2)] =   -2.00 kcal/mol
DOCKED: USER    
DOCKED: USER    
DOCKED: USER    NEWDPF move ligand.dum.pdbqt
DOCKED: USER    NEWDPF about 0.576000 -0.005000 0.140000
DOCKED: USER    NEWDPF tran0 37.060252 16.602109 123.480830
DOCKED: USER    NEWDPF quaternion0 0.730139 -0.138032 0.586213 0.322796
DOCKED: USER    NEWDPF axisangle0 0.771436 -0.145839 0.619369 142.335745
DOCKED: USER    NEWDPF quat0 0.771436 -0.145839 0.619369 142.335745
DOCKED: USER    NEWDPF dihe0 172.93 -146.81 -0.80 120.70 -151.39 -64.14 149.23 
DOCKED: USER  keepresnum = 1 
DOCKED: USER  
DOCKED: REMARK  Name = 
DOCKED: REMARK  8 active torsions:
DOCKED: REMARK  status: ('A' for Active; 'I' for Inactive)
DOCKED: REMARK    1  A    between atoms: C_2  and  C_3
DOCKED: REMARK    2  A    between atoms: C_4  and  C_5
DOCKED: REMARK    3  A    between atoms: C_8  and  C_9
DOCKED: REMARK    4  A    between atoms: C_9  and  N_10
DOCKED: REMARK    5  A    between atoms: N_10  and  C_11
DOCKED: REMARK    6  A    between atoms: C_11  and  C_12
DOCKED: REMARK    7  A    between atoms: C_12  and  C_13
DOCKED: REMARK    8  A    between atoms: C_14  and  C_22
DOCKED: REMARK                            x       y       z     vdW  Elec       q    Type
DOCKED: REMARK                         _______ _______ _______ _____ _____    ______ ____
DOCKED: USER                              x       y       z     vdW  Elec       q    Type
DOCKED: USER                           _______ _______ _______ _____ _____    ______ ____
DOCKED: ROOT
DOCKED: ATOM      1  N   UNL     1      37.176  17.017 122.829 -0.20 -0.00    +0.000 N 
DOCKED: ATOM      2  H   UNL     1      37.970  16.393 122.688 -0.00 -0.00    +0.000 HD
DOCKED: ATOM      3  H   UNL     1      37.438  17.835 123.379 +0.00 -0.00    +0.000 HD
DOCKED: ENDROOT
DOCKED: BRANCH   1   4
DOCKED: ATOM      4  C   UNL     1      36.134  16.295 123.569 -0.38 -0.00    +0.000 C 
DOCKED: BRANCH   4   8
DOCKED: ATOM      5  C   UNL     1      36.868  12.037 123.382 -0.60 -0.00    +0.000 A 
DOCKED: ATOM      6  C   UNL     1      37.942  12.949 123.408 -0.23 -0.00    +0.000 A 
DOCKED: ATOM      7  C   UNL     1      37.701  14.325 123.456 -0.32 -0.00    +0.000 A 
DOCKED: ATOM      8  C   UNL     1      36.388  14.816 123.476 -0.42 -0.00    +0.000 A 
DOCKED: ATOM      9  C   UNL     1      35.317  13.910 123.485 -0.26 -0.00    +0.000 A 
DOCKED: ATOM     10  C   UNL     1      35.556  12.535 123.438 -0.39 -0.00    +0.000 A 
DOCKED: ATOM     11  CM  UNL     1      36.628  13.429 123.441 +0.00 -0.00    +0.000 AC
DOCKED: BRANCH   5  12
DOCKED: ATOM     12  C   UNL     1      36.078   9.688 123.117 -0.63 -0.00    +0.000 C 
DOCKED: ATOM     13  C   UNL     1      37.067  10.566 123.344 -0.55 -0.00    +0.000 C 
DOCKED: BRANCH  11  14
DOCKED: ATOM     14  O   UNL     1      37.394   7.764 123.453 -2.59 -0.00    +0.000 OA
DOCKED: ATOM     15  C   UNL     1      36.281   8.225 123.082 -0.76 -0.00    +0.000 C 
DOCKED: ATOM     16  N   UNL     1      35.271   7.321 122.616 -0.63 -0.00    +0.000 N 
DOCKED: ATOM     17  O   UNL     1      35.466   5.984 122.701 -0.85 -0.00    +0.000 OA
DOCKED: ATOM     18  H   UNL     1      34.435   7.673 122.234 -0.00 -0.00    +0.000 HD
DOCKED: ENDBRANCH  11  14
DOCKED: ENDBRANCH   5  12
DOCKED: ENDBRANCH   4   8
DOCKED: ENDBRANCH   1   4
DOCKED: BRANCH   1  18
DOCKED: ATOM     19  C   UNL     1      36.707  17.488 121.517 -0.18 -0.00    +0.000 C 
DOCKED: BRANCH  18  19
DOCKED: ATOM     20  C   UNL     1      37.749  17.278 120.407 -0.11 -0.00    +0.000 C 
DOCKED: BRANCH  19  20
DOCKED: ATOM     21  C   UNL     1      38.687  16.164 120.774 -0.15 -0.00    +0.000 A 
DOCKED: ATOM     22  C   UNL     1      38.541  14.804 120.494 -0.25 -0.00    +0.000 A 
DOCKED: ATOM     23  N   UNL     1      39.553  14.091 121.042 -0.26 -0.00    +0.000 N 
DOCKED: ATOM     24  C   UNL     1      40.326  14.983 121.684 -0.31 -0.00    +0.000 A 
DOCKED: ATOM     25  C   UNL     1      39.828  16.256 121.550 -0.20 -0.00    +0.000 A 
DOCKED: ATOM     26  C   UNL     1      40.448  17.353 122.150 -0.15 -0.00    +0.000 A 
DOCKED: ATOM     27  C   UNL     1      41.615  17.119 122.899 -0.30 -0.00    +0.000 A 
DOCKED: ATOM     28  C   UNL     1      42.130  15.811 123.032 -0.39 +0.00    +0.000 A 
DOCKED: ATOM     29  C   UNL     1      41.481  14.723 122.421 -0.46 -0.00    +0.000 A 
DOCKED: ATOM     30  C   UNL     1      37.437  14.193 119.691 -0.35 -0.00    +0.000 C 
DOCKED: ATOM     31  H   UNL     1      39.693  13.118 120.983 -0.09 -0.00    +0.000 HD
DOCKED: ATOM     32  CM  UNL     1      39.392  15.222 121.107 +0.00 -0.00    +0.000 AC
DOCKED: ATOM     33  CM  UNL     1      40.972  16.041 122.289 +0.00 -0.00    +0.000 AC
DOCKED: ENDBRANCH  19  20
DOCKED: ENDBRANCH  18  19
DOCKED: ENDBRANCH   1  18
DOCKED: TORSDOF 7DOCKED: TER
DOCKED: ENDMDL
________________________________________________________________________________


	BEGINNING GENETIC ALGORITHM DOCKING 22 of 100
Run: 22 Seed: 763360371 871361582 [ Run 22 of 100 GA/GALS ]
Beginning LAMARCKIAN GENETIC ALGORITHM (LGA), with a maximum of 2500000 energy evaluations.

Final-Value: -14.275


	FINAL GENETIC ALGORITHM DOCKED STATE
	_______________________________________________


Detailed state:  trans 37.044 18.412 122.160 quatxyzw 0.327232 0.638693 0.684549 -0.127997 center 0.576 -0.005 0.140 ntor 7 -13.8551 -180.0000 178.9123 -164.1667 116.7608 -160.8609 -156.0238
State:	 37.044  18.412 122.160   0.330  0.644  0.690 -165.292    -13.86 -180.00  178.91 -164.17  116.76 -160.86 -156.02

DOCKED: MODEL       22
DOCKED: USER    Run = 22
DOCKED: USER    DPF = ligand_dock.biased.dpf
DOCKED: USER  
DOCKED: USER    Estimated Free Energy of Binding    =  -11.22 kcal/mol  [=(1)+(2)+(3)-(4)]
DOCKED: USER    Estimated Inhibition Constant, Ki   =    6.00 nM (nanomolar)  [Temperature = 298.15 K]
DOCKED: USER    
DOCKED: USER    (1) Final Intermolecular Energy     =  -13.30 kcal/mol
DOCKED: USER        vdW + Hbond + desolv Energy     =  -13.30 kcal/mol
DOCKED: USER        Electrostatic Energy            =   +0.00 kcal/mol
DOCKED: USER    (2) Final Total Internal Energy     =   -0.97 kcal/mol
DOCKED: USER    (3) Torsional Free Energy           =   +2.09 kcal/mol
DOCKED: USER    (4) Unbound System's Energy  [=(2)] =   -0.97 kcal/mol
DOCKED: USER    
DOCKED: USER    
DOCKED: USER    NEWDPF move ligand.dum.pdbqt
DOCKED: USER    NEWDPF about 0.576000 -0.005000 0.140000
DOCKED: USER    NEWDPF tran0 37.043873 18.412261 122.160426
DOCKED: USER    NEWDPF quaternion0 0.327232 0.638693 0.684549 -0.127997
DOCKED: USER    NEWDPF axisangle0 0.329946 0.643990 0.690226 -165.292269
DOCKED: USER    NEWDPF quat0 0.329946 0.643990 0.690226 -165.292269
DOCKED: USER    NEWDPF dihe0 -13.86 -180.00 178.91 -164.17 116.76 -160.86 -156.02 
DOCKED: USER  keepresnum = 1 
DOCKED: USER  
DOCKED: REMARK  Name = 
DOCKED: REMARK  8 active torsions:
DOCKED: REMARK  status: ('A' for Active; 'I' for Inactive)
DOCKED: REMARK    1  A    between atoms: C_2  and  C_3
DOCKED: REMARK    2  A    between atoms: C_4  and  C_5
DOCKED: REMARK    3  A    between atoms: C_8  and  C_9
DOCKED: REMARK    4  A    between atoms: C_9  and  N_10
DOCKED: REMARK    5  A    between atoms: N_10  and  C_11
DOCKED: REMARK    6  A    between atoms: C_11  and  C_12
DOCKED: REMARK    7  A    between atoms: C_12  and  C_13
DOCKED: REMARK    8  A    between atoms: C_14  and  C_22
DOCKED: REMARK                            x       y       z     vdW  Elec       q    Type
DOCKED: REMARK                         _______ _______ _______ _____ _____    ______ ____
DOCKED: USER                              x       y       z     vdW  Elec       q    Type
DOCKED: USER                           _______ _______ _______ _____ _____    ______ ____
DOCKED: ROOT
DOCKED: ATOM      1  N   UNL     1      37.794  18.215 122.065 -0.09 -0.00    +0.000 N 
DOCKED: ATOM      2  H   UNL     1      37.959  18.842 122.853 +0.00 -0.00    +0.000 HD
DOCKED: ATOM      3  H   UNL     1      37.828  18.716 121.177 +0.00 -0.00    +0.000 HD
DOCKED: ENDROOT
DOCKED: BRANCH   1   4
DOCKED: ATOM      4  C   UNL     1      36.454  17.630 122.199 -0.21 -0.00    +0.000 C 
DOCKED: BRANCH   4   8
DOCKED: ATOM      5  C   UNL     1      36.726  13.357 122.807 -0.50 -0.00    +0.000 A 
DOCKED: ATOM      6  C   UNL     1      36.332  14.206 123.860 -0.44 -0.00    +0.000 A 
DOCKED: ATOM      7  C   UNL     1      36.256  15.589 123.663 -0.37 -0.00    +0.000 A 
DOCKED: ATOM      8  C   UNL     1      36.575  16.148 122.417 -0.26 -0.00    +0.000 A 
DOCKED: ATOM      9  C   UNL     1      36.936  15.302 121.358 -0.20 -0.00    +0.000 A 
DOCKED: ATOM     10  C   UNL     1      37.010  13.921 121.552 -0.30 -0.00    +0.000 A 
DOCKED: ATOM     11  CM  UNL     1      36.639  14.754 122.609 +0.00 -0.00    +0.000 AC
DOCKED: BRANCH   5  12
DOCKED: ATOM     12  C   UNL     1      36.747  11.025 121.926 -0.60 -0.00    +0.000 C 
DOCKED: ATOM     13  C   UNL     1      36.811  11.882 122.957 -0.66 -0.00    +0.000 C 
DOCKED: BRANCH  11  14
DOCKED: ATOM     14  O   UNL     1      36.813   8.842 121.046 -2.64 -0.00    +0.000 OA
DOCKED: ATOM     15  C   UNL     1      36.830   9.559 122.082 -0.66 -0.00    +0.000 C 
DOCKED: ATOM     16  N   UNL     1      36.901   8.926 123.366 -0.61 -0.00    +0.000 N 
DOCKED: ATOM     17  O   UNL     1      37.082   7.588 123.454 -2.60 -0.00    +0.000 OA
DOCKED: ATOM     18  H   UNL     1      36.819   9.466 124.185 -0.52 -0.00    +0.000 HD
DOCKED: ENDBRANCH  11  14
DOCKED: ENDBRANCH   5  12
DOCKED: ENDBRANCH   4   8
DOCKED: ENDBRANCH   1   4
DOCKED: BRANCH   1  18
DOCKED: ATOM     19  C   UNL     1      38.851  17.193 122.045 -0.16 -0.00    +0.000 C 
DOCKED: BRANCH  18  19
DOCKED: ATOM     20  C   UNL     1      39.260  16.740 123.456 -0.23 -0.00    +0.000 C 
DOCKED: BRANCH  19  20
DOCKED: ATOM     21  C   UNL     1      39.944  17.858 124.188 -0.24 -0.00    +0.000 A 
DOCKED: ATOM     22  C   UNL     1      41.311  18.141 124.218 -0.27 -0.00    +0.000 A 
DOCKED: ATOM     23  N   UNL     1      41.566  19.187 125.040 -0.19 -0.00    +0.000 N 
DOCKED: ATOM     24  C   UNL     1      40.376  19.555 125.546 -0.16 -0.00    +0.000 A 
DOCKED: ATOM     25  C   UNL     1      39.365  18.765 125.056 -0.18 -0.00    +0.000 A 
DOCKED: ATOM     26  C   UNL     1      38.040  18.940 125.456 -0.15 -0.00    +0.000 A 
DOCKED: ATOM     27  C   UNL     1      37.761  19.965 126.377 -0.10 -0.00    +0.000 A 
DOCKED: ATOM     28  C   UNL     1      38.801  20.781 126.876 -0.05 -0.00    +0.000 A 
DOCKED: ATOM     29  C   UNL     1      40.129  20.577 126.461 -0.07 -0.00    +0.000 A 
DOCKED: ATOM     30  C   UNL     1      42.369  17.416 123.449 -0.34 -0.00    +0.000 C 
DOCKED: ATOM     31  H   UNL     1      42.442  19.594 125.228 -0.52 -0.00    +0.000 HD
DOCKED: ATOM     32  CM  UNL     1      40.547  18.717 124.817 +0.00 -0.00    +0.000 AC
DOCKED: ATOM     33  CM  UNL     1      39.078  19.764 125.962 +0.00 -0.00    +0.000 AC
DOCKED: ENDBRANCH  19  20
DOCKED: ENDBRANCH  18  19
DOCKED: ENDBRANCH   1  18
DOCKED: TORSDOF 7DOCKED: TER
DOCKED: ENDMDL
________________________________________________________________________________


	BEGINNING GENETIC ALGORITHM DOCKING 23 of 100
Run: 23 Seed: 185657771 1385937523 [ Run 23 of 100 GA/GALS ]
Beginning LAMARCKIAN GENETIC ALGORITHM (LGA), with a maximum of 2500000 energy evaluations.

Final-Value: -15.662


	FINAL GENETIC ALGORITHM DOCKED STATE
	_______________________________________________


Detailed state:  trans 35.770 18.504 123.012 quatxyzw -0.604635 -0.587484 -0.045077 -0.535954 center 0.576 -0.005 0.140 ntor 7 -27.1259 -53.4617 169.4652 -158.3783 -42.1252 168.3825 -172.9690
State:	 35.770  18.504 123.012  -0.716 -0.696 -0.053 -115.183    -27.13  -53.46  169.47 -158.38  -42.13  168.38 -172.97

DOCKED: MODEL       23
DOCKED: USER    Run = 23
DOCKED: USER    DPF = ligand_dock.biased.dpf
DOCKED: USER  
DOCKED: USER    Estimated Free Energy of Binding    =  -11.65 kcal/mol  [=(1)+(2)+(3)-(4)]
DOCKED: USER    Estimated Inhibition Constant, Ki   =    2.89 nM (nanomolar)  [Temperature = 298.15 K]
DOCKED: USER    
DOCKED: USER    (1) Final Intermolecular Energy     =  -13.74 kcal/mol
DOCKED: USER        vdW + Hbond + desolv Energy     =  -13.74 kcal/mol
DOCKED: USER        Electrostatic Energy            =   +0.00 kcal/mol
DOCKED: USER    (2) Final Total Internal Energy     =   -1.92 kcal/mol
DOCKED: USER    (3) Torsional Free Energy           =   +2.09 kcal/mol
DOCKED: USER    (4) Unbound System's Energy  [=(2)] =   -1.92 kcal/mol
DOCKED: USER    
DOCKED: USER    
DOCKED: USER    NEWDPF move ligand.dum.pdbqt
DOCKED: USER    NEWDPF about 0.576000 -0.005000 0.140000
DOCKED: USER    NEWDPF tran0 35.769503 18.504438 123.011980
DOCKED: USER    NEWDPF quaternion0 -0.604635 -0.587484 -0.045077 -0.535954
DOCKED: USER    NEWDPF axisangle0 -0.716182 -0.695868 -0.053393 -115.182716
DOCKED: USER    NEWDPF quat0 -0.716182 -0.695868 -0.053393 -115.182716
DOCKED: USER    NEWDPF dihe0 -27.13 -53.46 169.47 -158.38 -42.13 168.38 -172.97 
DOCKED: USER  keepresnum = 1 
DOCKED: USER  
DOCKED: REMARK  Name = 
DOCKED: REMARK  8 active torsions:
DOCKED: REMARK  status: ('A' for Active; 'I' for Inactive)
DOCKED: REMARK    1  A    between atoms: C_2  and  C_3
DOCKED: REMARK    2  A    between atoms: C_4  and  C_5
DOCKED: REMARK    3  A    between atoms: C_8  and  C_9
DOCKED: REMARK    4  A    between atoms: C_9  and  N_10
DOCKED: REMARK    5  A    between atoms: N_10  and  C_11
DOCKED: REMARK    6  A    between atoms: C_11  and  C_12
DOCKED: REMARK    7  A    between atoms: C_12  and  C_13
DOCKED: REMARK    8  A    between atoms: C_14  and  C_22
DOCKED: REMARK                            x       y       z     vdW  Elec       q    Type
DOCKED: REMARK                         _______ _______ _______ _____ _____    ______ ____
DOCKED: USER                              x       y       z     vdW  Elec       q    Type
DOCKED: USER                           _______ _______ _______ _____ _____    ______ ____
DOCKED: ROOT
DOCKED: ATOM      1  N   UNL     1      35.469  18.282 122.326 -0.25 -0.00    +0.000 N 
DOCKED: ATOM      2  H   UNL     1      35.815  19.180 121.991 -0.01 -0.00    +0.000 HD
DOCKED: ATOM      3  H   UNL     1      34.522  18.361 122.699 -0.02 -0.00    +0.000 HD
DOCKED: ENDROOT
DOCKED: BRANCH   1   4
DOCKED: ATOM      4  C   UNL     1      36.340  17.815 123.412 -0.24 -0.00    +0.000 C 
DOCKED: BRANCH   4   8
DOCKED: ATOM      5  C   UNL     1      36.666  13.502 123.333 -0.52 -0.00    +0.000 A 
DOCKED: ATOM      6  C   UNL     1      37.793  14.311 123.082 -0.42 -0.00    +0.000 A 
DOCKED: ATOM      7  C   UNL     1      37.681  15.705 123.096 -0.30 -0.00    +0.000 A 
DOCKED: ATOM      8  C   UNL     1      36.446  16.316 123.358 -0.31 -0.00    +0.000 A 
DOCKED: ATOM      9  C   UNL     1      35.331  15.515 123.642 -0.45 -0.00    +0.000 A 
DOCKED: ATOM     10  C   UNL     1      35.441  14.122 123.629 -0.41 -0.00    +0.000 A 
DOCKED: ATOM     11  CM  UNL     1      36.559  14.912 123.357 +0.00 -0.00    +0.000 AC
DOCKED: BRANCH   5  12
DOCKED: ATOM     12  C   UNL     1      36.798  11.271 122.231 -0.62 -0.00    +0.000 C 
DOCKED: ATOM     13  C   UNL     1      36.731  12.020 123.343 -0.68 -0.00    +0.000 C 
DOCKED: BRANCH  11  14
DOCKED: ATOM     14  O   UNL     1      36.720   9.177 121.158 -2.63 -0.00    +0.000 OA
DOCKED: ATOM     15  C   UNL     1      36.860   9.795 122.247 -0.64 -0.00    +0.000 C 
DOCKED: ATOM     16  N   UNL     1      37.046   9.048 123.455 -0.58 -0.00    +0.000 N 
DOCKED: ATOM     17  O   UNL     1      37.200   7.704 123.405 -2.63 -0.00    +0.000 OA
DOCKED: ATOM     18  H   UNL     1      37.060   9.513 124.323 -0.53 -0.00    +0.000 HD
DOCKED: ENDBRANCH  11  14
DOCKED: ENDBRANCH   5  12
DOCKED: ENDBRANCH   4   8
DOCKED: ENDBRANCH   1   4
DOCKED: BRANCH   1  18
DOCKED: ATOM     19  C   UNL     1      35.428  17.340 121.197 -0.25 -0.00    +0.000 C 
DOCKED: BRANCH  18  19
DOCKED: ATOM     20  C   UNL     1      36.343  17.770 120.038 -0.15 -0.00    +0.000 C 
DOCKED: BRANCH  19  20
DOCKED: ATOM     21  C   UNL     1      37.156  16.604 119.553 -0.13 -0.00    +0.000 A 
DOCKED: ATOM     22  C   UNL     1      38.486  16.311 119.861 -0.12 -0.00    +0.000 A 
DOCKED: ATOM     23  N   UNL     1      38.903  15.215 119.183 -0.18 -0.00    +0.000 N 
DOCKED: ATOM     24  C   UNL     1      37.857  14.825 118.435 -0.22 -0.00    +0.000 A 
DOCKED: ATOM     25  C   UNL     1      36.777  15.650 118.628 -0.18 -0.00    +0.000 A 
DOCKED: ATOM     26  C   UNL     1      35.577  15.460 117.940 -0.15 -0.00    +0.000 A 
DOCKED: ATOM     27  C   UNL     1      35.500  14.382 117.040 -0.31 -0.00    +0.000 A 
DOCKED: ATOM     28  C   UNL     1      36.610  13.530 116.846 -0.31 -0.00    +0.000 A 
DOCKED: ATOM     29  C   UNL     1      37.809  13.750 117.548 -0.31 -0.00    +0.000 A 
DOCKED: ATOM     30  C   UNL     1      39.350  17.075 120.812 -0.11 -0.00    +0.000 C 
DOCKED: ATOM     31  H   UNL     1      39.791  14.792 119.230 -0.08 -0.00    +0.000 HD
DOCKED: ATOM     32  CM  UNL     1      37.870  15.705 119.134 +0.00 -0.00    +0.000 AC
DOCKED: ATOM     33  CM  UNL     1      36.688  14.599 117.739 +0.00 -0.00    +0.000 AC
DOCKED: ENDBRANCH  19  20
DOCKED: ENDBRANCH  18  19
DOCKED: ENDBRANCH   1  18
DOCKED: TORSDOF 7DOCKED: TER
DOCKED: ENDMDL
________________________________________________________________________________


	BEGINNING GENETIC ALGORITHM DOCKING 24 of 100
Run: 24 Seed: 1319809330 185080517 [ Run 24 of 100 GA/GALS ]
Beginning LAMARCKIAN GENETIC ALGORITHM (LGA), with a maximum of 2500000 energy evaluations.

Final-Value: -14.608


	FINAL GENETIC ALGORITHM DOCKED STATE
	_______________________________________________


Detailed state:  trans 37.911 17.103 122.366 quatxyzw 0.577684 0.203536 -0.028763 0.789954 center 0.576 -0.005 0.140 ntor 7 -24.0773 -96.7741 176.3423 20.2430 148.8094 145.8393 74.1547
State:	 37.911  17.103 122.366   0.942  0.332 -0.047 75.638    -24.08  -96.77  176.34   20.24  148.81  145.84   74.15

DOCKED: MODEL       24
DOCKED: USER    Run = 24
DOCKED: USER    DPF = ligand_dock.biased.dpf
DOCKED: USER  
DOCKED: USER    Estimated Free Energy of Binding    =  -10.64 kcal/mol  [=(1)+(2)+(3)-(4)]
DOCKED: USER    Estimated Inhibition Constant, Ki   =   15.86 nM (nanomolar)  [Temperature = 298.15 K]
DOCKED: USER    
DOCKED: USER    (1) Final Intermolecular Energy     =  -12.73 kcal/mol
DOCKED: USER        vdW + Hbond + desolv Energy     =  -12.73 kcal/mol
DOCKED: USER        Electrostatic Energy            =   +0.00 kcal/mol
DOCKED: USER    (2) Final Total Internal Energy     =   -1.88 kcal/mol
DOCKED: USER    (3) Torsional Free Energy           =   +2.09 kcal/mol
DOCKED: USER    (4) Unbound System's Energy  [=(2)] =   -1.88 kcal/mol
DOCKED: USER    
DOCKED: USER    
DOCKED: USER    NEWDPF move ligand.dum.pdbqt
DOCKED: USER    NEWDPF about 0.576000 -0.005000 0.140000
DOCKED: USER    NEWDPF tran0 37.910951 17.102747 122.365785
DOCKED: USER    NEWDPF quaternion0 0.577684 0.203536 -0.028763 0.789954
DOCKED: USER    NEWDPF axisangle0 0.942133 0.331942 -0.046909 75.637600
DOCKED: USER    NEWDPF quat0 0.942133 0.331942 -0.046909 75.637600
DOCKED: USER    NEWDPF dihe0 -24.08 -96.77 176.34 20.24 148.81 145.84 74.15 
DOCKED: USER  keepresnum = 1 
DOCKED: USER  
DOCKED: REMARK  Name = 
DOCKED: REMARK  8 active torsions:
DOCKED: REMARK  status: ('A' for Active; 'I' for Inactive)
DOCKED: REMARK    1  A    between atoms: C_2  and  C_3
DOCKED: REMARK    2  A    between atoms: C_4  and  C_5
DOCKED: REMARK    3  A    between atoms: C_8  and  C_9
DOCKED: REMARK    4  A    between atoms: C_9  and  N_10
DOCKED: REMARK    5  A    between atoms: N_10  and  C_11
DOCKED: REMARK    6  A    between atoms: C_11  and  C_12
DOCKED: REMARK    7  A    between atoms: C_12  and  C_13
DOCKED: REMARK    8  A    between atoms: C_14  and  C_22
DOCKED: REMARK                            x       y       z     vdW  Elec       q    Type
DOCKED: REMARK                         _______ _______ _______ _____ _____    ______ ____
DOCKED: USER                              x       y       z     vdW  Elec       q    Type
DOCKED: USER                           _______ _______ _______ _____ _____    ______ ____
DOCKED: ROOT
DOCKED: ATOM      1  N   UNL     1      37.176  17.220 122.126 -0.15 -0.00    +0.000 N 
DOCKED: ATOM      2  H   UNL     1      37.538  18.099 121.758 +0.01 -0.00    +0.000 HD
DOCKED: ATOM      3  H   UNL     1      36.862  17.320 123.092 +0.00 -0.00    +0.000 HD
DOCKED: ENDROOT
DOCKED: BRANCH   1   4
DOCKED: ATOM      4  C   UNL     1      38.253  16.221 122.107 -0.24 -0.00    +0.000 C 
DOCKED: BRANCH   4   8
DOCKED: ATOM      5  C   UNL     1      36.519  12.324 122.823 -0.56 -0.00    +0.000 A 
DOCKED: ATOM      6  C   UNL     1      36.522  13.304 123.836 -0.47 -0.00    +0.000 A 
DOCKED: ATOM      7  C   UNL     1      37.094  14.559 123.605 -0.32 -0.00    +0.000 A 
DOCKED: ATOM      8  C   UNL     1      37.675  14.857 122.364 -0.35 -0.00    +0.000 A 
DOCKED: ATOM      9  C   UNL     1      37.643  13.896 121.343 -0.37 -0.00    +0.000 A 
DOCKED: ATOM     10  C   UNL     1      37.071  12.643 121.572 -0.47 -0.00    +0.000 A 
DOCKED: ATOM     11  CM  UNL     1      37.087  13.597 122.590 +0.00 -0.00    +0.000 AC
DOCKED: BRANCH   5  12
DOCKED: ATOM     12  C   UNL     1      36.606   9.835 122.914 -0.68 -0.00    +0.000 C 
DOCKED: ATOM     13  C   UNL     1      35.915  10.981 123.010 -0.69 -0.00    +0.000 C 
DOCKED: BRANCH  11  14
DOCKED: ATOM     14  O   UNL     1      36.698   7.483 122.849 -2.04 -0.00    +0.000 OA
DOCKED: ATOM     15  C   UNL     1      35.999   8.501 123.099 -0.72 -0.00    +0.000 C 
DOCKED: ATOM     16  N   UNL     1      34.641   8.328 123.524 -0.59 -0.00    +0.000 N 
DOCKED: ATOM     17  O   UNL     1      34.163   7.088 123.779 -0.79 -0.00    +0.000 OA
DOCKED: ATOM     18  H   UNL     1      34.056   9.113 123.629 -0.53 -0.00    +0.000 HD
DOCKED: ENDBRANCH  11  14
DOCKED: ENDBRANCH   5  12
DOCKED: ENDBRANCH   4   8
DOCKED: ENDBRANCH   1   4
DOCKED: BRANCH   1  18
DOCKED: ATOM     19  C   UNL     1      36.019  16.809 121.317 -0.22 -0.00    +0.000 C 
DOCKED: BRANCH  18  19
DOCKED: ATOM     20  C   UNL     1      34.687  17.315 121.895 -0.33 -0.00    +0.000 C 
DOCKED: BRANCH  19  20
DOCKED: ATOM     21  C   UNL     1      34.730  17.307 123.396 -0.37 -0.00    +0.000 A 
DOCKED: ATOM     22  C   UNL     1      34.306  16.288 124.251 -0.47 -0.00    +0.000 A 
DOCKED: ATOM     23  N   UNL     1      34.437  16.665 125.545 -0.43 -0.00    +0.000 N 
DOCKED: ATOM     24  C   UNL     1      34.920  17.918 125.517 -0.29 -0.00    +0.000 A 
DOCKED: ATOM     25  C   UNL     1      35.105  18.347 124.226 -0.27 -0.00    +0.000 A 
DOCKED: ATOM     26  C   UNL     1      35.577  19.629 123.940 -0.15 -0.00    +0.000 A 
DOCKED: ATOM     27  C   UNL     1      35.871  20.478 125.022 -0.14 -0.00    +0.000 A 
DOCKED: ATOM     28  C   UNL     1      35.685  20.034 126.350 -0.12 -0.00    +0.000 A 
DOCKED: ATOM     29  C   UNL     1      35.201  18.739 126.608 -0.18 -0.00    +0.000 A 
DOCKED: ATOM     30  C   UNL     1      33.787  14.952 123.826 -0.31 -0.00    +0.000 C 
DOCKED: ATOM     31  H   UNL     1      34.221  16.129 126.343 -0.04 -0.00    +0.000 HD
DOCKED: ATOM     32  CM  UNL     1      34.691  17.284 124.618 -0.35 -0.00    +0.000 AC
DOCKED: ATOM     33  CM  UNL     1      35.394  19.191 125.277 -0.10 -0.00    +0.000 AC
DOCKED: ENDBRANCH  19  20
DOCKED: ENDBRANCH  18  19
DOCKED: ENDBRANCH   1  18
DOCKED: TORSDOF 7DOCKED: TER
DOCKED: ENDMDL
________________________________________________________________________________


	BEGINNING GENETIC ALGORITHM DOCKING 25 of 100
Run: 25 Seed: 965659946 1611476307 [ Run 25 of 100 GA/GALS ]
Beginning LAMARCKIAN GENETIC ALGORITHM (LGA), with a maximum of 2500000 energy evaluations.

Final-Value: -14.789


	FINAL GENETIC ALGORITHM DOCKED STATE
	_______________________________________________


Detailed state:  trans 35.177 17.439 122.701 quatxyzw 0.317992 -0.755345 -0.167437 -0.547996 center 0.576 -0.005 0.140 ntor 7 -42.1820 -3.4706 39.0626 179.7145 -65.7273 49.6874 31.0778
State:	 35.177  17.439 122.701   0.380 -0.903 -0.200 -113.541    -42.18   -3.47   39.06  179.71  -65.73   49.69   31.08

DOCKED: MODEL       25
DOCKED: USER    Run = 25
DOCKED: USER    DPF = ligand_dock.biased.dpf
DOCKED: USER  
DOCKED: USER    Estimated Free Energy of Binding    =  -11.63 kcal/mol  [=(1)+(2)+(3)-(4)]
DOCKED: USER    Estimated Inhibition Constant, Ki   =    3.00 nM (nanomolar)  [Temperature = 298.15 K]
DOCKED: USER    
DOCKED: USER    (1) Final Intermolecular Energy     =  -13.71 kcal/mol
DOCKED: USER        vdW + Hbond + desolv Energy     =  -13.71 kcal/mol
DOCKED: USER        Electrostatic Energy            =   +0.00 kcal/mol
DOCKED: USER    (2) Final Total Internal Energy     =   -1.07 kcal/mol
DOCKED: USER    (3) Torsional Free Energy           =   +2.09 kcal/mol
DOCKED: USER    (4) Unbound System's Energy  [=(2)] =   -1.07 kcal/mol
DOCKED: USER    
DOCKED: USER    
DOCKED: USER    NEWDPF move ligand.dum.pdbqt
DOCKED: USER    NEWDPF about 0.576000 -0.005000 0.140000
DOCKED: USER    NEWDPF tran0 35.177004 17.438980 122.701416
DOCKED: USER    NEWDPF quaternion0 0.317992 -0.755345 -0.167437 -0.547996
DOCKED: USER    NEWDPF axisangle0 0.380155 -0.903003 -0.200168 -113.540717
DOCKED: USER    NEWDPF quat0 0.380155 -0.903003 -0.200168 -113.540717
DOCKED: USER    NEWDPF dihe0 -42.18 -3.47 39.06 179.71 -65.73 49.69 31.08 
DOCKED: USER  keepresnum = 1 
DOCKED: USER  
DOCKED: REMARK  Name = 
DOCKED: REMARK  8 active torsions:
DOCKED: REMARK  status: ('A' for Active; 'I' for Inactive)
DOCKED: REMARK    1  A    between atoms: C_2  and  C_3
DOCKED: REMARK    2  A    between atoms: C_4  and  C_5
DOCKED: REMARK    3  A    between atoms: C_8  and  C_9
DOCKED: REMARK    4  A    between atoms: C_9  and  N_10
DOCKED: REMARK    5  A    between atoms: N_10  and  C_11
DOCKED: REMARK    6  A    between atoms: C_11  and  C_12
DOCKED: REMARK    7  A    between atoms: C_12  and  C_13
DOCKED: REMARK    8  A    between atoms: C_14  and  C_22
DOCKED: REMARK                            x       y       z     vdW  Elec       q    Type
DOCKED: REMARK                         _______ _______ _______ _____ _____    ______ ____
DOCKED: USER                              x       y       z     vdW  Elec       q    Type
DOCKED: USER                           _______ _______ _______ _____ _____    ______ ____
DOCKED: ROOT
DOCKED: ATOM      1  N   UNL     1      34.995  17.970 122.158 -0.30 -0.00    +0.000 N 
DOCKED: ATOM      2  H   UNL     1      34.160  18.121 122.723 -0.02 -0.00    +0.000 HD
DOCKED: ATOM      3  H   UNL     1      34.850  17.234 121.467 -0.02 -0.00    +0.000 HD
DOCKED: ENDROOT
DOCKED: BRANCH   1   4
DOCKED: ATOM      4  C   UNL     1      36.091  17.548 123.039 -0.27 -0.00    +0.000 C 
DOCKED: BRANCH   4   8
DOCKED: ATOM      5  C   UNL     1      36.413  13.235 123.091 -0.52 -0.00    +0.000 A 
DOCKED: ATOM      6  C   UNL     1      37.172  13.999 122.182 -0.40 -0.00    +0.000 A 
DOCKED: ATOM      7  C   UNL     1      37.057  15.392 122.160 -0.28 -0.00    +0.000 A 
DOCKED: ATOM      8  C   UNL     1      36.182  16.047 123.039 -0.32 -0.00    +0.000 A 
DOCKED: ATOM      9  C   UNL     1      35.450  15.292 123.967 -0.47 -0.00    +0.000 A 
DOCKED: ATOM     10  C   UNL     1      35.565  13.900 123.992 -0.41 -0.00    +0.000 A 
DOCKED: ATOM     11  CM  UNL     1      36.306  14.644 123.072 +0.00 -0.00    +0.000 AC
DOCKED: BRANCH   5  12
DOCKED: ATOM     12  C   UNL     1      36.872  10.979 122.134 -0.59 -0.00    +0.000 C 
DOCKED: ATOM     13  C   UNL     1      36.505  11.755 123.166 -0.69 -0.00    +0.000 C 
DOCKED: BRANCH  11  14
DOCKED: ATOM     14  O   UNL     1      36.828   8.839 121.154 -2.64 -0.00    +0.000 OA
DOCKED: ATOM     15  C   UNL     1      36.960   9.507 122.214 -0.64 -0.00    +0.000 C 
DOCKED: ATOM     16  N   UNL     1      37.162   8.817 123.454 -0.59 -0.00    +0.000 N 
DOCKED: ATOM     17  O   UNL     1      37.341   7.475 123.461 -2.45 -0.00    +0.000 OA
DOCKED: ATOM     18  H   UNL     1      37.171   9.320 124.300 -0.56 -0.00    +0.000 HD
DOCKED: ENDBRANCH  11  14
DOCKED: ENDBRANCH   5  12
DOCKED: ENDBRANCH   4   8
DOCKED: ENDBRANCH   1   4
DOCKED: BRANCH   1  18
DOCKED: ATOM     19  C   UNL     1      35.307  19.211 121.433 -0.06 -0.00    +0.000 C 
DOCKED: BRANCH  18  19
DOCKED: ATOM     20  C   UNL     1      35.665  18.959 119.959 -0.18 -0.00    +0.000 C 
DOCKED: BRANCH  19  20
DOCKED: ATOM     21  C   UNL     1      34.576  19.471 119.061 -0.17 -0.00    +0.000 A 
DOCKED: ATOM     22  C   UNL     1      34.714  20.309 117.953 -0.11 -0.00    +0.000 A 
DOCKED: ATOM     23  N   UNL     1      33.503  20.614 117.430 -0.11 -0.00    +0.000 N 
DOCKED: ATOM     24  C   UNL     1      32.600  19.995 118.208 -0.19 -0.00    +0.000 A 
DOCKED: ATOM     25  C   UNL     1      33.214  19.295 119.217 -0.26 -0.00    +0.000 A 
DOCKED: ATOM     26  C   UNL     1      32.480  18.587 120.170 -0.40 -0.00    +0.000 A 
DOCKED: ATOM     27  C   UNL     1      31.078  18.604 120.065 -0.43 -0.00    +0.000 A 
DOCKED: ATOM     28  C   UNL     1      30.447  19.320 119.024 -0.37 -0.00    +0.000 A 
DOCKED: ATOM     29  C   UNL     1      31.212  20.030 118.081 -0.21 -0.00    +0.000 A 
DOCKED: ATOM     30  C   UNL     1      36.008  20.805 117.391 -0.05 -0.00    +0.000 C 
DOCKED: ATOM     31  H   UNL     1      33.322  21.175 116.641 +0.00 -0.00    +0.000 HD
DOCKED: ATOM     32  CM  UNL     1      33.715  19.959 118.343 +0.00 -0.00    +0.000 AC
DOCKED: ATOM     33  CM  UNL     1      31.838  19.305 119.128 +0.00 -0.00    +0.000 AC
DOCKED: ENDBRANCH  19  20
DOCKED: ENDBRANCH  18  19
DOCKED: ENDBRANCH   1  18
DOCKED: TORSDOF 7DOCKED: TER
DOCKED: ENDMDL
________________________________________________________________________________


	BEGINNING GENETIC ALGORITHM DOCKING 26 of 100
Run: 26 Seed: 367140327 31882559 [ Run 26 of 100 GA/GALS ]
Beginning LAMARCKIAN GENETIC ALGORITHM (LGA), with a maximum of 2500000 energy evaluations.

Final-Value: -14.656


	FINAL GENETIC ALGORITHM DOCKED STATE
	_______________________________________________


Detailed state:  trans 37.029 17.615 122.806 quatxyzw -0.874171 0.369131 -0.259313 -0.179788 center 0.576 -0.005 0.140 ntor 7 -18.2668 -52.3461 169.8098 143.7363 173.9922 -48.5140 137.8639
State:	 37.029  17.615 122.806  -0.889  0.375 -0.264 -159.285    -18.27  -52.35  169.81  143.74  173.99  -48.51  137.86

DOCKED: MODEL       26
DOCKED: USER    Run = 26
DOCKED: USER    DPF = ligand_dock.biased.dpf
DOCKED: USER  
DOCKED: USER    Estimated Free Energy of Binding    =  -10.50 kcal/mol  [=(1)+(2)+(3)-(4)]
DOCKED: USER    Estimated Inhibition Constant, Ki   =   20.09 nM (nanomolar)  [Temperature = 298.15 K]
DOCKED: USER    
DOCKED: USER    (1) Final Intermolecular Energy     =  -12.59 kcal/mol
DOCKED: USER        vdW + Hbond + desolv Energy     =  -12.59 kcal/mol
DOCKED: USER        Electrostatic Energy            =   +0.00 kcal/mol
DOCKED: USER    (2) Final Total Internal Energy     =   -2.07 kcal/mol
DOCKED: USER    (3) Torsional Free Energy           =   +2.09 kcal/mol
DOCKED: USER    (4) Unbound System's Energy  [=(2)] =   -2.07 kcal/mol
DOCKED: USER    
DOCKED: USER    
DOCKED: USER    NEWDPF move ligand.dum.pdbqt
DOCKED: USER    NEWDPF about 0.576000 -0.005000 0.140000
DOCKED: USER    NEWDPF tran0 37.028985 17.614994 122.805518
DOCKED: USER    NEWDPF quaternion0 -0.874171 0.369131 -0.259313 -0.179788
DOCKED: USER    NEWDPF axisangle0 -0.888651 0.375246 -0.263608 -159.285226
DOCKED: USER    NEWDPF quat0 -0.888651 0.375246 -0.263608 -159.285226
DOCKED: USER    NEWDPF dihe0 -18.27 -52.35 169.81 143.74 173.99 -48.51 137.86 
DOCKED: USER  keepresnum = 1 
DOCKED: USER  
DOCKED: REMARK  Name = 
DOCKED: REMARK  8 active torsions:
DOCKED: REMARK  status: ('A' for Active; 'I' for Inactive)
DOCKED: REMARK    1  A    between atoms: C_2  and  C_3
DOCKED: REMARK    2  A    between atoms: C_4  and  C_5
DOCKED: REMARK    3  A    between atoms: C_8  and  C_9
DOCKED: REMARK    4  A    between atoms: C_9  and  N_10
DOCKED: REMARK    5  A    between atoms: N_10  and  C_11
DOCKED: REMARK    6  A    between atoms: C_11  and  C_12
DOCKED: REMARK    7  A    between atoms: C_12  and  C_13
DOCKED: REMARK    8  A    between atoms: C_14  and  C_22
DOCKED: REMARK                            x       y       z     vdW  Elec       q    Type
DOCKED: REMARK                         _______ _______ _______ _____ _____    ______ ____
DOCKED: USER                              x       y       z     vdW  Elec       q    Type
DOCKED: USER                           _______ _______ _______ _____ _____    ______ ____
DOCKED: ROOT
DOCKED: ATOM      1  N   UNL     1      36.721  18.096 122.272 -0.14 -0.00    +0.000 N 
DOCKED: ATOM      2  H   UNL     1      36.950  17.354 121.611 +0.00 -0.00    +0.000 HD
DOCKED: ATOM      3  H   UNL     1      37.499  18.746 122.388 +0.00 -0.00    +0.000 HD
DOCKED: ENDROOT
DOCKED: BRANCH   1   4
DOCKED: ATOM      4  C   UNL     1      36.443  17.493 123.581 -0.26 -0.00    +0.000 C 
DOCKED: BRANCH   4   8
DOCKED: ATOM      5  C   UNL     1      36.738  13.185 123.343 -0.54 -0.00    +0.000 A 
DOCKED: ATOM      6  C   UNL     1      37.824  13.999 122.964 -0.44 -0.00    +0.000 A 
DOCKED: ATOM      7  C   UNL     1      37.721  15.392 123.031 -0.33 -0.00    +0.000 A 
DOCKED: ATOM      8  C   UNL     1      36.535  15.996 123.473 -0.33 -0.00    +0.000 A 
DOCKED: ATOM      9  C   UNL     1      35.464  15.188 123.882 -0.47 -0.00    +0.000 A 
DOCKED: ATOM     10  C   UNL     1      35.566  13.797 123.817 -0.46 -0.00    +0.000 A 
DOCKED: ATOM     11  CM  UNL     1      36.641  14.593 123.419 +0.00 -0.00    +0.000 AC
DOCKED: BRANCH   5  12
DOCKED: ATOM     12  C   UNL     1      36.733  10.985 122.170 -0.63 -0.00    +0.000 C 
DOCKED: ATOM     13  C   UNL     1      36.797  11.702 123.303 -0.69 -0.00    +0.000 C 
DOCKED: BRANCH  11  14
DOCKED: ATOM     14  O   UNL     1      36.691   8.929 121.023 -2.61 -0.00    +0.000 OA
DOCKED: ATOM     15  C   UNL     1      36.790   9.510 122.137 -0.68 -0.00    +0.000 C 
DOCKED: ATOM     16  N   UNL     1      36.926   8.720 123.326 -0.65 -0.00    +0.000 N 
DOCKED: ATOM     17  O   UNL     1      37.079   7.379 123.235 -2.38 -0.00    +0.000 OA
DOCKED: ATOM     18  H   UNL     1      36.908   9.155 124.209 -0.54 -0.00    +0.000 HD
DOCKED: ENDBRANCH  11  14
DOCKED: ENDBRANCH   5  12
DOCKED: ENDBRANCH   4   8
DOCKED: ENDBRANCH   1   4
DOCKED: BRANCH   1  18
DOCKED: ATOM     19  C   UNL     1      35.575  18.856 121.751 -0.23 -0.00    +0.000 C 
DOCKED: BRANCH  18  19
DOCKED: ATOM     20  C   UNL     1      35.507  18.842 120.215 -0.21 -0.00    +0.000 C 
DOCKED: BRANCH  19  20
DOCKED: ATOM     21  C   UNL     1      36.769  18.265 119.641 -0.09 -0.00    +0.000 A 
DOCKED: ATOM     22  C   UNL     1      37.858  18.963 119.114 -0.03 -0.00    +0.000 A 
DOCKED: ATOM     23  N   UNL     1      38.785  18.105 118.626 -0.03 -0.00    +0.000 N 
DOCKED: ATOM     24  C   UNL     1      38.284  16.873 118.819 -0.08 -0.00    +0.000 A 
DOCKED: ATOM     25  C   UNL     1      37.055  16.930 119.428 -0.11 -0.00    +0.000 A 
DOCKED: ATOM     26  C   UNL     1      36.324  15.775 119.712 -0.05 -0.00    +0.000 A 
DOCKED: ATOM     27  C   UNL     1      36.890  14.536 119.362 -0.24 -0.00    +0.000 A 
DOCKED: ATOM     28  C   UNL     1      38.157  14.479 118.740 -0.19 -0.00    +0.000 A 
DOCKED: ATOM     29  C   UNL     1      38.868  15.659 118.460 -0.14 -0.00    +0.000 A 
DOCKED: ATOM     30  C   UNL     1      38.012  20.450 119.091 -0.03 -0.00    +0.000 C 
DOCKED: ATOM     31  H   UNL     1      39.648  18.337 118.213 +0.00 -0.00    +0.000 HD
DOCKED: ATOM     32  CM  UNL     1      37.783  17.836 119.110 +0.00 -0.00    +0.000 AC
DOCKED: ATOM     33  CM  UNL     1      37.596  15.708 119.087 +0.00 -0.00    +0.000 AC
DOCKED: ENDBRANCH  19  20
DOCKED: ENDBRANCH  18  19
DOCKED: ENDBRANCH   1  18
DOCKED: TORSDOF 7DOCKED: TER
DOCKED: ENDMDL
________________________________________________________________________________


	BEGINNING GENETIC ALGORITHM DOCKING 27 of 100
Run: 27 Seed: 732568141 433547173 [ Run 27 of 100 GA/GALS ]
Beginning LAMARCKIAN GENETIC ALGORITHM (LGA), with a maximum of 2500000 energy evaluations.

Final-Value: -14.897


	FINAL GENETIC ALGORITHM DOCKED STATE
	_______________________________________________


Detailed state:  trans 35.726 17.524 122.846 quatxyzw -0.134080 0.832667 0.120095 0.523703 center 0.576 -0.005 0.140 ntor 7 -30.4487 124.1657 -51.3668 25.4910 -85.2827 70.8863 -80.2036
State:	 35.726  17.524 122.846  -0.157  0.977  0.141 116.838    -30.45  124.17  -51.37   25.49  -85.28   70.89  -80.20

DOCKED: MODEL       27
DOCKED: USER    Run = 27
DOCKED: USER    DPF = ligand_dock.biased.dpf
DOCKED: USER  
DOCKED: USER    Estimated Free Energy of Binding    =  -10.98 kcal/mol  [=(1)+(2)+(3)-(4)]
DOCKED: USER    Estimated Inhibition Constant, Ki   =    9.00 nM (nanomolar)  [Temperature = 298.15 K]
DOCKED: USER    
DOCKED: USER    (1) Final Intermolecular Energy     =  -13.06 kcal/mol
DOCKED: USER        vdW + Hbond + desolv Energy     =  -13.06 kcal/mol
DOCKED: USER        Electrostatic Energy            =   +0.00 kcal/mol
DOCKED: USER    (2) Final Total Internal Energy     =   -1.83 kcal/mol
DOCKED: USER    (3) Torsional Free Energy           =   +2.09 kcal/mol
DOCKED: USER    (4) Unbound System's Energy  [=(2)] =   -1.83 kcal/mol
DOCKED: USER    
DOCKED: USER    
DOCKED: USER    NEWDPF move ligand.dum.pdbqt
DOCKED: USER    NEWDPF about 0.576000 -0.005000 0.140000
DOCKED: USER    NEWDPF tran0 35.726271 17.524167 122.845741
DOCKED: USER    NEWDPF quaternion0 -0.134080 0.832667 0.120095 0.523703
DOCKED: USER    NEWDPF axisangle0 -0.157389 0.977423 0.140972 116.838083
DOCKED: USER    NEWDPF quat0 -0.157389 0.977423 0.140972 116.838083
DOCKED: USER    NEWDPF dihe0 -30.45 124.17 -51.37 25.49 -85.28 70.89 -80.20 
DOCKED: USER  keepresnum = 1 
DOCKED: USER  
DOCKED: REMARK  Name = 
DOCKED: REMARK  8 active torsions:
DOCKED: REMARK  status: ('A' for Active; 'I' for Inactive)
DOCKED: REMARK    1  A    between atoms: C_2  and  C_3
DOCKED: REMARK    2  A    between atoms: C_4  and  C_5
DOCKED: REMARK    3  A    between atoms: C_8  and  C_9
DOCKED: REMARK    4  A    between atoms: C_9  and  N_10
DOCKED: REMARK    5  A    between atoms: N_10  and  C_11
DOCKED: REMARK    6  A    between atoms: C_11  and  C_12
DOCKED: REMARK    7  A    between atoms: C_12  and  C_13
DOCKED: REMARK    8  A    between atoms: C_14  and  C_22
DOCKED: REMARK                            x       y       z     vdW  Elec       q    Type
DOCKED: REMARK                         _______ _______ _______ _____ _____    ______ ____
DOCKED: USER                              x       y       z     vdW  Elec       q    Type
DOCKED: USER                           _______ _______ _______ _____ _____    ______ ____
DOCKED: ROOT
DOCKED: ATOM      1  N   UNL     1      35.732  17.903 122.162 -0.23 -0.00    +0.000 N 
DOCKED: ATOM      2  H   UNL     1      34.951  18.427 122.555 -0.01 -0.00    +0.000 HD
DOCKED: ATOM      3  H   UNL     1      35.413  17.063 121.678 -0.01 -0.00    +0.000 HD
DOCKED: ENDROOT
DOCKED: BRANCH   1   4
DOCKED: ATOM      4  C   UNL     1      36.615  17.480 123.256 -0.24 -0.00    +0.000 C 
DOCKED: BRANCH   4   8
DOCKED: ATOM      5  C   UNL     1      36.690  13.157 123.367 -0.54 -0.00    +0.000 A 
DOCKED: ATOM      6  C   UNL     1      35.485  13.858 123.574 -0.38 -0.00    +0.000 A 
DOCKED: ATOM      7  C   UNL     1      35.467  15.256 123.550 -0.45 -0.00    +0.000 A 
DOCKED: ATOM      8  C   UNL     1      36.647  15.978 123.322 -0.32 -0.00    +0.000 A 
DOCKED: ATOM      9  C   UNL     1      37.841  15.283 123.081 -0.34 -0.00    +0.000 A 
DOCKED: ATOM     10  C   UNL     1      37.861  13.887 123.104 -0.45 -0.00    +0.000 A 
DOCKED: ATOM     11  CM  UNL     1      36.666  14.570 123.333 +0.00 -0.00    +0.000 AC
DOCKED: BRANCH   5  12
DOCKED: ATOM     12  C   UNL     1      36.826  10.930 122.255 -0.61 -0.00    +0.000 C 
DOCKED: ATOM     13  C   UNL     1      36.764  11.675 123.370 -0.69 -0.00    +0.000 C 
DOCKED: BRANCH  11  14
DOCKED: ATOM     14  O   UNL     1      36.689   8.836 121.187 -2.61 -0.00    +0.000 OA
DOCKED: ATOM     15  C   UNL     1      36.898   9.455 122.265 -0.66 -0.00    +0.000 C 
DOCKED: ATOM     16  N   UNL     1      37.169   8.708 123.457 -0.61 -0.00    +0.000 N 
DOCKED: ATOM     17  O   UNL     1      37.329   7.365 123.395 -2.34 -0.00    +0.000 OA
DOCKED: ATOM     18  H   UNL     1      37.239   9.172 124.322 -0.57 -0.00    +0.000 HD
DOCKED: ENDBRANCH  11  14
DOCKED: ENDBRANCH   5  12
DOCKED: ENDBRANCH   4   8
DOCKED: ENDBRANCH   1   4
DOCKED: BRANCH   1  18
DOCKED: ATOM     19  C   UNL     1      36.425  18.752 121.181 -0.17 -0.00    +0.000 C 
DOCKED: BRANCH  18  19
DOCKED: ATOM     20  C   UNL     1      37.846  19.132 121.629 -0.08 -0.00    +0.000 C 
DOCKED: BRANCH  19  20
DOCKED: ATOM     21  C   UNL     1      38.838  18.117 121.138 -0.05 -0.00    +0.000 A 
DOCKED: ATOM     22  C   UNL     1      38.848  17.470 119.901 -0.06 -0.00    +0.000 A 
DOCKED: ATOM     23  N   UNL     1      39.858  16.570 119.841 -0.12 -0.00    +0.000 N 
DOCKED: ATOM     24  C   UNL     1      40.473  16.626 121.035 -0.15 -0.00    +0.000 A 
DOCKED: ATOM     25  C   UNL     1      39.877  17.552 121.854 -0.11 -0.00    +0.000 A 
DOCKED: ATOM     26  C   UNL     1      40.325  17.774 123.157 -0.19 -0.00    +0.000 A 
DOCKED: ATOM     27  C   UNL     1      41.423  17.022 123.611 -0.30 -0.00    +0.000 A 
DOCKED: ATOM     28  C   UNL     1      42.040  16.074 122.765 -0.42 -0.00    +0.000 A 
DOCKED: ATOM     29  C   UNL     1      41.562  15.866 121.459 -0.28 -0.00    +0.000 A 
DOCKED: ATOM     30  C   UNL     1      37.898  17.725 118.776 -0.05 -0.00    +0.000 C 
DOCKED: ATOM     31  H   UNL     1      40.093  15.992 119.079 -0.02 -0.00    +0.000 HD
DOCKED: ATOM     32  CM  UNL     1      39.588  17.245 120.724 +0.00 -0.00    +0.000 AC
DOCKED: ATOM     33  CM  UNL     1      40.950  16.819 122.314 +0.00 -0.00    +0.000 AC
DOCKED: ENDBRANCH  19  20
DOCKED: ENDBRANCH  18  19
DOCKED: ENDBRANCH   1  18
DOCKED: TORSDOF 7DOCKED: TER
DOCKED: ENDMDL
________________________________________________________________________________


	BEGINNING GENETIC ALGORITHM DOCKING 28 of 100
Run: 28 Seed: 1707183070 539994281 [ Run 28 of 100 GA/GALS ]
Beginning LAMARCKIAN GENETIC ALGORITHM (LGA), with a maximum of 2500000 energy evaluations.

Final-Value: -15.031


	FINAL GENETIC ALGORITHM DOCKED STATE
	_______________________________________________


Detailed state:  trans 37.955 18.185 122.339 quatxyzw 0.056896 -0.768437 -0.247218 0.587495 center 0.576 -0.005 0.140 ntor 7 -4.4854 -51.3300 26.7943 30.8229 158.6415 115.6165 108.4769
State:	 37.955  18.185 122.339   0.070 -0.950 -0.305 108.041     -4.49  -51.33   26.79   30.82  158.64  115.62  108.48

DOCKED: MODEL       28
DOCKED: USER    Run = 28
DOCKED: USER    DPF = ligand_dock.biased.dpf
DOCKED: USER  
DOCKED: USER    Estimated Free Energy of Binding    =  -11.11 kcal/mol  [=(1)+(2)+(3)-(4)]
DOCKED: USER    Estimated Inhibition Constant, Ki   =    7.21 nM (nanomolar)  [Temperature = 298.15 K]
DOCKED: USER    
DOCKED: USER    (1) Final Intermolecular Energy     =  -13.20 kcal/mol
DOCKED: USER        vdW + Hbond + desolv Energy     =  -13.20 kcal/mol
DOCKED: USER        Electrostatic Energy            =   +0.00 kcal/mol
DOCKED: USER    (2) Final Total Internal Energy     =   -1.84 kcal/mol
DOCKED: USER    (3) Torsional Free Energy           =   +2.09 kcal/mol
DOCKED: USER    (4) Unbound System's Energy  [=(2)] =   -1.84 kcal/mol
DOCKED: USER    
DOCKED: USER    
DOCKED: USER    NEWDPF move ligand.dum.pdbqt
DOCKED: USER    NEWDPF about 0.576000 -0.005000 0.140000
DOCKED: USER    NEWDPF tran0 37.955472 18.185125 122.338994
DOCKED: USER    NEWDPF quaternion0 0.056896 -0.768437 -0.247218 0.587495
DOCKED: USER    NEWDPF axisangle0 0.070309 -0.949593 -0.305499 108.041112
DOCKED: USER    NEWDPF quat0 0.070309 -0.949593 -0.305499 108.041112
DOCKED: USER    NEWDPF dihe0 -4.49 -51.33 26.79 30.82 158.64 115.62 108.48 
DOCKED: USER  keepresnum = 1 
DOCKED: USER  
DOCKED: REMARK  Name = 
DOCKED: REMARK  8 active torsions:
DOCKED: REMARK  status: ('A' for Active; 'I' for Inactive)
DOCKED: REMARK    1  A    between atoms: C_2  and  C_3
DOCKED: REMARK    2  A    between atoms: C_4  and  C_5
DOCKED: REMARK    3  A    between atoms: C_8  and  C_9
DOCKED: REMARK    4  A    between atoms: C_9  and  N_10
DOCKED: REMARK    5  A    between atoms: N_10  and  C_11
DOCKED: REMARK    6  A    between atoms: C_11  and  C_12
DOCKED: REMARK    7  A    between atoms: C_12  and  C_13
DOCKED: REMARK    8  A    between atoms: C_14  and  C_22
DOCKED: REMARK                            x       y       z     vdW  Elec       q    Type
DOCKED: REMARK                         _______ _______ _______ _____ _____    ______ ____
DOCKED: USER                              x       y       z     vdW  Elec       q    Type
DOCKED: USER                           _______ _______ _______ _____ _____    ______ ____
DOCKED: ROOT
DOCKED: ATOM      1  N   UNL     1      38.392  18.283 122.980 -0.12 -0.00    +0.000 N 
DOCKED: ATOM      2  H   UNL     1      38.485  19.245 122.652 +0.00 -0.00    +0.000 HD
DOCKED: ATOM      3  H   UNL     1      39.121  17.684 122.591 +0.00 -0.00    +0.000 HD
DOCKED: ENDROOT
DOCKED: BRANCH   1   4
DOCKED: ATOM      4  C   UNL     1      37.096  17.756 122.535 -0.18 -0.00    +0.000 C 
DOCKED: BRANCH   4   8
DOCKED: ATOM      5  C   UNL     1      37.205  13.440 122.795 -0.49 -0.00    +0.000 A 
DOCKED: ATOM      6  C   UNL     1      38.162  14.136 122.030 -0.40 -0.00    +0.000 A 
DOCKED: ATOM      7  C   UNL     1      38.117  15.530 121.938 -0.26 -0.00    +0.000 A 
DOCKED: ATOM      8  C   UNL     1      37.117  16.254 122.604 -0.25 -0.00    +0.000 A 
DOCKED: ATOM      9  C   UNL     1      36.183  15.567 123.393 -0.38 -0.00    +0.000 A 
DOCKED: ATOM     10  C   UNL     1      36.227  14.175 123.487 -0.48 -0.00    +0.000 A 
DOCKED: ATOM     11  CM  UNL     1      37.168  14.851 122.708 +0.00 -0.00    +0.000 AC
DOCKED: BRANCH   5  12
DOCKED: ATOM     12  C   UNL     1      36.836  11.120 121.963 -0.59 -0.00    +0.000 C 
DOCKED: ATOM     13  C   UNL     1      37.213  11.962 122.937 -0.58 -0.00    +0.000 C 
DOCKED: BRANCH  11  14
DOCKED: ATOM     14  O   UNL     1      36.700   8.942 121.078 -2.62 -0.00    +0.000 OA
DOCKED: ATOM     15  C   UNL     1      36.845   9.650 122.110 -0.65 -0.00    +0.000 C 
DOCKED: ATOM     16  N   UNL     1      36.984   9.007 123.384 -0.60 -0.00    +0.000 N 
DOCKED: ATOM     17  O   UNL     1      37.091   7.660 123.456 -2.65 -0.00    +0.000 OA
DOCKED: ATOM     18  H   UNL     1      37.002   9.547 124.207 -0.57 -0.00    +0.000 HD
DOCKED: ENDBRANCH  11  14
DOCKED: ENDBRANCH   5  12
DOCKED: ENDBRANCH   4   8
DOCKED: ENDBRANCH   1   4
DOCKED: BRANCH   1  18
DOCKED: ATOM     19  C   UNL     1      38.530  18.267 124.443 -0.20 -0.00    +0.000 C 
DOCKED: BRANCH  18  19
DOCKED: ATOM     20  C   UNL     1      39.871  18.853 124.916 -0.21 -0.00    +0.000 C 
DOCKED: BRANCH  19  20
DOCKED: ATOM     21  C   UNL     1      40.911  18.713 123.841 -0.18 -0.00    +0.000 A 
DOCKED: ATOM     22  C   UNL     1      41.583  19.739 123.174 -0.09 -0.00    +0.000 A 
DOCKED: ATOM     23  N   UNL     1      42.400  19.233 122.219 -0.09 -0.00    +0.000 N 
DOCKED: ATOM     24  C   UNL     1      42.235  17.900 122.263 -0.18 -0.00    +0.000 A 
DOCKED: ATOM     25  C   UNL     1      41.331  17.545 123.233 -0.27 -0.00    +0.000 A 
DOCKED: ATOM     26  C   UNL     1      40.976  16.214 123.453 -0.10 -0.00    +0.000 A 
DOCKED: ATOM     27  C   UNL     1      41.583  15.231 122.651 -0.50 -0.00    +0.000 A 
DOCKED: ATOM     28  C   UNL     1      42.517  15.596 121.656 -0.33 -0.00    +0.000 A 
DOCKED: ATOM     29  C   UNL     1      42.851  16.947 121.452 -0.22 -0.00    +0.000 A 
DOCKED: ATOM     30  C   UNL     1      41.450  21.200 123.460 -0.04 -0.00    +0.000 C 
DOCKED: ATOM     31  H   UNL     1      42.993  19.739 121.617 +0.00 -0.00    +0.000 HD
DOCKED: ATOM     32  CM  UNL     1      41.715  18.646 122.923 +0.00 -0.00    +0.000 AC
DOCKED: ATOM     33  CM  UNL     1      41.915  16.571 122.452 +0.00 -0.00    +0.000 AC
DOCKED: ENDBRANCH  19  20
DOCKED: ENDBRANCH  18  19
DOCKED: ENDBRANCH   1  18
DOCKED: TORSDOF 7DOCKED: TER
DOCKED: ENDMDL
________________________________________________________________________________


	BEGINNING GENETIC ALGORITHM DOCKING 29 of 100
Run: 29 Seed: 828805378 1594870838 [ Run 29 of 100 GA/GALS ]
Beginning LAMARCKIAN GENETIC ALGORITHM (LGA), with a maximum of 2500000 energy evaluations.

Final-Value: -15.082


	FINAL GENETIC ALGORITHM DOCKED STATE
	_______________________________________________


Detailed state:  trans 36.100 18.091 122.886 quatxyzw -0.487871 -0.745607 -0.147979 -0.429132 center 0.576 -0.005 0.140 ntor 7 -26.1567 130.3545 175.9140 -2.2482 -115.5954 150.3648 -167.7837
State:	 36.100  18.091 122.886  -0.540 -0.825 -0.164 -129.175    -26.16  130.35  175.91   -2.25 -115.60  150.36 -167.78

DOCKED: MODEL       29
DOCKED: USER    Run = 29
DOCKED: USER    DPF = ligand_dock.biased.dpf
DOCKED: USER  
DOCKED: USER    Estimated Free Energy of Binding    =  -11.26 kcal/mol  [=(1)+(2)+(3)-(4)]
DOCKED: USER    Estimated Inhibition Constant, Ki   =    5.54 nM (nanomolar)  [Temperature = 298.15 K]
DOCKED: USER    
DOCKED: USER    (1) Final Intermolecular Energy     =  -13.35 kcal/mol
DOCKED: USER        vdW + Hbond + desolv Energy     =  -13.35 kcal/mol
DOCKED: USER        Electrostatic Energy            =   +0.00 kcal/mol
DOCKED: USER    (2) Final Total Internal Energy     =   -1.73 kcal/mol
DOCKED: USER    (3) Torsional Free Energy           =   +2.09 kcal/mol
DOCKED: USER    (4) Unbound System's Energy  [=(2)] =   -1.73 kcal/mol
DOCKED: USER    
DOCKED: USER    
DOCKED: USER    NEWDPF move ligand.dum.pdbqt
DOCKED: USER    NEWDPF about 0.576000 -0.005000 0.140000
DOCKED: USER    NEWDPF tran0 36.099614 18.090770 122.885731
DOCKED: USER    NEWDPF quaternion0 -0.487871 -0.745607 -0.147979 -0.429132
DOCKED: USER    NEWDPF axisangle0 -0.540133 -0.825479 -0.163831 -129.174987
DOCKED: USER    NEWDPF quat0 -0.540133 -0.825479 -0.163831 -129.174987
DOCKED: USER    NEWDPF dihe0 -26.16 130.35 175.91 -2.25 -115.60 150.36 -167.78 
DOCKED: USER  keepresnum = 1 
DOCKED: USER  
DOCKED: REMARK  Name = 
DOCKED: REMARK  8 active torsions:
DOCKED: REMARK  status: ('A' for Active; 'I' for Inactive)
DOCKED: REMARK    1  A    between atoms: C_2  and  C_3
DOCKED: REMARK    2  A    between atoms: C_4  and  C_5
DOCKED: REMARK    3  A    between atoms: C_8  and  C_9
DOCKED: REMARK    4  A    between atoms: C_9  and  N_10
DOCKED: REMARK    5  A    between atoms: N_10  and  C_11
DOCKED: REMARK    6  A    between atoms: C_11  and  C_12
DOCKED: REMARK    7  A    between atoms: C_12  and  C_13
DOCKED: REMARK    8  A    between atoms: C_14  and  C_22
DOCKED: REMARK                            x       y       z     vdW  Elec       q    Type
DOCKED: REMARK                         _______ _______ _______ _____ _____    ______ ____
DOCKED: USER                              x       y       z     vdW  Elec       q    Type
DOCKED: USER                           _______ _______ _______ _____ _____    ______ ____
DOCKED: ROOT
DOCKED: ATOM      1  N   UNL     1      36.162  17.919 122.126 -0.19 -0.00    +0.000 N 
DOCKED: ATOM      2  H   UNL     1      36.403  18.904 122.021 +0.00 -0.00    +0.000 HD
DOCKED: ATOM      3  H   UNL     1      35.154  17.772 122.062 -0.01 -0.00    +0.000 HD
DOCKED: ENDROOT
DOCKED: BRANCH   1   4
DOCKED: ATOM      4  C   UNL     1      36.597  17.465 123.452 -0.25 -0.00    +0.000 C 
DOCKED: BRANCH   4   8
DOCKED: ATOM      5  C   UNL     1      36.657  13.140 123.462 -0.55 -0.00    +0.000 A 
DOCKED: ATOM      6  C   UNL     1      35.488  13.841 123.821 -0.42 -0.00    +0.000 A 
DOCKED: ATOM      7  C   UNL     1      35.476  15.239 123.828 -0.47 -0.00    +0.000 A 
DOCKED: ATOM      8  C   UNL     1      36.626  15.962 123.482 -0.33 -0.00    +0.000 A 
DOCKED: ATOM      9  C   UNL     1      37.781  15.267 123.092 -0.34 -0.00    +0.000 A 
DOCKED: ATOM     10  C   UNL     1      37.795  13.871 123.083 -0.46 -0.00    +0.000 A 
DOCKED: ATOM     11  CM  UNL     1      36.637  14.554 123.461 +0.00 -0.00    +0.000 AC
DOCKED: BRANCH   5  12
DOCKED: ATOM     12  C   UNL     1      36.771  10.943 122.291 -0.63 -0.00    +0.000 C 
DOCKED: ATOM     13  C   UNL     1      36.722  11.657 123.425 -0.70 -0.00    +0.000 C 
DOCKED: BRANCH  11  14
DOCKED: ATOM     14  O   UNL     1      36.695   8.883 121.153 -2.62 -0.00    +0.000 OA
DOCKED: ATOM     15  C   UNL     1      36.834   9.467 122.260 -0.68 -0.00    +0.000 C 
DOCKED: ATOM     16  N   UNL     1      37.019   8.683 123.446 -0.64 -0.00    +0.000 N 
DOCKED: ATOM     17  O   UNL     1      37.174   7.341 123.354 -2.36 -0.00    +0.000 OA
DOCKED: ATOM     18  H   UNL     1      37.032   9.121 124.327 -0.51 -0.00    +0.000 HD
DOCKED: ENDBRANCH  11  14
DOCKED: ENDBRANCH   5  12
DOCKED: ENDBRANCH   4   8
DOCKED: ENDBRANCH   1   4
DOCKED: BRANCH   1  18
DOCKED: ATOM     19  C   UNL     1      36.796  17.159 121.038 -0.17 -0.00    +0.000 C 
DOCKED: BRANCH  18  19
DOCKED: ATOM     20  C   UNL     1      38.056  17.849 120.493 -0.07 -0.00    +0.000 C 
DOCKED: BRANCH  19  20
DOCKED: ATOM     21  C   UNL     1      39.078  18.010 121.582 -0.07 -0.00    +0.000 A 
DOCKED: ATOM     22  C   UNL     1      39.269  19.119 122.408 -0.05 -0.00    +0.000 A 
DOCKED: ATOM     23  N   UNL     1      40.331  18.927 123.227 -0.10 -0.00    +0.000 N 
DOCKED: ATOM     24  C   UNL     1      40.826  17.718 122.911 -0.20 -0.00    +0.000 A 
DOCKED: ATOM     25  C   UNL     1      40.093  17.131 121.909 -0.15 -0.00    +0.000 A 
DOCKED: ATOM     26  C   UNL     1      40.430  15.879 121.393 -0.24 -0.00    +0.000 A 
DOCKED: ATOM     27  C   UNL     1      41.546  15.221 121.939 -0.39 -0.00    +0.000 A 
DOCKED: ATOM     28  C   UNL     1      42.295  15.823 122.975 -0.39 +0.00    +0.000 A 
DOCKED: ATOM     29  C   UNL     1      41.937  17.090 123.471 -0.34 -0.00    +0.000 A 
DOCKED: ATOM     30  C   UNL     1      38.426  20.354 122.420 -0.05 -0.00    +0.000 C 
DOCKED: ATOM     31  H   UNL     1      40.671  19.547 123.912 +0.00 -0.00    +0.000 HD
DOCKED: ATOM     32  CM  UNL     1      39.933  18.205 122.434 +0.00 -0.00    +0.000 AC
DOCKED: ATOM     33  CM  UNL     1      41.188  16.476 122.433 +0.00 -0.00    +0.000 AC
DOCKED: ENDBRANCH  19  20
DOCKED: ENDBRANCH  18  19
DOCKED: ENDBRANCH   1  18
DOCKED: TORSDOF 7DOCKED: TER
DOCKED: ENDMDL
________________________________________________________________________________


	BEGINNING GENETIC ALGORITHM DOCKING 30 of 100
Run: 30 Seed: 1971340592 1009275121 [ Run 30 of 100 GA/GALS ]
Beginning LAMARCKIAN GENETIC ALGORITHM (LGA), with a maximum of 2500000 energy evaluations.

Final-Value: -14.604


	FINAL GENETIC ALGORITHM DOCKED STATE
	_______________________________________________


Detailed state:  trans 37.218 17.162 119.313 quatxyzw 0.479971 -0.595819 -0.385462 -0.515797 center 0.576 -0.005 0.140 ntor 7 145.8233 -137.6264 164.4562 158.5160 -171.8419 0.2850 159.3142
State:	 37.218  17.162 119.313   0.560 -0.695 -0.450 -117.899    145.82 -137.63  164.46  158.52 -171.84    0.28  159.31

DOCKED: MODEL       30
DOCKED: USER    Run = 30
DOCKED: USER    DPF = ligand_dock.biased.dpf
DOCKED: USER  
DOCKED: USER    Estimated Free Energy of Binding    =  -10.81 kcal/mol  [=(1)+(2)+(3)-(4)]
DOCKED: USER    Estimated Inhibition Constant, Ki   =   11.96 nM (nanomolar)  [Temperature = 298.15 K]
DOCKED: USER    
DOCKED: USER    (1) Final Intermolecular Energy     =  -12.90 kcal/mol
DOCKED: USER        vdW + Hbond + desolv Energy     =  -12.90 kcal/mol
DOCKED: USER        Electrostatic Energy            =   +0.00 kcal/mol
DOCKED: USER    (2) Final Total Internal Energy     =   -1.71 kcal/mol
DOCKED: USER    (3) Torsional Free Energy           =   +2.09 kcal/mol
DOCKED: USER    (4) Unbound System's Energy  [=(2)] =   -1.71 kcal/mol
DOCKED: USER    
DOCKED: USER    
DOCKED: USER    NEWDPF move ligand.dum.pdbqt
DOCKED: USER    NEWDPF about 0.576000 -0.005000 0.140000
DOCKED: USER    NEWDPF tran0 37.218308 17.161854 119.312750
DOCKED: USER    NEWDPF quaternion0 0.479971 -0.595819 -0.385462 -0.515797
DOCKED: USER    NEWDPF axisangle0 0.560249 -0.695473 -0.449932 -117.898570
DOCKED: USER    NEWDPF quat0 0.560249 -0.695473 -0.449932 -117.898570
DOCKED: USER    NEWDPF dihe0 145.82 -137.63 164.46 158.52 -171.84 0.28 159.31 
DOCKED: USER  keepresnum = 1 
DOCKED: USER  
DOCKED: REMARK  Name = 
DOCKED: REMARK  8 active torsions:
DOCKED: REMARK  status: ('A' for Active; 'I' for Inactive)
DOCKED: REMARK    1  A    between atoms: C_2  and  C_3
DOCKED: REMARK    2  A    between atoms: C_4  and  C_5
DOCKED: REMARK    3  A    between atoms: C_8  and  C_9
DOCKED: REMARK    4  A    between atoms: C_9  and  N_10
DOCKED: REMARK    5  A    between atoms: N_10  and  C_11
DOCKED: REMARK    6  A    between atoms: C_11  and  C_12
DOCKED: REMARK    7  A    between atoms: C_12  and  C_13
DOCKED: REMARK    8  A    between atoms: C_14  and  C_22
DOCKED: REMARK                            x       y       z     vdW  Elec       q    Type
DOCKED: REMARK                         _______ _______ _______ _____ _____    ______ ____
DOCKED: USER                              x       y       z     vdW  Elec       q    Type
DOCKED: USER                           _______ _______ _______ _____ _____    ______ ____
DOCKED: ROOT
DOCKED: ATOM      1  N   UNL     1      36.901  17.868 119.203 -0.08 -0.00    +0.000 N 
DOCKED: ATOM      2  H   UNL     1      36.212  17.559 119.888 -0.00 -0.00    +0.000 HD
DOCKED: ATOM      3  H   UNL     1      36.625  17.611 118.254 +0.00 -0.00    +0.000 HD
DOCKED: ENDROOT
DOCKED: BRANCH   1   4
DOCKED: ATOM      4  C   UNL     1      38.181  17.209 119.489 -0.08 -0.00    +0.000 C 
DOCKED: BRANCH   4   8
DOCKED: ATOM      5  C   UNL     1      37.582  12.979 120.170 -0.43 -0.00    +0.000 A 
DOCKED: ATOM      6  C   UNL     1      37.446  13.523 118.877 -0.37 -0.00    +0.000 A 
DOCKED: ATOM      7  C   UNL     1      37.629  14.893 118.662 -0.22 -0.00    +0.000 A 
DOCKED: ATOM      8  C   UNL     1      37.946  15.743 119.731 -0.17 -0.00    +0.000 A 
DOCKED: ATOM      9  C   UNL     1      38.115  15.200 121.013 -0.24 -0.00    +0.000 A 
DOCKED: ATOM     10  C   UNL     1      37.934  13.832 121.229 -0.37 -0.00    +0.000 A 
DOCKED: ATOM     11  CM  UNL     1      37.776  14.362 119.947 +0.00 -0.00    +0.000 AC
DOCKED: BRANCH   5  12
DOCKED: ATOM     12  C   UNL     1      37.158  11.037 121.673 -0.42 -0.00    +0.000 C 
DOCKED: ATOM     13  C   UNL     1      37.411  11.532 120.452 -0.43 -0.00    +0.000 C 
DOCKED: BRANCH  11  14
DOCKED: ATOM     14  O   UNL     1      36.756   8.823 120.980 -2.61 -0.00    +0.000 OA
DOCKED: ATOM     15  C   UNL     1      36.991   9.595 121.947 -0.62 -0.00    +0.000 C 
DOCKED: ATOM     16  N   UNL     1      37.059   9.054 123.273 -0.63 -0.00    +0.000 N 
DOCKED: ATOM     17  O   UNL     1      37.004   7.715 123.462 -2.66 -0.00    +0.000 OA
DOCKED: ATOM     18  H   UNL     1      37.146   9.657 124.046 -0.53 -0.00    +0.000 HD
DOCKED: ENDBRANCH  11  14
DOCKED: ENDBRANCH   5  12
DOCKED: ENDBRANCH   4   8
DOCKED: ENDBRANCH   1   4
DOCKED: BRANCH   1  18
DOCKED: ATOM     19  C   UNL     1      37.001  19.333 119.260 -0.07 -0.00    +0.000 C 
DOCKED: BRANCH  18  19
DOCKED: ATOM     20  C   UNL     1      35.941  19.962 120.180 -0.00 -0.00    +0.000 C 
DOCKED: BRANCH  19  20
DOCKED: ATOM     21  C   UNL     1      35.134  18.891 120.855 -0.21 -0.00    +0.000 A 
DOCKED: ATOM     22  C   UNL     1      33.826  18.502 120.560 -0.29 -0.00    +0.000 A 
DOCKED: ATOM     23  N   UNL     1      33.404  17.550 121.426 -0.31 -0.00    +0.000 N 
DOCKED: ATOM     24  C   UNL     1      34.423  17.348 122.278 -0.35 -0.00    +0.000 A 
DOCKED: ATOM     25  C   UNL     1      35.493  18.152 121.967 -0.25 -0.00    +0.000 A 
DOCKED: ATOM     26  C   UNL     1      36.664  18.139 122.726 -0.16 -0.00    +0.000 A 
DOCKED: ATOM     27  C   UNL     1      36.725  17.265 123.825 -0.24 -0.00    +0.000 A 
DOCKED: ATOM     28  C   UNL     1      35.626  16.434 124.141 -0.36 -0.00    +0.000 A 
DOCKED: ATOM     29  C   UNL     1      34.456  16.473 123.363 -0.42 -0.00    +0.000 A 
DOCKED: ATOM     30  C   UNL     1      32.988  19.034 119.442 -0.34 -0.00    +0.000 C 
DOCKED: ATOM     31  H   UNL     1      32.528  17.098 121.430 -0.03 -0.00    +0.000 HD
DOCKED: ATOM     32  CM  UNL     1      34.422  18.071 121.417 +0.00 -0.00    +0.000 AC
DOCKED: ATOM     33  CM  UNL     1      35.565  17.302 123.050 -0.02 -0.00    +0.000 AC
DOCKED: ENDBRANCH  19  20
DOCKED: ENDBRANCH  18  19
DOCKED: ENDBRANCH   1  18
DOCKED: TORSDOF 7DOCKED: TER
DOCKED: ENDMDL
________________________________________________________________________________


	BEGINNING GENETIC ALGORITHM DOCKING 31 of 100
Run: 31 Seed: 1660942309 136989096 [ Run 31 of 100 GA/GALS ]
Beginning LAMARCKIAN GENETIC ALGORITHM (LGA), with a maximum of 2500000 energy evaluations.

Final-Value: -14.671


	FINAL GENETIC ALGORITHM DOCKED STATE
	_______________________________________________


Detailed state:  trans 37.281 15.933 122.521 quatxyzw -0.112162 0.016970 -0.395459 -0.911451 center 0.576 -0.005 0.140 ntor 7 152.4656 136.9778 169.8050 74.8755 -119.0455 44.2785 25.8363
State:	 37.281  15.933 122.521  -0.273  0.041 -0.961 -48.587    152.47  136.98  169.80   74.88 -119.05   44.28   25.84

DOCKED: MODEL       31
DOCKED: USER    Run = 31
DOCKED: USER    DPF = ligand_dock.biased.dpf
DOCKED: USER  
DOCKED: USER    Estimated Free Energy of Binding    =  -11.10 kcal/mol  [=(1)+(2)+(3)-(4)]
DOCKED: USER    Estimated Inhibition Constant, Ki   =    7.27 nM (nanomolar)  [Temperature = 298.15 K]
DOCKED: USER    
DOCKED: USER    (1) Final Intermolecular Energy     =  -13.19 kcal/mol
DOCKED: USER        vdW + Hbond + desolv Energy     =  -13.19 kcal/mol
DOCKED: USER        Electrostatic Energy            =   +0.00 kcal/mol
DOCKED: USER    (2) Final Total Internal Energy     =   -1.48 kcal/mol
DOCKED: USER    (3) Torsional Free Energy           =   +2.09 kcal/mol
DOCKED: USER    (4) Unbound System's Energy  [=(2)] =   -1.48 kcal/mol
DOCKED: USER    
DOCKED: USER    
DOCKED: USER    NEWDPF move ligand.dum.pdbqt
DOCKED: USER    NEWDPF about 0.576000 -0.005000 0.140000
DOCKED: USER    NEWDPF tran0 37.280660 15.933464 122.521108
DOCKED: USER    NEWDPF quaternion0 -0.112162 0.016970 -0.395459 -0.911451
DOCKED: USER    NEWDPF axisangle0 -0.272630 0.041249 -0.961234 -48.586591
DOCKED: USER    NEWDPF quat0 -0.272630 0.041249 -0.961234 -48.586591
DOCKED: USER    NEWDPF dihe0 152.47 136.98 169.80 74.88 -119.05 44.28 25.84 
DOCKED: USER  keepresnum = 1 
DOCKED: USER  
DOCKED: REMARK  Name = 
DOCKED: REMARK  8 active torsions:
DOCKED: REMARK  status: ('A' for Active; 'I' for Inactive)
DOCKED: REMARK    1  A    between atoms: C_2  and  C_3
DOCKED: REMARK    2  A    between atoms: C_4  and  C_5
DOCKED: REMARK    3  A    between atoms: C_8  and  C_9
DOCKED: REMARK    4  A    between atoms: C_9  and  N_10
DOCKED: REMARK    5  A    between atoms: N_10  and  C_11
DOCKED: REMARK    6  A    between atoms: C_11  and  C_12
DOCKED: REMARK    7  A    between atoms: C_12  and  C_13
DOCKED: REMARK    8  A    between atoms: C_14  and  C_22
DOCKED: REMARK                            x       y       z     vdW  Elec       q    Type
DOCKED: REMARK                         _______ _______ _______ _____ _____    ______ ____
DOCKED: USER                              x       y       z     vdW  Elec       q    Type
DOCKED: USER                           _______ _______ _______ _____ _____    ______ ____
DOCKED: ROOT
DOCKED: ATOM      1  N   UNL     1      36.917  16.586 122.752 -0.23 -0.00    +0.000 N 
DOCKED: ATOM      2  H   UNL     1      37.812  16.817 123.184 -0.00 -0.00    +0.000 HD
DOCKED: ATOM      3  H   UNL     1      36.324  16.048 123.385 -0.01 -0.00    +0.000 HD
DOCKED: ENDROOT
DOCKED: BRANCH   1   4
DOCKED: ATOM      4  C   UNL     1      37.166  15.761 121.563 -0.25 -0.00    +0.000 C 
DOCKED: BRANCH   4   8
DOCKED: ATOM      5  C   UNL     1      37.065  11.585 122.685 -0.54 -0.00    +0.000 A 
DOCKED: ATOM      6  C   UNL     1      37.119  12.590 123.671 -0.49 -0.00    +0.000 A 
DOCKED: ATOM      7  C   UNL     1      37.164  13.939 123.305 -0.45 -0.00    +0.000 A 
DOCKED: ATOM      8  C   UNL     1      37.158  14.308 121.952 -0.35 -0.00    +0.000 A 
DOCKED: ATOM      9  C   UNL     1      37.070  13.312 120.969 -0.38 -0.00    +0.000 A 
DOCKED: ATOM     10  C   UNL     1      37.024  11.964 121.333 -0.49 -0.00    +0.000 A 
DOCKED: ATOM     11  CM  UNL     1      37.100  12.950 122.319 +0.00 -0.00    +0.000 AC
DOCKED: BRANCH   5  12
DOCKED: ATOM     12  C   UNL     1      35.947   9.358 122.748 -0.70 -0.00    +0.000 C 
DOCKED: ATOM     13  C   UNL     1      37.004  10.140 123.018 -0.60 -0.00    +0.000 C 
DOCKED: BRANCH  11  14
DOCKED: ATOM     14  O   UNL     1      36.950   7.350 123.459 -2.37 -0.00    +0.000 OA
DOCKED: ATOM     15  C   UNL     1      35.891   7.921 123.084 -0.76 -0.00    +0.000 C 
DOCKED: ATOM     16  N   UNL     1      34.686   7.153 122.971 -0.66 -0.00    +0.000 N 
DOCKED: ATOM     17  O   UNL     1      34.661   5.866 123.389 -0.88 -0.00    +0.000 OA
DOCKED: ATOM     18  H   UNL     1      33.877   7.562 122.588 -0.02 -0.00    +0.000 HD
DOCKED: ENDBRANCH  11  14
DOCKED: ENDBRANCH   5  12
DOCKED: ENDBRANCH   4   8
DOCKED: ENDBRANCH   1   4
DOCKED: BRANCH   1  18
DOCKED: ATOM     19  C   UNL     1      36.212  17.835 122.428 -0.23 -0.00    +0.000 C 
DOCKED: BRANCH  18  19
DOCKED: ATOM     20  C   UNL     1      34.702  17.747 122.700 -0.38 -0.00    +0.000 C 
DOCKED: BRANCH  19  20
DOCKED: ATOM     21  C   UNL     1      34.449  17.370 124.132 -0.39 -0.00    +0.000 A 
DOCKED: ATOM     22  C   UNL     1      34.132  16.106 124.632 -0.47 -0.00    +0.000 A 
DOCKED: ATOM     23  N   UNL     1      33.907  16.162 125.966 -0.47 -0.00    +0.000 N 
DOCKED: ATOM     24  C   UNL     1      34.056  17.453 126.310 -0.34 -0.00    +0.000 A 
DOCKED: ATOM     25  C   UNL     1      34.380  18.220 125.219 -0.32 -0.00    +0.000 A 
DOCKED: ATOM     26  C   UNL     1      34.563  19.600 125.322 -0.18 -0.00    +0.000 A 
DOCKED: ATOM     27  C   UNL     1      34.414  20.190 126.590 -0.14 -0.00    +0.000 A 
DOCKED: ATOM     28  C   UNL     1      34.087  19.398 127.714 -0.12 -0.00    +0.000 A 
DOCKED: ATOM     29  C   UNL     1      33.902  18.011 127.579 -0.23 -0.00    +0.000 A 
DOCKED: ATOM     30  C   UNL     1      34.059  14.844 123.833 -0.41 -0.00    +0.000 C 
DOCKED: ATOM     31  H   UNL     1      33.680  15.411 126.562 -0.06 -0.00    +0.000 HD
DOCKED: ATOM     32  CM  UNL     1      34.176  17.033 125.275 -0.23 -0.00    +0.000 AC
DOCKED: ATOM     33  CM  UNL     1      34.234  18.813 126.456 -0.04 -0.00    +0.000 AC
DOCKED: ENDBRANCH  19  20
DOCKED: ENDBRANCH  18  19
DOCKED: ENDBRANCH   1  18
DOCKED: TORSDOF 7DOCKED: TER
DOCKED: ENDMDL
________________________________________________________________________________


	BEGINNING GENETIC ALGORITHM DOCKING 32 of 100
Run: 32 Seed: 1796727839 1564105571 [ Run 32 of 100 GA/GALS ]
Beginning LAMARCKIAN GENETIC ALGORITHM (LGA), with a maximum of 2500000 energy evaluations.

Final-Value: -15.079


	FINAL GENETIC ALGORITHM DOCKED STATE
	_______________________________________________


Detailed state:  trans 38.094 18.308 122.159 quatxyzw -0.092800 -0.693662 -0.562121 0.440727 center 0.576 -0.005 0.140 ntor 7 -31.9492 -180.0000 -133.1816 -177.8690 99.2210 168.2019 101.8789
State:	 38.094  18.308 122.159  -0.103 -0.773 -0.626 127.699    -31.95 -180.00 -133.18 -177.87   99.22  168.20  101.88

DOCKED: MODEL       32
DOCKED: USER    Run = 32
DOCKED: USER    DPF = ligand_dock.biased.dpf
DOCKED: USER  
DOCKED: USER    Estimated Free Energy of Binding    =  -11.65 kcal/mol  [=(1)+(2)+(3)-(4)]
DOCKED: USER    Estimated Inhibition Constant, Ki   =    2.91 nM (nanomolar)  [Temperature = 298.15 K]
DOCKED: USER    
DOCKED: USER    (1) Final Intermolecular Energy     =  -13.73 kcal/mol
DOCKED: USER        vdW + Hbond + desolv Energy     =  -13.73 kcal/mol
DOCKED: USER        Electrostatic Energy            =   +0.00 kcal/mol
DOCKED: USER    (2) Final Total Internal Energy     =   -1.34 kcal/mol
DOCKED: USER    (3) Torsional Free Energy           =   +2.09 kcal/mol
DOCKED: USER    (4) Unbound System's Energy  [=(2)] =   -1.34 kcal/mol
DOCKED: USER    
DOCKED: USER    
DOCKED: USER    NEWDPF move ligand.dum.pdbqt
DOCKED: USER    NEWDPF about 0.576000 -0.005000 0.140000
DOCKED: USER    NEWDPF tran0 38.093929 18.308391 122.158749
DOCKED: USER    NEWDPF quaternion0 -0.092800 -0.693662 -0.562121 0.440727
DOCKED: USER    NEWDPF axisangle0 -0.103382 -0.772761 -0.626221 127.699431
DOCKED: USER    NEWDPF quat0 -0.103382 -0.772761 -0.626221 127.699431
DOCKED: USER    NEWDPF dihe0 -31.95 -180.00 -133.18 -177.87 99.22 168.20 101.88 
DOCKED: USER  keepresnum = 1 
DOCKED: USER  
DOCKED: REMARK  Name = 
DOCKED: REMARK  8 active torsions:
DOCKED: REMARK  status: ('A' for Active; 'I' for Inactive)
DOCKED: REMARK    1  A    between atoms: C_2  and  C_3
DOCKED: REMARK    2  A    between atoms: C_4  and  C_5
DOCKED: REMARK    3  A    between atoms: C_8  and  C_9
DOCKED: REMARK    4  A    between atoms: C_9  and  N_10
DOCKED: REMARK    5  A    between atoms: N_10  and  C_11
DOCKED: REMARK    6  A    between atoms: C_11  and  C_12
DOCKED: REMARK    7  A    between atoms: C_12  and  C_13
DOCKED: REMARK    8  A    between atoms: C_14  and  C_22
DOCKED: REMARK                            x       y       z     vdW  Elec       q    Type
DOCKED: REMARK                         _______ _______ _______ _____ _____    ______ ____
DOCKED: USER                              x       y       z     vdW  Elec       q    Type
DOCKED: USER                           _______ _______ _______ _____ _____    ______ ____
DOCKED: ROOT
DOCKED: ATOM      1  N   UNL     1      38.690  18.122 122.629 -0.11 -0.00    +0.000 N 
DOCKED: ATOM      2  H   UNL     1      38.562  19.061 123.004 +0.00 -0.00    +0.000 HD
DOCKED: ATOM      3  H   UNL     1      39.333  18.121 121.836 +0.01 -0.00    +0.000 HD
DOCKED: ENDROOT
DOCKED: BRANCH   1   4
DOCKED: ATOM      4  C   UNL     1      37.393  17.623 122.154 -0.15 -0.00    +0.000 C 
DOCKED: BRANCH   4   8
DOCKED: ATOM      5  C   UNL     1      37.088  13.356 122.792 -0.49 -0.00    +0.000 A 
DOCKED: ATOM      6  C   UNL     1      36.564  14.261 123.737 -0.42 -0.00    +0.000 A 
DOCKED: ATOM      7  C   UNL     1      36.675  15.640 123.533 -0.34 -0.00    +0.000 A 
DOCKED: ATOM      8  C   UNL     1      37.312  16.140 122.388 -0.24 -0.00    +0.000 A 
DOCKED: ATOM      9  C   UNL     1      37.805  15.242 121.430 -0.25 -0.00    +0.000 A 
DOCKED: ATOM     10  C   UNL     1      37.693  13.865 121.631 -0.39 -0.00    +0.000 A 
DOCKED: ATOM     11  CM  UNL     1      37.189  14.751 122.585 +0.00 -0.00    +0.000 AC
DOCKED: BRANCH   5  12
DOCKED: ATOM     12  C   UNL     1      37.060  11.018 121.930 -0.54 -0.00    +0.000 C 
DOCKED: ATOM     13  C   UNL     1      36.987  11.884 122.952 -0.65 -0.00    +0.000 C 
DOCKED: BRANCH  11  14
DOCKED: ATOM     14  O   UNL     1      36.744   8.847 121.074 -2.63 -0.00    +0.000 OA
DOCKED: ATOM     15  C   UNL     1      36.956   9.554 122.095 -0.63 -0.00    +0.000 C 
DOCKED: ATOM     16  N   UNL     1      37.062   8.916 123.375 -0.62 -0.00    +0.000 N 
DOCKED: ATOM     17  O   UNL     1      37.066   7.566 123.462 -2.59 -0.00    +0.000 OA
DOCKED: ATOM     18  H   UNL     1      37.132   9.462 124.191 -0.59 -0.00    +0.000 HD
DOCKED: ENDBRANCH  11  14
DOCKED: ENDBRANCH   5  12
DOCKED: ENDBRANCH   4   8
DOCKED: ENDBRANCH   1   4
DOCKED: BRANCH   1  18
DOCKED: ATOM     19  C   UNL     1      39.268  17.268 123.677 -0.24 -0.00    +0.000 C 
DOCKED: BRANCH  18  19
DOCKED: ATOM     20  C   UNL     1      40.680  17.715 124.090 -0.31 -0.00    +0.000 C 
DOCKED: BRANCH  19  20
DOCKED: ATOM     21  C   UNL     1      41.706  17.123 123.168 -0.32 -0.00    +0.000 A 
DOCKED: ATOM     22  C   UNL     1      41.754  15.816 122.678 -0.44 -0.00    +0.000 A 
DOCKED: ATOM     23  N   UNL     1      42.864  15.627 121.927 -0.37 -0.00    +0.000 N 
DOCKED: ATOM     24  C   UNL     1      43.531  16.794 121.955 -0.30 -0.00    +0.000 A 
DOCKED: ATOM     25  C   UNL     1      42.861  17.727 122.706 -0.26 -0.00    +0.000 A 
DOCKED: ATOM     26  C   UNL     1      43.369  19.012 122.902 -0.10 -0.00    +0.000 A 
DOCKED: ATOM     27  C   UNL     1      44.596  19.333 122.295 -0.12 -0.00    +0.000 A 
DOCKED: ATOM     28  C   UNL     1      45.283  18.373 121.517 -0.12 -0.00    +0.000 A 
DOCKED: ATOM     29  C   UNL     1      44.749  17.084 121.343 -0.21 -0.00    +0.000 A 
DOCKED: ATOM     30  C   UNL     1      40.728  14.756 122.921 -0.32 -0.00    +0.000 C 
DOCKED: ATOM     31  H   UNL     1      43.130  14.802 121.458 -0.02 -0.00    +0.000 HD
DOCKED: ATOM     32  CM  UNL     1      42.553  16.585 122.469 +0.00 -0.00    +0.000 AC
DOCKED: ATOM     33  CM  UNL     1      44.065  18.055 122.119 +0.00 -0.00    +0.000 AC
DOCKED: ENDBRANCH  19  20
DOCKED: ENDBRANCH  18  19
DOCKED: ENDBRANCH   1  18
DOCKED: TORSDOF 7DOCKED: TER
DOCKED: ENDMDL
________________________________________________________________________________


	BEGINNING GENETIC ALGORITHM DOCKING 33 of 100
Run: 33 Seed: 200258028 767517602 [ Run 33 of 100 GA/GALS ]
Beginning LAMARCKIAN GENETIC ALGORITHM (LGA), with a maximum of 2500000 energy evaluations.

Final-Value: -15.562


	FINAL GENETIC ALGORITHM DOCKED STATE
	_______________________________________________


Detailed state:  trans 36.437 18.356 122.738 quatxyzw -0.185147 -0.358559 -0.913291 -0.055272 center 0.576 -0.005 0.140 ntor 7 -5.0699 162.7630 177.2895 164.9690 -1.4660 -112.7269 168.4844
State:	 36.437  18.356 122.738  -0.185 -0.359 -0.915 -173.663     -5.07  162.76  177.29  164.97   -1.47 -112.73  168.48

DOCKED: MODEL       33
DOCKED: USER    Run = 33
DOCKED: USER    DPF = ligand_dock.biased.dpf
DOCKED: USER  
DOCKED: USER    Estimated Free Energy of Binding    =  -11.90 kcal/mol  [=(1)+(2)+(3)-(4)]
DOCKED: USER    Estimated Inhibition Constant, Ki   =    1.88 nM (nanomolar)  [Temperature = 298.15 K]
DOCKED: USER    
DOCKED: USER    (1) Final Intermolecular Energy     =  -13.99 kcal/mol
DOCKED: USER        vdW + Hbond + desolv Energy     =  -13.99 kcal/mol
DOCKED: USER        Electrostatic Energy            =   +0.00 kcal/mol
DOCKED: USER    (2) Final Total Internal Energy     =   -1.57 kcal/mol
DOCKED: USER    (3) Torsional Free Energy           =   +2.09 kcal/mol
DOCKED: USER    (4) Unbound System's Energy  [=(2)] =   -1.57 kcal/mol
DOCKED: USER    
DOCKED: USER    
DOCKED: USER    NEWDPF move ligand.dum.pdbqt
DOCKED: USER    NEWDPF about 0.576000 -0.005000 0.140000
DOCKED: USER    NEWDPF tran0 36.436620 18.355769 122.737996
DOCKED: USER    NEWDPF quaternion0 -0.185147 -0.358559 -0.913291 -0.055272
DOCKED: USER    NEWDPF axisangle0 -0.185430 -0.359108 -0.914690 -173.663043
DOCKED: USER    NEWDPF quat0 -0.185430 -0.359108 -0.914690 -173.663043
DOCKED: USER    NEWDPF dihe0 -5.07 162.76 177.29 164.97 -1.47 -112.73 168.48 
DOCKED: USER  keepresnum = 1 
DOCKED: USER  
DOCKED: REMARK  Name = 
DOCKED: REMARK  8 active torsions:
DOCKED: REMARK  status: ('A' for Active; 'I' for Inactive)
DOCKED: REMARK    1  A    between atoms: C_2  and  C_3
DOCKED: REMARK    2  A    between atoms: C_4  and  C_5
DOCKED: REMARK    3  A    between atoms: C_8  and  C_9
DOCKED: REMARK    4  A    between atoms: C_9  and  N_10
DOCKED: REMARK    5  A    between atoms: N_10  and  C_11
DOCKED: REMARK    6  A    between atoms: C_11  and  C_12
DOCKED: REMARK    7  A    between atoms: C_12  and  C_13
DOCKED: REMARK    8  A    between atoms: C_14  and  C_22
DOCKED: REMARK                            x       y       z     vdW  Elec       q    Type
DOCKED: REMARK                         _______ _______ _______ _____ _____    ______ ____
DOCKED: USER                              x       y       z     vdW  Elec       q    Type
DOCKED: USER                           _______ _______ _______ _____ _____    ______ ____
DOCKED: ROOT
DOCKED: ATOM      1  N   UNL     1      37.212  18.451 122.753 -0.12 -0.00    +0.000 N 
DOCKED: ATOM      2  H   UNL     1      37.110  18.336 123.761 +0.00 -0.00    +0.000 HD
DOCKED: ATOM      3  H   UNL     1      37.112  19.428 122.476 +0.00 -0.00    +0.000 HD
DOCKED: ENDROOT
DOCKED: BRANCH   1   4
DOCKED: ATOM      4  C   UNL     1      36.155  17.685 122.081 -0.23 -0.00    +0.000 C 
DOCKED: BRANCH   4   8
DOCKED: ATOM      5  C   UNL     1      36.720  13.445 122.724 -0.48 -0.00    +0.000 A 
DOCKED: ATOM      6  C   UNL     1      36.170  14.256 123.737 -0.47 -0.00    +0.000 A 
DOCKED: ATOM      7  C   UNL     1      36.000  15.629 123.530 -0.39 -0.00    +0.000 A 
DOCKED: ATOM      8  C   UNL     1      36.377  16.216 122.314 -0.25 -0.00    +0.000 A 
DOCKED: ATOM      9  C   UNL     1      36.893  15.406 121.292 -0.19 -0.00    +0.000 A 
DOCKED: ATOM     10  C   UNL     1      37.062  14.035 121.496 -0.31 -0.00    +0.000 A 
DOCKED: ATOM     11  CM  UNL     1      36.537  14.831 122.515 +0.00 -0.00    +0.000 AC
DOCKED: BRANCH   5  12
DOCKED: ATOM     12  C   UNL     1      36.675  11.089 121.912 -0.61 -0.00    +0.000 C 
DOCKED: ATOM     13  C   UNL     1      36.911  11.982 122.886 -0.65 -0.00    +0.000 C 
DOCKED: BRANCH  11  14
DOCKED: ATOM     14  O   UNL     1      36.833   8.902 121.054 -2.65 -0.00    +0.000 OA
DOCKED: ATOM     15  C   UNL     1      36.865   9.634 122.079 -0.64 -0.00    +0.000 C 
DOCKED: ATOM     16  N   UNL     1      37.057   9.028 123.364 -0.61 -0.00    +0.000 N 
DOCKED: ATOM     17  O   UNL     1      37.331   7.706 123.456 -2.62 -0.00    +0.000 OA
DOCKED: ATOM     18  H   UNL     1      36.988   9.574 124.180 -0.56 -0.00    +0.000 HD
DOCKED: ENDBRANCH  11  14
DOCKED: ENDBRANCH   5  12
DOCKED: ENDBRANCH   4   8
DOCKED: ENDBRANCH   1   4
DOCKED: BRANCH   1  18
DOCKED: ATOM     19  C   UNL     1      38.559  18.008 122.361 -0.12 -0.00    +0.000 C 
DOCKED: BRANCH  18  19
DOCKED: ATOM     20  C   UNL     1      39.373  17.472 123.551 -0.24 -0.00    +0.000 C 
DOCKED: BRANCH  19  20
DOCKED: ATOM     21  C   UNL     1      40.680  16.906 123.077 -0.28 -0.00    +0.000 A 
DOCKED: ATOM     22  C   UNL     1      40.954  15.582 122.729 -0.41 -0.00    +0.000 A 
DOCKED: ATOM     23  N   UNL     1      42.263  15.432 122.415 -0.48 -0.00    +0.000 N 
DOCKED: ATOM     24  C   UNL     1      42.823  16.642 122.583 -0.37 -0.00    +0.000 A 
DOCKED: ATOM     25  C   UNL     1      41.893  17.564 122.992 -0.27 -0.00    +0.000 A 
DOCKED: ATOM     26  C   UNL     1      42.241  18.890 123.256 -0.15 -0.00    +0.000 A 
DOCKED: ATOM     27  C   UNL     1      43.586  19.263 123.080 -0.07 -0.00    +0.000 A 
DOCKED: ATOM     28  C   UNL     1      44.542  18.314 122.653 -0.20 -0.00    +0.000 A 
DOCKED: ATOM     29  C   UNL     1      44.163  16.983 122.401 -0.30 -0.00    +0.000 A 
DOCKED: ATOM     30  C   UNL     1      39.959  14.468 122.685 -0.30 -0.00    +0.000 C 
DOCKED: ATOM     31  H   UNL     1      42.712  14.605 122.124 -0.03 -0.00    +0.000 HD
DOCKED: ATOM     32  CM  UNL     1      41.740  16.393 122.748 +0.00 -0.00    +0.000 AC
DOCKED: ATOM     33  CM  UNL     1      43.208  17.943 122.827 +0.00 -0.00    +0.000 AC
DOCKED: ENDBRANCH  19  20
DOCKED: ENDBRANCH  18  19
DOCKED: ENDBRANCH   1  18
DOCKED: TORSDOF 7DOCKED: TER
DOCKED: ENDMDL
________________________________________________________________________________


	BEGINNING GENETIC ALGORITHM DOCKING 34 of 100
Run: 34 Seed: 1477335579 1574580699 [ Run 34 of 100 GA/GALS ]
Beginning LAMARCKIAN GENETIC ALGORITHM (LGA), with a maximum of 2500000 energy evaluations.

Final-Value: -14.734


	FINAL GENETIC ALGORITHM DOCKED STATE
	_______________________________________________


Detailed state:  trans 36.252 18.319 123.645 quatxyzw 0.602830 0.466264 0.083754 0.642011 center 0.576 -0.005 0.140 ntor 7 -170.6471 117.8722 2.4297 -175.1516 5.2293 175.9978 -179.9367
State:	 36.252  18.319 123.645   0.786  0.608  0.109 100.116   -170.65  117.87    2.43 -175.15    5.23  176.00 -179.94

DOCKED: MODEL       34
DOCKED: USER    Run = 34
DOCKED: USER    DPF = ligand_dock.biased.dpf
DOCKED: USER  
DOCKED: USER    Estimated Free Energy of Binding    =  -10.95 kcal/mol  [=(1)+(2)+(3)-(4)]
DOCKED: USER    Estimated Inhibition Constant, Ki   =    9.49 nM (nanomolar)  [Temperature = 298.15 K]
DOCKED: USER    
DOCKED: USER    (1) Final Intermolecular Energy     =  -13.03 kcal/mol
DOCKED: USER        vdW + Hbond + desolv Energy     =  -13.03 kcal/mol
DOCKED: USER        Electrostatic Energy            =   +0.00 kcal/mol
DOCKED: USER    (2) Final Total Internal Energy     =   -1.70 kcal/mol
DOCKED: USER    (3) Torsional Free Energy           =   +2.09 kcal/mol
DOCKED: USER    (4) Unbound System's Energy  [=(2)] =   -1.70 kcal/mol
DOCKED: USER    
DOCKED: USER    
DOCKED: USER    NEWDPF move ligand.dum.pdbqt
DOCKED: USER    NEWDPF about 0.576000 -0.005000 0.140000
DOCKED: USER    NEWDPF tran0 36.251594 18.318893 123.645466
DOCKED: USER    NEWDPF quaternion0 0.602830 0.466264 0.083754 0.642011
DOCKED: USER    NEWDPF axisangle0 0.786271 0.608148 0.109241 100.116068
DOCKED: USER    NEWDPF quat0 0.786271 0.608148 0.109241 100.116068
DOCKED: USER    NEWDPF dihe0 -170.65 117.87 2.43 -175.15 5.23 176.00 -179.94 
DOCKED: USER  keepresnum = 1 
DOCKED: USER  
DOCKED: REMARK  Name = 
DOCKED: REMARK  8 active torsions:
DOCKED: REMARK  status: ('A' for Active; 'I' for Inactive)
DOCKED: REMARK    1  A    between atoms: C_2  and  C_3
DOCKED: REMARK    2  A    between atoms: C_4  and  C_5
DOCKED: REMARK    3  A    between atoms: C_8  and  C_9
DOCKED: REMARK    4  A    between atoms: C_9  and  N_10
DOCKED: REMARK    5  A    between atoms: N_10  and  C_11
DOCKED: REMARK    6  A    between atoms: C_11  and  C_12
DOCKED: REMARK    7  A    between atoms: C_12  and  C_13
DOCKED: REMARK    8  A    between atoms: C_14  and  C_22
DOCKED: REMARK                            x       y       z     vdW  Elec       q    Type
DOCKED: REMARK                         _______ _______ _______ _____ _____    ______ ____
DOCKED: USER                              x       y       z     vdW  Elec       q    Type
DOCKED: USER                           _______ _______ _______ _____ _____    ______ ____
DOCKED: ROOT
DOCKED: ATOM      1  N   UNL     1      35.790  18.289 123.016 -0.22 -0.00    +0.000 N 
DOCKED: ATOM      2  H   UNL     1      36.234  19.172 122.766 -0.00 -0.00    +0.000 HD
DOCKED: ATOM      3  H   UNL     1      34.964  18.437 123.597 -0.01 -0.00    +0.000 HD
DOCKED: ENDROOT
DOCKED: BRANCH   1   4
DOCKED: ATOM      4  C   UNL     1      36.742  17.483 123.789 -0.26 -0.00    +0.000 C 
DOCKED: BRANCH   4   8
DOCKED: ATOM      5  C   UNL     1      36.598  13.347 122.530 -0.43 -0.00    +0.000 A 
DOCKED: ATOM      6  C   UNL     1      37.590  14.215 122.029 -0.38 -0.00    +0.000 A 
DOCKED: ATOM      7  C   UNL     1      37.626  15.554 122.429 -0.29 -0.00    +0.000 A 
DOCKED: ATOM      8  C   UNL     1      36.675  16.052 123.331 -0.31 -0.00    +0.000 A 
DOCKED: ATOM      9  C   UNL     1      35.708  15.184 123.858 -0.45 -0.00    +0.000 A 
DOCKED: ATOM     10  C   UNL     1      35.670  13.846 123.460 -0.45 -0.00    +0.000 A 
DOCKED: ATOM     11  CM  UNL     1      36.644  14.700 122.940 +0.00 -0.00    +0.000 AC
DOCKED: BRANCH   5  12
DOCKED: ATOM     12  C   UNL     1      37.063  10.922 122.871 -0.61 -0.00    +0.000 C 
DOCKED: ATOM     13  C   UNL     1      36.520  11.915 122.149 -0.59 -0.00    +0.000 C 
DOCKED: BRANCH  11  14
DOCKED: ATOM     14  O   UNL     1      36.849   9.213 121.266 -2.62 -0.00    +0.000 OA
DOCKED: ATOM     15  C   UNL     1      36.984   9.499 122.485 -0.63 -0.00    +0.000 C 
DOCKED: ATOM     16  N   UNL     1      37.029   8.439 123.449 -0.69 -0.00    +0.000 N 
DOCKED: ATOM     17  O   UNL     1      37.059   7.150 123.039 -2.08 -0.00    +0.000 OA
DOCKED: ATOM     18  H   UNL     1      37.038   8.650 124.411 -0.49 -0.00    +0.000 HD
DOCKED: ENDBRANCH  11  14
DOCKED: ENDBRANCH   5  12
DOCKED: ENDBRANCH   4   8
DOCKED: ENDBRANCH   1   4
DOCKED: BRANCH   1  18
DOCKED: ATOM     19  C   UNL     1      35.356  17.613 121.784 -0.30 -0.00    +0.000 C 
DOCKED: BRANCH  18  19
DOCKED: ATOM     20  C   UNL     1      35.974  18.236 120.521 -0.20 -0.00    +0.000 C 
DOCKED: BRANCH  19  20
DOCKED: ATOM     21  C   UNL     1      35.483  17.525 119.293 -0.15 -0.00    +0.000 A 
DOCKED: ATOM     22  C   UNL     1      34.386  17.863 118.499 -0.16 -0.00    +0.000 A 
DOCKED: ATOM     23  N   UNL     1      34.209  16.950 117.514 -0.15 -0.00    +0.000 N 
DOCKED: ATOM     24  C   UNL     1      35.170  16.028 117.690 -0.12 -0.00    +0.000 A 
DOCKED: ATOM     25  C   UNL     1      35.962  16.339 118.768 -0.13 -0.00    +0.000 A 
DOCKED: ATOM     26  C   UNL     1      37.017  15.516 119.165 -0.19 -0.00    +0.000 A 
DOCKED: ATOM     27  C   UNL     1      37.256  14.348 118.418 -0.29 -0.00    +0.000 A 
DOCKED: ATOM     28  C   UNL     1      36.444  14.031 117.306 -0.34 -0.00    +0.000 A 
DOCKED: ATOM     29  C   UNL     1      35.384  14.877 116.933 -0.26 -0.00    +0.000 A 
DOCKED: ATOM     30  C   UNL     1      33.517  19.066 118.678 -0.24 -0.00    +0.000 C 
DOCKED: ATOM     31  H   UNL     1      33.517  16.960 116.813 -0.00 -0.00    +0.000 HD
DOCKED: ATOM     32  CM  UNL     1      35.015  16.941 118.326 +0.00 -0.00    +0.000 AC
DOCKED: ATOM     33  CM  UNL     1      36.206  15.190 118.047 +0.00 -0.00    +0.000 AC
DOCKED: ENDBRANCH  19  20
DOCKED: ENDBRANCH  18  19
DOCKED: ENDBRANCH   1  18
DOCKED: TORSDOF 7DOCKED: TER
DOCKED: ENDMDL
________________________________________________________________________________


	BEGINNING GENETIC ALGORITHM DOCKING 35 of 100
Run: 35 Seed: 882192082 68372139 [ Run 35 of 100 GA/GALS ]
Beginning LAMARCKIAN GENETIC ALGORITHM (LGA), with a maximum of 2500000 energy evaluations.

Final-Value: -14.359


	FINAL GENETIC ALGORITHM DOCKED STATE
	_______________________________________________


Detailed state:  trans 36.692 18.394 122.950 quatxyzw 0.502350 -0.131540 -0.846952 0.114077 center 0.576 -0.005 0.140 ntor 7 127.2434 147.8036 -27.5483 -44.3272 47.8927 -98.8913 31.8931
State:	 36.692  18.394 122.950   0.506 -0.132 -0.853 166.899    127.24  147.80  -27.55  -44.33   47.89  -98.89   31.89

DOCKED: MODEL       35
DOCKED: USER    Run = 35
DOCKED: USER    DPF = ligand_dock.biased.dpf
DOCKED: USER  
DOCKED: USER    Estimated Free Energy of Binding    =  -10.98 kcal/mol  [=(1)+(2)+(3)-(4)]
DOCKED: USER    Estimated Inhibition Constant, Ki   =    8.90 nM (nanomolar)  [Temperature = 298.15 K]
DOCKED: USER    
DOCKED: USER    (1) Final Intermolecular Energy     =  -13.07 kcal/mol
DOCKED: USER        vdW + Hbond + desolv Energy     =  -13.07 kcal/mol
DOCKED: USER        Electrostatic Energy            =   +0.00 kcal/mol
DOCKED: USER    (2) Final Total Internal Energy     =   -1.29 kcal/mol
DOCKED: USER    (3) Torsional Free Energy           =   +2.09 kcal/mol
DOCKED: USER    (4) Unbound System's Energy  [=(2)] =   -1.29 kcal/mol
DOCKED: USER    
DOCKED: USER    
DOCKED: USER    NEWDPF move ligand.dum.pdbqt
DOCKED: USER    NEWDPF about 0.576000 -0.005000 0.140000
DOCKED: USER    NEWDPF tran0 36.691897 18.394148 122.949997
DOCKED: USER    NEWDPF quaternion0 0.502350 -0.131540 -0.846952 0.114077
DOCKED: USER    NEWDPF axisangle0 0.505651 -0.132404 -0.852517 166.899249
DOCKED: USER    NEWDPF quat0 0.505651 -0.132404 -0.852517 166.899249
DOCKED: USER    NEWDPF dihe0 127.24 147.80 -27.55 -44.33 47.89 -98.89 31.89 
DOCKED: USER  keepresnum = 1 
DOCKED: USER  
DOCKED: REMARK  Name = 
DOCKED: REMARK  8 active torsions:
DOCKED: REMARK  status: ('A' for Active; 'I' for Inactive)
DOCKED: REMARK    1  A    between atoms: C_2  and  C_3
DOCKED: REMARK    2  A    between atoms: C_4  and  C_5
DOCKED: REMARK    3  A    between atoms: C_8  and  C_9
DOCKED: REMARK    4  A    between atoms: C_9  and  N_10
DOCKED: REMARK    5  A    between atoms: N_10  and  C_11
DOCKED: REMARK    6  A    between atoms: C_11  and  C_12
DOCKED: REMARK    7  A    between atoms: C_12  and  C_13
DOCKED: REMARK    8  A    between atoms: C_14  and  C_22
DOCKED: REMARK                            x       y       z     vdW  Elec       q    Type
DOCKED: REMARK                         _______ _______ _______ _____ _____    ______ ____
DOCKED: USER                              x       y       z     vdW  Elec       q    Type
DOCKED: USER                           _______ _______ _______ _____ _____    ______ ____
DOCKED: ROOT
DOCKED: ATOM      1  N   UNL     1      36.734  18.340 123.729 -0.17 -0.00    +0.000 N 
DOCKED: ATOM      2  H   UNL     1      35.815  17.905 123.652 +0.00 -0.00    +0.000 HD
DOCKED: ATOM      3  H   UNL     1      36.660  19.354 123.817 +0.00 -0.00    +0.000 HD
DOCKED: ENDROOT
DOCKED: BRANCH   1   4
DOCKED: ATOM      4  C   UNL     1      37.497  18.052 122.508 -0.15 -0.00    +0.000 C 
DOCKED: BRANCH   4   8
DOCKED: ATOM      5  C   UNL     1      37.511  13.775 121.864 -0.40 -0.00    +0.000 A 
DOCKED: ATOM      6  C   UNL     1      38.711  14.512 121.804 -0.36 -0.00    +0.000 A 
DOCKED: ATOM      7  C   UNL     1      38.701  15.897 122.001 -0.23 -0.00    +0.000 A 
DOCKED: ATOM      8  C   UNL     1      37.497  16.569 122.257 -0.19 -0.00    +0.000 A 
DOCKED: ATOM      9  C   UNL     1      36.307  15.834 122.351 -0.26 -0.00    +0.000 A 
DOCKED: ATOM     10  C   UNL     1      36.315  14.451 122.156 +0.08 -0.00    +0.000 A 
DOCKED: ATOM     11  CM  UNL     1      37.507  15.173 122.073 +0.00 -0.00    +0.000 AC
DOCKED: BRANCH   5  12
DOCKED: ATOM     12  C   UNL     1      36.926  11.455 122.564 -0.62 -0.00    +0.000 C 
DOCKED: ATOM     13  C   UNL     1      37.466  12.303 121.675 -0.49 -0.00    +0.000 C 
DOCKED: BRANCH  11  14
DOCKED: ATOM     14  O   UNL     1      36.708   9.543 121.208 -2.35 -0.00    +0.000 OA
DOCKED: ATOM     15  C   UNL     1      36.886   9.992 122.372 -0.63 -0.00    +0.000 C 
DOCKED: ATOM     16  N   UNL     1      37.014   9.070 123.462 -0.56 -0.00    +0.000 N 
DOCKED: ATOM     17  O   UNL     1      37.076   7.740 123.222 -2.57 -0.00    +0.000 OA
DOCKED: ATOM     18  H   UNL     1      37.058   9.406 124.386 -0.49 -0.00    +0.000 HD
DOCKED: ENDBRANCH  11  14
DOCKED: ENDBRANCH   5  12
DOCKED: ENDBRANCH   4   8
DOCKED: ENDBRANCH   1   4
DOCKED: BRANCH   1  18
DOCKED: ATOM     19  C   UNL     1      37.399  17.832 124.937 -0.02 -0.00    +0.000 C 
DOCKED: BRANCH  18  19
DOCKED: ATOM     20  C   UNL     1      38.059  18.949 125.762 -0.17 -0.00    +0.000 C 
DOCKED: BRANCH  19  20
DOCKED: ATOM     21  C   UNL     1      39.424  18.525 126.222 -0.20 -0.00    +0.000 A 
DOCKED: ATOM     22  C   UNL     1      40.529  18.215 125.427 -0.30 -0.00    +0.000 A 
DOCKED: ATOM     23  N   UNL     1      41.569  17.806 126.191 -0.31 -0.00    +0.000 N 
DOCKED: ATOM     24  C   UNL     1      41.126  17.834 127.460 -0.41 -0.00    +0.000 A 
DOCKED: ATOM     25  C   UNL     1      39.822  18.260 127.519 -0.26 -0.00    +0.000 A 
DOCKED: ATOM     26  C   UNL     1      39.135  18.349 128.730 -0.23 -0.00    +0.000 A 
DOCKED: ATOM     27  C   UNL     1      39.823  17.996 129.904 -0.27 -0.00    +0.000 A 
DOCKED: ATOM     28  C   UNL     1      41.166  17.563 129.843 -0.34 -0.00    +0.000 A 
DOCKED: ATOM     29  C   UNL     1      41.832  17.476 128.608 -0.50 -0.00    +0.000 A 
DOCKED: ATOM     30  C   UNL     1      40.589  18.323 123.936 -0.25 -0.00    +0.000 C 
DOCKED: ATOM     31  H   UNL     1      42.465  17.542 125.881 -0.42 -0.00    +0.000 HD
DOCKED: ATOM     32  CM  UNL     1      40.529  18.117 126.551 +0.00 -0.00    +0.000 AC
DOCKED: ATOM     33  CM  UNL     1      40.484  17.913 128.678 +0.00 -0.00    +0.000 AC
DOCKED: ENDBRANCH  19  20
DOCKED: ENDBRANCH  18  19
DOCKED: ENDBRANCH   1  18
DOCKED: TORSDOF 7DOCKED: TER
DOCKED: ENDMDL
________________________________________________________________________________


	BEGINNING GENETIC ALGORITHM DOCKING 36 of 100
Run: 36 Seed: 902950546 1146417136 [ Run 36 of 100 GA/GALS ]
Beginning LAMARCKIAN GENETIC ALGORITHM (LGA), with a maximum of 2500000 energy evaluations.

Final-Value: -14.534


	FINAL GENETIC ALGORITHM DOCKED STATE
	_______________________________________________


Detailed state:  trans 37.339 18.077 123.263 quatxyzw 0.000648 0.881634 0.347955 -0.318824 center 0.576 -0.005 0.140 ntor 7 113.5611 -178.7992 6.5806 82.0265 22.2984 105.9742 -176.6327
State:	 37.339  18.077 123.263   0.001  0.930  0.367 -142.816    113.56 -178.80    6.58   82.03   22.30  105.97 -176.63

DOCKED: MODEL       36
DOCKED: USER    Run = 36
DOCKED: USER    DPF = ligand_dock.biased.dpf
DOCKED: USER  
DOCKED: USER    Estimated Free Energy of Binding    =  -11.53 kcal/mol  [=(1)+(2)+(3)-(4)]
DOCKED: USER    Estimated Inhibition Constant, Ki   =    3.56 nM (nanomolar)  [Temperature = 298.15 K]
DOCKED: USER    
DOCKED: USER    (1) Final Intermolecular Energy     =  -13.61 kcal/mol
DOCKED: USER        vdW + Hbond + desolv Energy     =  -13.61 kcal/mol
DOCKED: USER        Electrostatic Energy            =   +0.00 kcal/mol
DOCKED: USER    (2) Final Total Internal Energy     =   -0.92 kcal/mol
DOCKED: USER    (3) Torsional Free Energy           =   +2.09 kcal/mol
DOCKED: USER    (4) Unbound System's Energy  [=(2)] =   -0.92 kcal/mol
DOCKED: USER    
DOCKED: USER    
DOCKED: USER    NEWDPF move ligand.dum.pdbqt
DOCKED: USER    NEWDPF about 0.576000 -0.005000 0.140000
DOCKED: USER    NEWDPF tran0 37.338630 18.076848 123.262679
DOCKED: USER    NEWDPF quaternion0 0.000648 0.881634 0.347955 -0.318824
DOCKED: USER    NEWDPF axisangle0 0.000684 0.930176 0.367113 -142.816375
DOCKED: USER    NEWDPF quat0 0.000684 0.930176 0.367113 -142.816375
DOCKED: USER    NEWDPF dihe0 113.56 -178.80 6.58 82.03 22.30 105.97 -176.63 
DOCKED: USER  keepresnum = 1 
DOCKED: USER  
DOCKED: REMARK  Name = 
DOCKED: REMARK  8 active torsions:
DOCKED: REMARK  status: ('A' for Active; 'I' for Inactive)
DOCKED: REMARK    1  A    between atoms: C_2  and  C_3
DOCKED: REMARK    2  A    between atoms: C_4  and  C_5
DOCKED: REMARK    3  A    between atoms: C_8  and  C_9
DOCKED: REMARK    4  A    between atoms: C_9  and  N_10
DOCKED: REMARK    5  A    between atoms: N_10  and  C_11
DOCKED: REMARK    6  A    between atoms: C_11  and  C_12
DOCKED: REMARK    7  A    between atoms: C_12  and  C_13
DOCKED: REMARK    8  A    between atoms: C_14  and  C_22
DOCKED: REMARK                            x       y       z     vdW  Elec       q    Type
DOCKED: REMARK                         _______ _______ _______ _____ _____    ______ ____
DOCKED: USER                              x       y       z     vdW  Elec       q    Type
DOCKED: USER                           _______ _______ _______ _____ _____    ______ ____
DOCKED: ROOT
DOCKED: ATOM      1  N   UNL     1      38.049  18.198 123.566 -0.15 -0.00    +0.000 N 
DOCKED: ATOM      2  H   UNL     1      37.840  19.185 123.413 +0.00 -0.00    +0.000 HD
DOCKED: ATOM      3  H   UNL     1      38.486  17.777 122.745 +0.00 -0.00    +0.000 HD
DOCKED: ENDROOT
DOCKED: BRANCH   1   4
DOCKED: ATOM      4  C   UNL     1      36.792  17.483 123.819 -0.26 -0.00    +0.000 C 
DOCKED: BRANCH   4   8
DOCKED: ATOM      5  C   UNL     1      37.232  13.349 122.625 -0.48 -0.00    +0.000 A 
DOCKED: ATOM      6  C   UNL     1      38.262  14.280 122.379 -0.40 -0.00    +0.000 A 
DOCKED: ATOM      7  C   UNL     1      38.111  15.618 122.756 -0.30 -0.00    +0.000 A 
DOCKED: ATOM      8  C   UNL     1      36.933  16.052 123.379 -0.30 -0.00    +0.000 A 
DOCKED: ATOM      9  C   UNL     1      35.920  15.122 123.656 -0.44 -0.00    +0.000 A 
DOCKED: ATOM     10  C   UNL     1      36.069  13.785 123.281 -0.46 -0.00    +0.000 A 
DOCKED: ATOM     11  CM  UNL     1      37.087  14.701 123.013 +0.00 -0.00    +0.000 AC
DOCKED: BRANCH   5  12
DOCKED: ATOM     12  C   UNL     1      36.609  10.944 122.821 -0.68 -0.00    +0.000 C 
DOCKED: ATOM     13  C   UNL     1      37.343  11.915 122.257 -0.47 -0.00    +0.000 C 
DOCKED: BRANCH  11  14
DOCKED: ATOM     14  O   UNL     1      36.687   9.208 121.232 -2.60 -0.00    +0.000 OA
DOCKED: ATOM     15  C   UNL     1      36.726   9.518 122.453 -0.71 -0.00    +0.000 C 
DOCKED: ATOM     16  N   UNL     1      36.855   8.480 123.433 -0.67 -0.00    +0.000 N 
DOCKED: ATOM     17  O   UNL     1      37.065   7.202 123.043 -2.14 -0.00    +0.000 OA
DOCKED: ATOM     18  H   UNL     1      36.792   8.699 124.390 -0.43 -0.00    +0.000 HD
DOCKED: ENDBRANCH  11  14
DOCKED: ENDBRANCH   5  12
DOCKED: ENDBRANCH   4   8
DOCKED: ENDBRANCH   1   4
DOCKED: BRANCH   1  18
DOCKED: ATOM     19  C   UNL     1      38.994  18.082 124.686 -0.22 -0.00    +0.000 C 
DOCKED: BRANCH  18  19
DOCKED: ATOM     20  C   UNL     1      39.060  19.362 125.536 -0.16 -0.00    +0.000 C 
DOCKED: BRANCH  19  20
DOCKED: ATOM     21  C   UNL     1      40.308  19.373 126.370 -0.19 -0.00    +0.000 A 
DOCKED: ATOM     22  C   UNL     1      41.516  20.010 126.082 -0.15 -0.00    +0.000 A 
DOCKED: ATOM     23  N   UNL     1      42.439  19.741 127.034 -0.04 -0.00    +0.000 N 
DOCKED: ATOM     24  C   UNL     1      41.834  18.922 127.912 -0.29 -0.00    +0.000 A 
DOCKED: ATOM     25  C   UNL     1      40.537  18.669 127.538 -0.30 -0.00    +0.000 A 
DOCKED: ATOM     26  C   UNL     1      39.712  17.824 128.281 -0.27 -0.00    +0.000 A 
DOCKED: ATOM     27  C   UNL     1      40.247  17.238 129.442 -0.36 -0.00    +0.000 A 
DOCKED: ATOM     28  C   UNL     1      41.579  17.503 129.829 -0.36 -0.00    +0.000 A 
DOCKED: ATOM     29  C   UNL     1      42.390  18.354 129.057 -0.38 -0.00    +0.000 A 
DOCKED: ATOM     30  C   UNL     1      41.778  20.887 124.899 -0.10 -0.00    +0.000 C 
DOCKED: ATOM     31  H   UNL     1      43.364  20.076 127.076 -0.31 -0.00    +0.000 HD
DOCKED: ATOM     32  CM  UNL     1      41.363  19.356 126.989 +0.00 -0.00    +0.000 AC
DOCKED: ATOM     33  CM  UNL     1      41.049  18.085 128.677 +0.00 -0.00    +0.000 AC
DOCKED: ENDBRANCH  19  20
DOCKED: ENDBRANCH  18  19
DOCKED: ENDBRANCH   1  18
DOCKED: TORSDOF 7DOCKED: TER
DOCKED: ENDMDL
________________________________________________________________________________


	BEGINNING GENETIC ALGORITHM DOCKING 37 of 100
Run: 37 Seed: 585345779 2066729589 [ Run 37 of 100 GA/GALS ]
Beginning LAMARCKIAN GENETIC ALGORITHM (LGA), with a maximum of 2500000 energy evaluations.

Final-Value: -14.909


	FINAL GENETIC ALGORITHM DOCKED STATE
	_______________________________________________


Detailed state:  trans 38.092 17.550 121.665 quatxyzw 0.660274 -0.692141 -0.250499 -0.149093 center 0.576 -0.005 0.140 ntor 7 -178.6457 159.3892 178.2575 144.4471 -139.2970 -12.0124 170.2075
State:	 38.092  17.550 121.665   0.668 -0.700 -0.253 -162.851   -178.65  159.39  178.26  144.45 -139.30  -12.01  170.21

DOCKED: MODEL       37
DOCKED: USER    Run = 37
DOCKED: USER    DPF = ligand_dock.biased.dpf
DOCKED: USER  
DOCKED: USER    Estimated Free Energy of Binding    =  -10.90 kcal/mol  [=(1)+(2)+(3)-(4)]
DOCKED: USER    Estimated Inhibition Constant, Ki   =   10.22 nM (nanomolar)  [Temperature = 298.15 K]
DOCKED: USER    
DOCKED: USER    (1) Final Intermolecular Energy     =  -12.99 kcal/mol
DOCKED: USER        vdW + Hbond + desolv Energy     =  -12.99 kcal/mol
DOCKED: USER        Electrostatic Energy            =   +0.00 kcal/mol
DOCKED: USER    (2) Final Total Internal Energy     =   -1.92 kcal/mol
DOCKED: USER    (3) Torsional Free Energy           =   +2.09 kcal/mol
DOCKED: USER    (4) Unbound System's Energy  [=(2)] =   -1.92 kcal/mol
DOCKED: USER    
DOCKED: USER    
DOCKED: USER    NEWDPF move ligand.dum.pdbqt
DOCKED: USER    NEWDPF about 0.576000 -0.005000 0.140000
DOCKED: USER    NEWDPF tran0 38.091886 17.550406 121.664877
DOCKED: USER    NEWDPF quaternion0 0.660274 -0.692141 -0.250499 -0.149093
DOCKED: USER    NEWDPF axisangle0 0.667738 -0.699965 -0.253330 -162.851211
DOCKED: USER    NEWDPF quat0 0.667738 -0.699965 -0.253330 -162.851211
DOCKED: USER    NEWDPF dihe0 -178.65 159.39 178.26 144.45 -139.30 -12.01 170.21 
DOCKED: USER  keepresnum = 1 
DOCKED: USER  
DOCKED: REMARK  Name = 
DOCKED: REMARK  8 active torsions:
DOCKED: REMARK  status: ('A' for Active; 'I' for Inactive)
DOCKED: REMARK    1  A    between atoms: C_2  and  C_3
DOCKED: REMARK    2  A    between atoms: C_4  and  C_5
DOCKED: REMARK    3  A    between atoms: C_8  and  C_9
DOCKED: REMARK    4  A    between atoms: C_9  and  N_10
DOCKED: REMARK    5  A    between atoms: N_10  and  C_11
DOCKED: REMARK    6  A    between atoms: C_11  and  C_12
DOCKED: REMARK    7  A    between atoms: C_12  and  C_13
DOCKED: REMARK    8  A    between atoms: C_14  and  C_22
DOCKED: REMARK                            x       y       z     vdW  Elec       q    Type
DOCKED: REMARK                         _______ _______ _______ _____ _____    ______ ____
DOCKED: USER                              x       y       z     vdW  Elec       q    Type
DOCKED: USER                           _______ _______ _______ _____ _____    ______ ____
DOCKED: ROOT
DOCKED: ATOM      1  N   UNL     1      37.885  18.298 121.565 -0.08 -0.00    +0.000 N 
DOCKED: ATOM      2  H   UNL     1      36.951  17.918 121.412 +0.00 -0.00    +0.000 HD
DOCKED: ATOM      3  H   UNL     1      38.417  18.343 120.695 +0.00 -0.00    +0.000 HD
DOCKED: ENDROOT
DOCKED: BRANCH   1   4
DOCKED: ATOM      4  C   UNL     1      38.609  17.412 122.486 -0.17 -0.00    +0.000 C 
DOCKED: BRANCH   4   8
DOCKED: ATOM      5  C   UNL     1      37.472  13.294 121.814 -0.43 -0.00    +0.000 A 
DOCKED: ATOM      6  C   UNL     1      38.001  14.072 120.764 -0.33 -0.00    +0.000 A 
DOCKED: ATOM      7  C   UNL     1      38.357  15.406 120.982 -0.22 -0.00    +0.000 A 
DOCKED: ATOM      8  C   UNL     1      38.188  15.989 122.246 -0.23 -0.00    +0.000 A 
DOCKED: ATOM      9  C   UNL     1      37.693  15.209 123.301 -0.30 -0.00    +0.000 A 
DOCKED: ATOM     10  C   UNL     1      37.339  13.875 123.086 -0.47 -0.00    +0.000 A 
DOCKED: ATOM     11  CM  UNL     1      37.842  14.641 122.033 +0.00 -0.00    +0.000 AC
DOCKED: BRANCH   5  12
DOCKED: ATOM     12  C   UNL     1      37.379  10.909 122.532 -0.13 -0.00    +0.000 C 
DOCKED: ATOM     13  C   UNL     1      37.090  11.870 121.641 -0.56 -0.00    +0.000 C 
DOCKED: BRANCH  11  14
DOCKED: ATOM     14  O   UNL     1      36.688   9.095 121.199 -2.62 -0.00    +0.000 OA
DOCKED: ATOM     15  C   UNL     1      36.998   9.493 122.354 -0.63 -0.00    +0.000 C 
DOCKED: ATOM     16  N   UNL     1      36.943   8.570 123.449 -0.66 -0.00    +0.000 N 
DOCKED: ATOM     17  O   UNL     1      36.690   7.260 123.219 -2.10 -0.00    +0.000 OA
DOCKED: ATOM     18  H   UNL     1      37.088   8.889 124.368 -0.54 -0.00    +0.000 HD
DOCKED: ENDBRANCH  11  14
DOCKED: ENDBRANCH   5  12
DOCKED: ENDBRANCH   4   8
DOCKED: ENDBRANCH   1   4
DOCKED: BRANCH   1  18
DOCKED: ATOM     19  C   UNL     1      37.760  19.667 122.087 -0.09 -0.00    +0.000 C 
DOCKED: BRANCH  18  19
DOCKED: ATOM     20  C   UNL     1      36.298  20.075 122.328 -0.13 -0.00    +0.000 C 
DOCKED: BRANCH  19  20
DOCKED: ATOM     21  C   UNL     1      35.503  18.903 122.829 -0.18 -0.00    +0.000 A 
DOCKED: ATOM     22  C   UNL     1      34.785  17.979 122.069 -0.31 -0.00    +0.000 A 
DOCKED: ATOM     23  N   UNL     1      34.137  17.100 122.870 -0.41 -0.00    +0.000 N 
DOCKED: ATOM     24  C   UNL     1      34.421  17.473 124.130 -0.38 -0.00    +0.000 A 
DOCKED: ATOM     25  C   UNL     1      35.245  18.571 124.146 -0.25 -0.00    +0.000 A 
DOCKED: ATOM     26  C   UNL     1      35.661  19.158 125.341 -0.19 -0.00    +0.000 A 
DOCKED: ATOM     27  C   UNL     1      35.216  18.584 126.545 -0.19 -0.00    +0.000 A 
DOCKED: ATOM     28  C   UNL     1      34.372  17.450 126.528 -0.24 -0.00    +0.000 A 
DOCKED: ATOM     29  C   UNL     1      33.964  16.883 125.308 -0.36 -0.00    +0.000 A 
DOCKED: ATOM     30  C   UNL     1      34.730  17.932 120.575 -0.28 -0.00    +0.000 C 
DOCKED: ATOM     31  H   UNL     1      33.573  16.344 122.588 -0.04 -0.00    +0.000 HD
DOCKED: ATOM     32  CM  UNL     1      34.796  17.976 123.197 -0.05 -0.00    +0.000 AC
DOCKED: ATOM     33  CM  UNL     1      34.814  18.020 125.333 -0.44 -0.00    +0.000 AC
DOCKED: ENDBRANCH  19  20
DOCKED: ENDBRANCH  18  19
DOCKED: ENDBRANCH   1  18
DOCKED: TORSDOF 7DOCKED: TER
DOCKED: ENDMDL
________________________________________________________________________________


	BEGINNING GENETIC ALGORITHM DOCKING 38 of 100
Run: 38 Seed: 1369821056 1057816588 [ Run 38 of 100 GA/GALS ]
Beginning LAMARCKIAN GENETIC ALGORITHM (LGA), with a maximum of 2500000 energy evaluations.

Final-Value: -15.725


	FINAL GENETIC ALGORITHM DOCKED STATE
	_______________________________________________


Detailed state:  trans 37.286 17.583 124.224 quatxyzw -0.090869 0.236870 -0.618027 -0.744096 center 0.576 -0.005 0.140 ntor 7 -49.2240 154.5030 166.0151 -179.8388 -180.0000 13.3355 -178.3674
State:	 37.286  17.583 124.224  -0.136  0.355 -0.925 -83.837    -49.22  154.50  166.02 -179.84 -180.00   13.34 -178.37

DOCKED: MODEL       38
DOCKED: USER    Run = 38
DOCKED: USER    DPF = ligand_dock.biased.dpf
DOCKED: USER  
DOCKED: USER    Estimated Free Energy of Binding    =  -11.94 kcal/mol  [=(1)+(2)+(3)-(4)]
DOCKED: USER    Estimated Inhibition Constant, Ki   =    1.76 nM (nanomolar)  [Temperature = 298.15 K]
DOCKED: USER    
DOCKED: USER    (1) Final Intermolecular Energy     =  -14.03 kcal/mol
DOCKED: USER        vdW + Hbond + desolv Energy     =  -14.03 kcal/mol
DOCKED: USER        Electrostatic Energy            =   +0.00 kcal/mol
DOCKED: USER    (2) Final Total Internal Energy     =   -1.69 kcal/mol
DOCKED: USER    (3) Torsional Free Energy           =   +2.09 kcal/mol
DOCKED: USER    (4) Unbound System's Energy  [=(2)] =   -1.69 kcal/mol
DOCKED: USER    
DOCKED: USER    
DOCKED: USER    NEWDPF move ligand.dum.pdbqt
DOCKED: USER    NEWDPF about 0.576000 -0.005000 0.140000
DOCKED: USER    NEWDPF tran0 37.286133 17.583088 124.223509
DOCKED: USER    NEWDPF quaternion0 -0.090869 0.236870 -0.618027 -0.744096
DOCKED: USER    NEWDPF axisangle0 -0.136016 0.354557 -0.925089 -83.836998
DOCKED: USER    NEWDPF quat0 -0.136016 0.354557 -0.925089 -83.836998
DOCKED: USER    NEWDPF dihe0 -49.22 154.50 166.02 -179.84 -180.00 13.34 -178.37 
DOCKED: USER  keepresnum = 1 
DOCKED: USER  
DOCKED: REMARK  Name = 
DOCKED: REMARK  8 active torsions:
DOCKED: REMARK  status: ('A' for Active; 'I' for Inactive)
DOCKED: REMARK    1  A    between atoms: C_2  and  C_3
DOCKED: REMARK    2  A    between atoms: C_4  and  C_5
DOCKED: REMARK    3  A    between atoms: C_8  and  C_9
DOCKED: REMARK    4  A    between atoms: C_9  and  N_10
DOCKED: REMARK    5  A    between atoms: N_10  and  C_11
DOCKED: REMARK    6  A    between atoms: C_11  and  C_12
DOCKED: REMARK    7  A    between atoms: C_12  and  C_13
DOCKED: REMARK    8  A    between atoms: C_14  and  C_22
DOCKED: REMARK                            x       y       z     vdW  Elec       q    Type
DOCKED: REMARK                         _______ _______ _______ _____ _____    ______ ____
DOCKED: USER                              x       y       z     vdW  Elec       q    Type
DOCKED: USER                           _______ _______ _______ _____ _____    ______ ____
DOCKED: ROOT
DOCKED: ATOM      1  N   UNL     1      37.447  18.244 124.609 -0.19 -0.00    +0.000 N 
DOCKED: ATOM      2  H   UNL     1      38.385  17.853 124.694 -0.02 -0.00    +0.000 HD
DOCKED: ATOM      3  H   UNL     1      36.849  17.954 125.383 -0.02 -0.00    +0.000 HD
DOCKED: ENDROOT
DOCKED: BRANCH   1   4
DOCKED: ATOM      4  C   UNL     1      36.840  17.749 123.367 -0.22 -0.00    +0.000 C 
DOCKED: BRANCH   4   8
DOCKED: ATOM      5  C   UNL     1      36.629  13.429 123.404 -0.52 -0.00    +0.000 A 
DOCKED: ATOM      6  C   UNL     1      35.539  14.203 123.851 -0.48 -0.00    +0.000 A 
DOCKED: ATOM      7  C   UNL     1      35.616  15.600 123.849 -0.43 -0.00    +0.000 A 
DOCKED: ATOM      8  C   UNL     1      36.777  16.247 123.405 -0.30 -0.00    +0.000 A 
DOCKED: ATOM      9  C   UNL     1      37.850  15.480 122.927 -0.32 -0.00    +0.000 A 
DOCKED: ATOM     10  C   UNL     1      37.776  14.086 122.928 -0.44 -0.00    +0.000 A 
DOCKED: ATOM     11  CM  UNL     1      36.698  14.841 123.394 +0.00 -0.00    +0.000 AC
DOCKED: BRANCH   5  12
DOCKED: ATOM     12  C   UNL     1      36.971  11.215 122.311 -0.59 -0.00    +0.000 C 
DOCKED: ATOM     13  C   UNL     1      36.597  11.945 123.373 -0.69 -0.00    +0.000 C 
DOCKED: BRANCH  11  14
DOCKED: ATOM     14  O   UNL     1      36.690   9.162 121.193 -2.62 -0.00    +0.000 OA
DOCKED: ATOM     15  C   UNL     1      36.936   9.739 122.286 -0.63 -0.00    +0.000 C 
DOCKED: ATOM     16  N   UNL     1      37.143   8.946 123.462 -0.56 -0.00    +0.000 N 
DOCKED: ATOM     17  O   UNL     1      37.205   7.597 123.368 -2.53 -0.00    +0.000 OA
DOCKED: ATOM     18  H   UNL     1      37.241   9.383 124.338 -0.58 -0.00    +0.000 HD
DOCKED: ENDBRANCH  11  14
DOCKED: ENDBRANCH   5  12
DOCKED: ENDBRANCH   4   8
DOCKED: ENDBRANCH   1   4
DOCKED: BRANCH   1  18
DOCKED: ATOM     19  C   UNL     1      37.541  19.711 124.639 -0.12 -0.00    +0.000 C 
DOCKED: BRANCH  18  19
DOCKED: ATOM     20  C   UNL     1      38.976  20.214 124.413 -0.07 -0.00    +0.000 C 
DOCKED: BRANCH  19  20
DOCKED: ATOM     21  C   UNL     1      39.929  19.057 124.324 -0.15 -0.00    +0.000 A 
DOCKED: ATOM     22  C   UNL     1      40.817  18.612 125.305 -0.28 -0.00    +0.000 A 
DOCKED: ATOM     23  N   UNL     1      41.565  17.583 124.841 -0.33 -0.00    +0.000 N 
DOCKED: ATOM     24  C   UNL     1      41.175  17.387 123.570 -0.30 -0.00    +0.000 A 
DOCKED: ATOM     25  C   UNL     1      40.184  18.270 123.216 -0.15 -0.00    +0.000 A 
DOCKED: ATOM     26  C   UNL     1      39.633  18.277 121.935 -0.07 -0.00    +0.000 A 
DOCKED: ATOM     27  C   UNL     1      40.117  17.339 121.006 -0.09 -0.00    +0.000 A 
DOCKED: ATOM     28  C   UNL     1      41.132  16.427 121.372 -0.21 -0.00    +0.000 A 
DOCKED: ATOM     29  C   UNL     1      41.674  16.447 122.670 -0.36 -0.00    +0.000 A 
DOCKED: ATOM     30  C   UNL     1      40.937  19.166 126.689 -0.28 -0.00    +0.000 C 
DOCKED: ATOM     31  H   UNL     1      42.255  17.082 125.335 -0.50 -0.00    +0.000 HD
DOCKED: ATOM     32  CM  UNL     1      40.761  18.163 124.271 +0.00 -0.00    +0.000 AC
DOCKED: ATOM     33  CM  UNL     1      40.652  17.358 122.294 +0.00 -0.00    +0.000 AC
DOCKED: ENDBRANCH  19  20
DOCKED: ENDBRANCH  18  19
DOCKED: ENDBRANCH   1  18
DOCKED: TORSDOF 7DOCKED: TER
DOCKED: ENDMDL
________________________________________________________________________________


	BEGINNING GENETIC ALGORITHM DOCKING 39 of 100
Run: 39 Seed: 151562447 1415279138 [ Run 39 of 100 GA/GALS ]
Beginning LAMARCKIAN GENETIC ALGORITHM (LGA), with a maximum of 2500000 energy evaluations.

Final-Value: -14.983


	FINAL GENETIC ALGORITHM DOCKED STATE
	_______________________________________________


Detailed state:  trans 37.660 17.723 122.839 quatxyzw -0.686801 0.580477 0.403039 0.170031 center 0.576 -0.005 0.140 ntor 7 -170.4808 116.3192 -173.6599 -159.0782 -131.2479 -16.8864 153.3673
State:	 37.660  17.723 122.839  -0.697  0.589  0.409 160.421   -170.48  116.32 -173.66 -159.08 -131.25  -16.89  153.37

DOCKED: MODEL       39
DOCKED: USER    Run = 39
DOCKED: USER    DPF = ligand_dock.biased.dpf
DOCKED: USER  
DOCKED: USER    Estimated Free Energy of Binding    =  -11.29 kcal/mol  [=(1)+(2)+(3)-(4)]
DOCKED: USER    Estimated Inhibition Constant, Ki   =    5.26 nM (nanomolar)  [Temperature = 298.15 K]
DOCKED: USER    
DOCKED: USER    (1) Final Intermolecular Energy     =  -13.38 kcal/mol
DOCKED: USER        vdW + Hbond + desolv Energy     =  -13.38 kcal/mol
DOCKED: USER        Electrostatic Energy            =   +0.00 kcal/mol
DOCKED: USER    (2) Final Total Internal Energy     =   -1.60 kcal/mol
DOCKED: USER    (3) Torsional Free Energy           =   +2.09 kcal/mol
DOCKED: USER    (4) Unbound System's Energy  [=(2)] =   -1.60 kcal/mol
DOCKED: USER    
DOCKED: USER    
DOCKED: USER    NEWDPF move ligand.dum.pdbqt
DOCKED: USER    NEWDPF about 0.576000 -0.005000 0.140000
DOCKED: USER    NEWDPF tran0 37.660400 17.722641 122.838748
DOCKED: USER    NEWDPF quaternion0 -0.686801 0.580477 0.403039 0.170031
DOCKED: USER    NEWDPF axisangle0 -0.696949 0.589054 0.408995 160.420726
DOCKED: USER    NEWDPF quat0 -0.696949 0.589054 0.408995 160.420726
DOCKED: USER    NEWDPF dihe0 -170.48 116.32 -173.66 -159.08 -131.25 -16.89 153.37 
DOCKED: USER  keepresnum = 1 
DOCKED: USER  
DOCKED: REMARK  Name = 
DOCKED: REMARK  8 active torsions:
DOCKED: REMARK  status: ('A' for Active; 'I' for Inactive)
DOCKED: REMARK    1  A    between atoms: C_2  and  C_3
DOCKED: REMARK    2  A    between atoms: C_4  and  C_5
DOCKED: REMARK    3  A    between atoms: C_8  and  C_9
DOCKED: REMARK    4  A    between atoms: C_9  and  N_10
DOCKED: REMARK    5  A    between atoms: N_10  and  C_11
DOCKED: REMARK    6  A    between atoms: C_11  and  C_12
DOCKED: REMARK    7  A    between atoms: C_12  and  C_13
DOCKED: REMARK    8  A    between atoms: C_14  and  C_22
DOCKED: REMARK                            x       y       z     vdW  Elec       q    Type
DOCKED: REMARK                         _______ _______ _______ _____ _____    ______ ____
DOCKED: USER                              x       y       z     vdW  Elec       q    Type
DOCKED: USER                           _______ _______ _______ _____ _____    ______ ____
DOCKED: ROOT
DOCKED: ATOM      1  N   UNL     1      37.350  18.424 122.987 -0.12 -0.00    +0.000 N 
DOCKED: ATOM      2  H   UNL     1      36.459  17.930 122.957 +0.00 -0.00    +0.000 HD
DOCKED: ATOM      3  H   UNL     1      37.624  18.757 122.062 +0.00 -0.00    +0.000 HD
DOCKED: ENDROOT
DOCKED: BRANCH   1   4
DOCKED: ATOM      4  C   UNL     1      38.388  17.498 123.455 -0.22 -0.00    +0.000 C 
DOCKED: BRANCH   4   8
DOCKED: ATOM      5  C   UNL     1      37.388  13.434 122.363 -0.46 -0.00    +0.000 A 
DOCKED: ATOM      6  C   UNL     1      38.511  14.072 121.799 -0.37 -0.00    +0.000 A 
DOCKED: ATOM      7  C   UNL     1      38.825  15.390 122.145 -0.30 -0.00    +0.000 A 
DOCKED: ATOM      8  C   UNL     1      38.025  16.095 123.056 -0.27 -0.00    +0.000 A 
DOCKED: ATOM      9  C   UNL     1      36.926  15.452 123.644 -0.30 -0.00    +0.000 A 
DOCKED: ATOM     10  C   UNL     1      36.611  14.136 123.301 -0.46 -0.00    +0.000 A 
DOCKED: ATOM     11  CM  UNL     1      37.714  14.764 122.718 +0.00 -0.00    +0.000 AC
DOCKED: BRANCH   5  12
DOCKED: ATOM     12  C   UNL     1      37.405  10.975 122.767 -0.18 -0.00    +0.000 C 
DOCKED: ATOM     13  C   UNL     1      37.016  12.034 122.041 -0.58 -0.00    +0.000 C 
DOCKED: BRANCH  11  14
DOCKED: ATOM     14  O   UNL     1      36.774   9.297 121.241 -2.56 -0.00    +0.000 OA
DOCKED: ATOM     15  C   UNL     1      37.034   9.584 122.440 -0.61 -0.00    +0.000 C 
DOCKED: ATOM     16  N   UNL     1      36.934   8.561 123.439 -0.66 -0.00    +0.000 N 
DOCKED: ATOM     17  O   UNL     1      36.693   7.279 123.076 -2.09 -0.00    +0.000 OA
DOCKED: ATOM     18  H   UNL     1      37.041   8.791 124.390 -0.52 -0.00    +0.000 HD
DOCKED: ENDBRANCH  11  14
DOCKED: ENDBRANCH   5  12
DOCKED: ENDBRANCH   4   8
DOCKED: ENDBRANCH   1   4
DOCKED: BRANCH   1  18
DOCKED: ATOM     19  C   UNL     1      37.210  19.597 123.863 -0.13 -0.00    +0.000 C 
DOCKED: BRANCH  18  19
DOCKED: ATOM     20  C   UNL     1      35.743  19.912 124.198 -0.18 -0.00    +0.000 C 
DOCKED: BRANCH  19  20
DOCKED: ATOM     21  C   UNL     1      35.003  18.652 124.545 -0.25 -0.00    +0.000 A 
DOCKED: ATOM     22  C   UNL     1      34.425  17.737 123.663 -0.36 -0.00    +0.000 A 
DOCKED: ATOM     23  N   UNL     1      33.783  16.758 124.343 -0.35 -0.00    +0.000 N 
DOCKED: ATOM     24  C   UNL     1      33.932  17.056 125.645 -0.37 -0.00    +0.000 A 
DOCKED: ATOM     25  C   UNL     1      34.663  18.206 125.808 -0.28 -0.00    +0.000 A 
DOCKED: ATOM     26  C   UNL     1      34.930  18.731 127.074 -0.17 -0.00    +0.000 A 
DOCKED: ATOM     27  C   UNL     1      34.432  18.038 128.191 -0.17 -0.00    +0.000 A 
DOCKED: ATOM     28  C   UNL     1      33.685  16.851 128.023 -0.32 -0.00    +0.000 A 
DOCKED: ATOM     29  C   UNL     1      33.425  16.349 126.735 -0.32 -0.00    +0.000 A 
DOCKED: ATOM     30  C   UNL     1      34.499  17.798 122.171 -0.38 -0.00    +0.000 C 
DOCKED: ATOM     31  H   UNL     1      33.305  15.986 123.961 -0.02 -0.00    +0.000 HD
DOCKED: ATOM     32  CM  UNL     1      34.343  17.652 124.786 -0.36 -0.00    +0.000 AC
DOCKED: ATOM     33  CM  UNL     1      34.178  17.539 126.913 -0.03 -0.00    +0.000 AC
DOCKED: ENDBRANCH  19  20
DOCKED: ENDBRANCH  18  19
DOCKED: ENDBRANCH   1  18
DOCKED: TORSDOF 7DOCKED: TER
DOCKED: ENDMDL
________________________________________________________________________________


	BEGINNING GENETIC ALGORITHM DOCKING 40 of 100
Run: 40 Seed: 1998816164 1888498801 [ Run 40 of 100 GA/GALS ]
Beginning LAMARCKIAN GENETIC ALGORITHM (LGA), with a maximum of 2500000 energy evaluations.

Final-Value: -14.278


	FINAL GENETIC ALGORITHM DOCKED STATE
	_______________________________________________


Detailed state:  trans 37.500 16.141 120.598 quatxyzw -0.438123 0.782650 0.187560 0.400410 center 0.576 -0.005 0.140 ntor 7 21.1861 75.6461 -180.0000 135.7952 180.0000 1.2169 -173.7779
State:	 37.500  16.141 120.598  -0.478  0.854  0.205 132.792     21.19   75.65 -180.00  135.80  180.00    1.22 -173.78

DOCKED: MODEL       40
DOCKED: USER    Run = 40
DOCKED: USER    DPF = ligand_dock.biased.dpf
DOCKED: USER  
DOCKED: USER    Estimated Free Energy of Binding    =  -10.31 kcal/mol  [=(1)+(2)+(3)-(4)]
DOCKED: USER    Estimated Inhibition Constant, Ki   =   27.57 nM (nanomolar)  [Temperature = 298.15 K]
DOCKED: USER    
DOCKED: USER    (1) Final Intermolecular Energy     =  -12.40 kcal/mol
DOCKED: USER        vdW + Hbond + desolv Energy     =  -12.40 kcal/mol
DOCKED: USER        Electrostatic Energy            =   +0.00 kcal/mol
DOCKED: USER    (2) Final Total Internal Energy     =   -1.88 kcal/mol
DOCKED: USER    (3) Torsional Free Energy           =   +2.09 kcal/mol
DOCKED: USER    (4) Unbound System's Energy  [=(2)] =   -1.88 kcal/mol
DOCKED: USER    
DOCKED: USER    
DOCKED: USER    NEWDPF move ligand.dum.pdbqt
DOCKED: USER    NEWDPF about 0.576000 -0.005000 0.140000
DOCKED: USER    NEWDPF tran0 37.499504 16.140746 120.598464
DOCKED: USER    NEWDPF quaternion0 -0.438123 0.782650 0.187560 0.400410
DOCKED: USER    NEWDPF axisangle0 -0.478124 0.854108 0.204685 132.792373
DOCKED: USER    NEWDPF quat0 -0.478124 0.854108 0.204685 132.792373
DOCKED: USER    NEWDPF dihe0 21.19 75.65 -180.00 135.80 180.00 1.22 -173.78 
DOCKED: USER  keepresnum = 1 
DOCKED: USER  
DOCKED: REMARK  Name = 
DOCKED: REMARK  8 active torsions:
DOCKED: REMARK  status: ('A' for Active; 'I' for Inactive)
DOCKED: REMARK    1  A    between atoms: C_2  and  C_3
DOCKED: REMARK    2  A    between atoms: C_4  and  C_5
DOCKED: REMARK    3  A    between atoms: C_8  and  C_9
DOCKED: REMARK    4  A    between atoms: C_9  and  N_10
DOCKED: REMARK    5  A    between atoms: N_10  and  C_11
DOCKED: REMARK    6  A    between atoms: C_11  and  C_12
DOCKED: REMARK    7  A    between atoms: C_12  and  C_13
DOCKED: REMARK    8  A    between atoms: C_14  and  C_22
DOCKED: REMARK                            x       y       z     vdW  Elec       q    Type
DOCKED: REMARK                         _______ _______ _______ _____ _____    ______ ____
DOCKED: USER                              x       y       z     vdW  Elec       q    Type
DOCKED: USER                           _______ _______ _______ _____ _____    ______ ____
DOCKED: ROOT
DOCKED: ATOM      1  N   UNL     1      37.402  16.782 120.162 -0.12 -0.00    +0.000 N 
DOCKED: ATOM      2  H   UNL     1      36.435  16.737 120.483 -0.00 -0.00    +0.000 HD
DOCKED: ATOM      3  H   UNL     1      37.538  16.239 119.309 +0.00 -0.00    +0.000 HD
DOCKED: ENDROOT
DOCKED: BRANCH   1   4
DOCKED: ATOM      4  C   UNL     1      38.271  16.211 121.199 -0.19 -0.00    +0.000 C 
DOCKED: BRANCH   4   8
DOCKED: ATOM      5  C   UNL     1      36.695  12.414 122.544 -0.54 -0.00    +0.000 A 
DOCKED: ATOM      6  C   UNL     1      36.823  12.690 121.167 -0.41 -0.00    +0.000 A 
DOCKED: ATOM      7  C   UNL     1      37.322  13.923 120.736 -0.33 -0.00    +0.000 A 
DOCKED: ATOM      8  C   UNL     1      37.698  14.902 121.667 -0.30 -0.00    +0.000 A 
DOCKED: ATOM      9  C   UNL     1      37.604  14.619 123.037 -0.40 -0.00    +0.000 A 
DOCKED: ATOM     10  C   UNL     1      37.107  13.387 123.470 -0.49 -0.00    +0.000 A 
DOCKED: ATOM     11  CM  UNL     1      37.208  13.656 122.104 +0.00 -0.00    +0.000 AC
DOCKED: BRANCH   5  12
DOCKED: ATOM     12  C   UNL     1      36.682   9.926 122.694 -0.70 -0.00    +0.000 C 
DOCKED: ATOM     13  C   UNL     1      36.184  11.119 123.057 -0.70 -0.00    +0.000 C 
DOCKED: BRANCH  11  14
DOCKED: ATOM     14  O   UNL     1      36.990   7.717 123.447 -2.65 -0.00    +0.000 OA
DOCKED: ATOM     15  C   UNL     1      36.167   8.640 123.207 -0.63 -0.00    +0.000 C 
DOCKED: ATOM     16  N   UNL     1      34.769   8.400 123.412 -0.60 -0.00    +0.000 N 
DOCKED: ATOM     17  O   UNL     1      34.356   7.244 123.982 -0.77 -0.00    +0.000 OA
DOCKED: ATOM     18  H   UNL     1      34.109   9.077 123.139 -0.37 -0.00    +0.000 HD
DOCKED: ENDBRANCH  11  14
DOCKED: ENDBRANCH   5  12
DOCKED: ENDBRANCH   4   8
DOCKED: ENDBRANCH   1   4
DOCKED: BRANCH   1  18
DOCKED: ATOM     19  C   UNL     1      37.735  18.182 119.862 -0.06 -0.00    +0.000 C 
DOCKED: BRANCH  18  19
DOCKED: ATOM     20  C   UNL     1      36.781  19.175 120.545 -0.13 -0.00    +0.000 C 
DOCKED: BRANCH  19  20
DOCKED: ATOM     21  C   UNL     1      35.685  18.440 121.261 -0.21 -0.00    +0.000 A 
DOCKED: ATOM     22  C   UNL     1      34.448  18.049 120.747 -0.28 -0.00    +0.000 A 
DOCKED: ATOM     23  N   UNL     1      33.692  17.467 121.708 -0.38 -0.00    +0.000 N 
DOCKED: ATOM     24  C   UNL     1      34.431  17.504 122.830 -0.37 -0.00    +0.000 A 
DOCKED: ATOM     25  C   UNL     1      35.649  18.096 122.600 -0.24 -0.00    +0.000 A 
DOCKED: ATOM     26  C   UNL     1      36.583  18.271 123.622 -0.18 -0.00    +0.000 A 
DOCKED: ATOM     27  C   UNL     1      36.244  17.813 124.907 -0.20 -0.00    +0.000 A 
DOCKED: ATOM     28  C   UNL     1      34.993  17.199 125.142 -0.31 -0.00    +0.000 A 
DOCKED: ATOM     29  C   UNL     1      34.068  17.042 124.094 -0.38 -0.00    +0.000 A 
DOCKED: ATOM     30  C   UNL     1      33.997  18.224 119.332 -0.26 -0.00    +0.000 C 
DOCKED: ATOM     31  H   UNL     1      32.787  17.093 121.605 -0.04 -0.00    +0.000 HD
DOCKED: ATOM     32  CM  UNL     1      34.746  17.897 121.825 +0.00 -0.00    +0.000 AC
DOCKED: ATOM     33  CM  UNL     1      35.329  17.654 123.866 -0.16 -0.00    +0.000 AC
DOCKED: ENDBRANCH  19  20
DOCKED: ENDBRANCH  18  19
DOCKED: ENDBRANCH   1  18
DOCKED: TORSDOF 7DOCKED: TER
DOCKED: ENDMDL
________________________________________________________________________________


	BEGINNING GENETIC ALGORITHM DOCKING 41 of 100
Run: 41 Seed: 1749148091 792979709 [ Run 41 of 100 GA/GALS ]
Beginning LAMARCKIAN GENETIC ALGORITHM (LGA), with a maximum of 2500000 energy evaluations.

Final-Value: -15.394


	FINAL GENETIC ALGORITHM DOCKED STATE
	_______________________________________________


Detailed state:  trans 37.335 17.589 120.110 quatxyzw -0.370610 0.273581 0.858711 0.224536 center 0.576 -0.005 0.140 ntor 7 128.4340 107.1144 -170.3932 2.1689 163.7488 -67.1534 161.3357
State:	 37.335  17.589 120.110  -0.380  0.281  0.881 154.049    128.43  107.11 -170.39    2.17  163.75  -67.15  161.34

DOCKED: MODEL       41
DOCKED: USER    Run = 41
DOCKED: USER    DPF = ligand_dock.biased.dpf
DOCKED: USER  
DOCKED: USER    Estimated Free Energy of Binding    =  -10.94 kcal/mol  [=(1)+(2)+(3)-(4)]
DOCKED: USER    Estimated Inhibition Constant, Ki   =    9.61 nM (nanomolar)  [Temperature = 298.15 K]
DOCKED: USER    
DOCKED: USER    (1) Final Intermolecular Energy     =  -13.03 kcal/mol
DOCKED: USER        vdW + Hbond + desolv Energy     =  -13.03 kcal/mol
DOCKED: USER        Electrostatic Energy            =   +0.00 kcal/mol
DOCKED: USER    (2) Final Total Internal Energy     =   -2.37 kcal/mol
DOCKED: USER    (3) Torsional Free Energy           =   +2.09 kcal/mol
DOCKED: USER    (4) Unbound System's Energy  [=(2)] =   -2.37 kcal/mol
DOCKED: USER    
DOCKED: USER    
DOCKED: USER    NEWDPF move ligand.dum.pdbqt
DOCKED: USER    NEWDPF about 0.576000 -0.005000 0.140000
DOCKED: USER    NEWDPF tran0 37.334550 17.589251 120.109609
DOCKED: USER    NEWDPF quaternion0 -0.370610 0.273581 0.858711 0.224536
DOCKED: USER    NEWDPF axisangle0 -0.380322 0.280749 0.881212 154.048827
DOCKED: USER    NEWDPF quat0 -0.380322 0.280749 0.881212 154.048827
DOCKED: USER    NEWDPF dihe0 128.43 107.11 -170.39 2.17 163.75 -67.15 161.34 
DOCKED: USER  keepresnum = 1 
DOCKED: USER  
DOCKED: REMARK  Name = 
DOCKED: REMARK  8 active torsions:
DOCKED: REMARK  status: ('A' for Active; 'I' for Inactive)
DOCKED: REMARK    1  A    between atoms: C_2  and  C_3
DOCKED: REMARK    2  A    between atoms: C_4  and  C_5
DOCKED: REMARK    3  A    between atoms: C_8  and  C_9
DOCKED: REMARK    4  A    between atoms: C_9  and  N_10
DOCKED: REMARK    5  A    between atoms: N_10  and  C_11
DOCKED: REMARK    6  A    between atoms: C_11  and  C_12
DOCKED: REMARK    7  A    between atoms: C_12  and  C_13
DOCKED: REMARK    8  A    between atoms: C_14  and  C_22
DOCKED: REMARK                            x       y       z     vdW  Elec       q    Type
DOCKED: REMARK                         _______ _______ _______ _____ _____    ______ ____
DOCKED: USER                              x       y       z     vdW  Elec       q    Type
DOCKED: USER                           _______ _______ _______ _____ _____    ______ ____
DOCKED: ROOT
DOCKED: ATOM      1  N   UNL     1      37.567  18.009 120.727 -0.08 -0.00    +0.000 N 
DOCKED: ATOM      2  H   UNL     1      36.966  17.380 121.259 +0.00 -0.00    +0.000 HD
DOCKED: ATOM      3  H   UNL     1      37.051  18.821 120.387 +0.00 -0.00    +0.000 HD
DOCKED: ENDROOT
DOCKED: BRANCH   1   4
DOCKED: ATOM      4  C   UNL     1      38.087  17.288 119.558 -0.08 -0.00    +0.000 C 
DOCKED: BRANCH   4   8
DOCKED: ATOM      5  C   UNL     1      37.801  13.043 120.334 -0.42 -0.00    +0.000 A 
DOCKED: ATOM      6  C   UNL     1      38.915  13.780 120.785 -0.24 -0.00    +0.000 A 
DOCKED: ATOM      7  C   UNL     1      39.009  15.150 120.522 -0.22 -0.00    +0.000 A 
DOCKED: ATOM      8  C   UNL     1      38.000  15.807 119.803 -0.16 -0.00    +0.000 A 
DOCKED: ATOM      9  C   UNL     1      36.875  15.083 119.382 -0.20 -0.00    +0.000 A 
DOCKED: ATOM     10  C   UNL     1      36.778  13.715 119.645 -0.25 -0.00    +0.000 A 
DOCKED: ATOM     11  CM  UNL     1      37.896  14.430 120.078 +0.00 -0.00    +0.000 AC
DOCKED: BRANCH   5  12
DOCKED: ATOM     12  C   UNL     1      37.126  11.090 121.727 -0.46 -0.00    +0.000 C 
DOCKED: ATOM     13  C   UNL     1      37.644  11.590 120.595 -0.38 -0.00    +0.000 C 
DOCKED: BRANCH  11  14
DOCKED: ATOM     14  O   UNL     1      36.692   8.888 121.014 -2.61 -0.00    +0.000 OA
DOCKED: ATOM     15  C   UNL     1      36.974   9.643 121.983 -0.62 -0.00    +0.000 C 
DOCKED: ATOM     16  N   UNL     1      37.108   9.077 123.292 -0.60 -0.00    +0.000 N 
DOCKED: ATOM     17  O   UNL     1      37.063   7.734 123.459 -2.69 -0.00    +0.000 OA
DOCKED: ATOM     18  H   UNL     1      37.232   9.665 124.071 -0.55 -0.00    +0.000 HD
DOCKED: ENDBRANCH  11  14
DOCKED: ENDBRANCH   5  12
DOCKED: ENDBRANCH   4   8
DOCKED: ENDBRANCH   1   4
DOCKED: BRANCH   1  18
DOCKED: ATOM     19  C   UNL     1      38.640  18.494 121.607 -0.07 -0.00    +0.000 C 
DOCKED: BRANCH  18  19
DOCKED: ATOM     20  C   UNL     1      38.468  18.026 123.061 -0.16 -0.00    +0.000 C 
DOCKED: BRANCH  19  20
DOCKED: ATOM     21  C   UNL     1      37.041  17.635 123.319 -0.19 -0.00    +0.000 A 
DOCKED: ATOM     22  C   UNL     1      35.964  18.482 123.585 -0.21 -0.00    +0.000 A 
DOCKED: ATOM     23  N   UNL     1      34.842  17.765 123.834 -0.33 -0.00    +0.000 N 
DOCKED: ATOM     24  C   UNL     1      35.204  16.474 123.750 -0.40 -0.00    +0.000 A 
DOCKED: ATOM     25  C   UNL     1      36.537  16.353 123.445 -0.30 -0.00    +0.000 A 
DOCKED: ATOM     26  C   UNL     1      37.153  15.106 123.327 -0.36 -0.00    +0.000 A 
DOCKED: ATOM     27  C   UNL     1      36.360  13.961 123.522 -0.48 -0.00    +0.000 A 
DOCKED: ATOM     28  C   UNL     1      34.987  14.086 123.830 -0.18 -0.00    +0.000 A 
DOCKED: ATOM     29  C   UNL     1      34.395  15.356 123.949 -0.52 -0.00    +0.000 A 
DOCKED: ATOM     30  C   UNL     1      36.009  19.976 123.587 -0.18 -0.00    +0.000 C 
DOCKED: ATOM     31  H   UNL     1      33.945  18.119 124.036 -0.02 -0.00    +0.000 HD
DOCKED: ATOM     32  CM  UNL     1      35.883  17.356 123.594 -0.05 -0.00    +0.000 AC
DOCKED: ATOM     33  CM  UNL     1      35.773  15.222 123.637 +0.00 -0.00    +0.000 AC
DOCKED: ENDBRANCH  19  20
DOCKED: ENDBRANCH  18  19
DOCKED: ENDBRANCH   1  18
DOCKED: TORSDOF 7DOCKED: TER
DOCKED: ENDMDL
________________________________________________________________________________


	BEGINNING GENETIC ALGORITHM DOCKING 42 of 100
Run: 42 Seed: 130727120 158623127 [ Run 42 of 100 GA/GALS ]
Beginning LAMARCKIAN GENETIC ALGORITHM (LGA), with a maximum of 2500000 energy evaluations.

Final-Value: -13.979


	FINAL GENETIC ALGORITHM DOCKED STATE
	_______________________________________________


Detailed state:  trans 37.594 16.126 119.804 quatxyzw -0.146904 -0.903264 -0.289902 0.280161 center 0.576 -0.005 0.140 ntor 7 144.2603 148.4730 36.2251 -166.2451 -35.8644 149.5542 133.5225
State:	 37.594  16.126 119.804  -0.153 -0.941 -0.302 147.460    144.26  148.47   36.23 -166.25  -35.86  149.55  133.52

DOCKED: MODEL       42
DOCKED: USER    Run = 42
DOCKED: USER    DPF = ligand_dock.biased.dpf
DOCKED: USER  
DOCKED: USER    Estimated Free Energy of Binding    =  -10.62 kcal/mol  [=(1)+(2)+(3)-(4)]
DOCKED: USER    Estimated Inhibition Constant, Ki   =   16.49 nM (nanomolar)  [Temperature = 298.15 K]
DOCKED: USER    
DOCKED: USER    (1) Final Intermolecular Energy     =  -12.71 kcal/mol
DOCKED: USER        vdW + Hbond + desolv Energy     =  -12.71 kcal/mol
DOCKED: USER        Electrostatic Energy            =   +0.00 kcal/mol
DOCKED: USER    (2) Final Total Internal Energy     =   -1.27 kcal/mol
DOCKED: USER    (3) Torsional Free Energy           =   +2.09 kcal/mol
DOCKED: USER    (4) Unbound System's Energy  [=(2)] =   -1.27 kcal/mol
DOCKED: USER    
DOCKED: USER    
DOCKED: USER    NEWDPF move ligand.dum.pdbqt
DOCKED: USER    NEWDPF about 0.576000 -0.005000 0.140000
DOCKED: USER    NEWDPF tran0 37.593592 16.125538 119.803789
DOCKED: USER    NEWDPF quaternion0 -0.146904 -0.903264 -0.289902 0.280161
DOCKED: USER    NEWDPF axisangle0 -0.153032 -0.940946 -0.301996 147.460319
DOCKED: USER    NEWDPF quat0 -0.153032 -0.940946 -0.301996 147.460319
DOCKED: USER    NEWDPF dihe0 144.26 148.47 36.23 -166.25 -35.86 149.55 133.52 
DOCKED: USER  keepresnum = 1 
DOCKED: USER  
DOCKED: REMARK  Name = 
DOCKED: REMARK  8 active torsions:
DOCKED: REMARK  status: ('A' for Active; 'I' for Inactive)
DOCKED: REMARK    1  A    between atoms: C_2  and  C_3
DOCKED: REMARK    2  A    between atoms: C_4  and  C_5
DOCKED: REMARK    3  A    between atoms: C_8  and  C_9
DOCKED: REMARK    4  A    between atoms: C_9  and  N_10
DOCKED: REMARK    5  A    between atoms: N_10  and  C_11
DOCKED: REMARK    6  A    between atoms: C_11  and  C_12
DOCKED: REMARK    7  A    between atoms: C_12  and  C_13
DOCKED: REMARK    8  A    between atoms: C_14  and  C_22
DOCKED: REMARK                            x       y       z     vdW  Elec       q    Type
DOCKED: REMARK                         _______ _______ _______ _____ _____    ______ ____
DOCKED: USER                              x       y       z     vdW  Elec       q    Type
DOCKED: USER                           _______ _______ _______ _____ _____    ______ ____
DOCKED: ROOT
DOCKED: ATOM      1  N   UNL     1      38.354  16.053 119.969 -0.14 -0.00    +0.000 N 
DOCKED: ATOM      2  H   UNL     1      38.387  17.059 119.809 +0.00 -0.00    +0.000 HD
DOCKED: ATOM      3  H   UNL     1      38.506  15.532 119.105 -0.01 -0.00    +0.000 HD
DOCKED: ENDROOT
DOCKED: BRANCH   1   4
DOCKED: ATOM      4  C   UNL     1      37.023  15.699 120.476 -0.21 -0.00    +0.000 C 
DOCKED: BRANCH   4   8
DOCKED: ATOM      5  C   UNL     1      37.068  11.731 122.197 -0.51 -0.00    +0.000 A 
DOCKED: ATOM      6  C   UNL     1      36.994  12.870 123.024 -0.54 -0.00    +0.000 A 
DOCKED: ATOM      7  C   UNL     1      36.992  14.151 122.465 -0.40 -0.00    +0.000 A 
DOCKED: ATOM      8  C   UNL     1      37.066  14.320 121.075 -0.26 -0.00    +0.000 A 
DOCKED: ATOM      9  C   UNL     1      37.105  13.188 120.248 -0.40 -0.00    +0.000 A 
DOCKED: ATOM     10  C   UNL     1      37.106  11.907 120.804 -0.45 -0.00    +0.000 A 
DOCKED: ATOM     11  CM  UNL     1      37.055  13.028 121.635 +0.00 -0.00    +0.000 AC
DOCKED: BRANCH   5  12
DOCKED: ATOM     12  C   UNL     1      36.195   9.401 122.345 -0.70 -0.00    +0.000 C 
DOCKED: ATOM     13  C   UNL     1      37.061  10.348 122.737 -0.58 -0.00    +0.000 C 
DOCKED: BRANCH  11  14
DOCKED: ATOM     14  O   UNL     1      37.229   7.608 123.467 -2.57 -0.00    +0.000 OA
DOCKED: ATOM     15  C   UNL     1      36.193   8.027 122.887 -0.78 -0.00    +0.000 C 
DOCKED: ATOM     16  N   UNL     1      35.066   7.150 122.751 -0.64 -0.00    +0.000 N 
DOCKED: ATOM     17  O   UNL     1      35.073   5.939 123.355 -0.88 -0.00    +0.000 OA
DOCKED: ATOM     18  H   UNL     1      34.288   7.430 122.218 -0.01 -0.00    +0.000 HD
DOCKED: ENDBRANCH  11  14
DOCKED: ENDBRANCH   5  12
DOCKED: ENDBRANCH   4   8
DOCKED: ENDBRANCH   1   4
DOCKED: BRANCH   1  18
DOCKED: ATOM     19  C   UNL     1      39.425  15.688 120.908 -0.24 -0.00    +0.000 C 
DOCKED: BRANCH  18  19
DOCKED: ATOM     20  C   UNL     1      40.673  16.573 120.751 -0.17 -0.00    +0.000 C 
DOCKED: BRANCH  19  20
DOCKED: ATOM     21  C   UNL     1      41.247  16.912 122.097 -0.22 -0.00    +0.000 A 
DOCKED: ATOM     22  C   UNL     1      42.562  16.728 122.529 -0.35 -0.00    +0.000 A 
DOCKED: ATOM     23  N   UNL     1      42.693  17.088 123.827 -0.33 -0.00    +0.000 N 
DOCKED: ATOM     24  C   UNL     1      41.471  17.478 124.227 -0.29 -0.00    +0.000 A 
DOCKED: ATOM     25  C   UNL     1      40.562  17.378 123.203 -0.24 -0.00    +0.000 A 
DOCKED: ATOM     26  C   UNL     1      39.217  17.705 123.383 -0.19 -0.00    +0.000 A 
DOCKED: ATOM     27  C   UNL     1      38.814  18.153 124.653 -0.19 -0.00    +0.000 A 
DOCKED: ATOM     28  C   UNL     1      39.751  18.260 125.705 -0.24 -0.00    +0.000 A 
DOCKED: ATOM     29  C   UNL     1      41.099  17.918 125.497 -0.28 -0.00    +0.000 A 
DOCKED: ATOM     30  C   UNL     1      43.691  16.218 121.692 -0.28 -0.00    +0.000 C 
DOCKED: ATOM     31  H   UNL     1      43.516  17.067 124.368 -0.61 -0.00    +0.000 HD
DOCKED: ATOM     32  CM  UNL     1      41.739  17.116 123.197 +0.00 -0.00    +0.000 AC
DOCKED: ATOM     33  CM  UNL     1      40.151  17.816 124.444 +0.00 -0.00    +0.000 AC
DOCKED: ENDBRANCH  19  20
DOCKED: ENDBRANCH  18  19
DOCKED: ENDBRANCH   1  18
DOCKED: TORSDOF 7DOCKED: TER
DOCKED: ENDMDL
________________________________________________________________________________


	BEGINNING GENETIC ALGORITHM DOCKING 43 of 100
Run: 43 Seed: 461776960 658849286 [ Run 43 of 100 GA/GALS ]
Beginning LAMARCKIAN GENETIC ALGORITHM (LGA), with a maximum of 2500000 energy evaluations.

Final-Value: -15.691


	FINAL GENETIC ALGORITHM DOCKED STATE
	_______________________________________________


Detailed state:  trans 37.802 17.531 123.496 quatxyzw 0.184055 -0.494400 0.362175 0.768454 center 0.576 -0.005 0.140 ntor 7 -49.6555 177.7878 7.3521 180.0000 144.3590 46.3515 130.1887
State:	 37.802  17.531 123.496   0.288 -0.773  0.566 79.570    -49.66  177.79    7.35  180.00  144.36   46.35  130.19

DOCKED: MODEL       43
DOCKED: USER    Run = 43
DOCKED: USER    DPF = ligand_dock.biased.dpf
DOCKED: USER  
DOCKED: USER    Estimated Free Energy of Binding    =  -12.24 kcal/mol  [=(1)+(2)+(3)-(4)]
DOCKED: USER    Estimated Inhibition Constant, Ki   =    1.06 nM (nanomolar)  [Temperature = 298.15 K]
DOCKED: USER    
DOCKED: USER    (1) Final Intermolecular Energy     =  -14.33 kcal/mol
DOCKED: USER        vdW + Hbond + desolv Energy     =  -14.33 kcal/mol
DOCKED: USER        Electrostatic Energy            =   +0.00 kcal/mol
DOCKED: USER    (2) Final Total Internal Energy     =   -1.36 kcal/mol
DOCKED: USER    (3) Torsional Free Energy           =   +2.09 kcal/mol
DOCKED: USER    (4) Unbound System's Energy  [=(2)] =   -1.36 kcal/mol
DOCKED: USER    
DOCKED: USER    
DOCKED: USER    NEWDPF move ligand.dum.pdbqt
DOCKED: USER    NEWDPF about 0.576000 -0.005000 0.140000
DOCKED: USER    NEWDPF tran0 37.801598 17.531090 123.496099
DOCKED: USER    NEWDPF quaternion0 0.184055 -0.494400 0.362175 0.768454
DOCKED: USER    NEWDPF axisangle0 0.287628 -0.772615 0.565982 79.569515
DOCKED: USER    NEWDPF quat0 0.287628 -0.772615 0.565982 79.569515
DOCKED: USER    NEWDPF dihe0 -49.66 177.79 7.35 180.00 144.36 46.35 130.19 
DOCKED: USER  keepresnum = 1 
DOCKED: USER  
DOCKED: REMARK  Name = 
DOCKED: REMARK  8 active torsions:
DOCKED: REMARK  status: ('A' for Active; 'I' for Inactive)
DOCKED: REMARK    1  A    between atoms: C_2  and  C_3
DOCKED: REMARK    2  A    between atoms: C_4  and  C_5
DOCKED: REMARK    3  A    between atoms: C_8  and  C_9
DOCKED: REMARK    4  A    between atoms: C_9  and  N_10
DOCKED: REMARK    5  A    between atoms: N_10  and  C_11
DOCKED: REMARK    6  A    between atoms: C_11  and  C_12
DOCKED: REMARK    7  A    between atoms: C_12  and  C_13
DOCKED: REMARK    8  A    between atoms: C_14  and  C_22
DOCKED: REMARK                            x       y       z     vdW  Elec       q    Type
DOCKED: REMARK                         _______ _______ _______ _____ _____    ______ ____
DOCKED: USER                              x       y       z     vdW  Elec       q    Type
DOCKED: USER                           _______ _______ _______ _____ _____    ______ ____
DOCKED: ROOT
DOCKED: ATOM      1  N   UNL     1      37.944  18.113 123.998 -0.18 -0.00    +0.000 N 
DOCKED: ATOM      2  H   UNL     1      38.834  18.190 123.508 +0.00 -0.00    +0.000 HD
DOCKED: ATOM      3  H   UNL     1      38.000  17.450 124.772 -0.02 -0.00    +0.000 HD
DOCKED: ENDROOT
DOCKED: BRANCH   1   4
DOCKED: ATOM      4  C   UNL     1      36.929  17.620 123.060 -0.21 -0.00    +0.000 C 
DOCKED: BRANCH   4   8
DOCKED: ATOM      5  C   UNL     1      36.661  13.307 123.248 -0.53 -0.00    +0.000 A 
DOCKED: ATOM      6  C   UNL     1      35.817  14.112 124.039 -0.45 -0.00    +0.000 A 
DOCKED: ATOM      7  C   UNL     1      35.915  15.506 123.985 -0.40 -0.00    +0.000 A 
DOCKED: ATOM      8  C   UNL     1      36.855  16.120 123.145 -0.29 -0.00    +0.000 A 
DOCKED: ATOM      9  C   UNL     1      37.673  15.323 122.331 -0.30 -0.00    +0.000 A 
DOCKED: ATOM     10  C   UNL     1      37.576  13.930 122.384 -0.43 -0.00    +0.000 A 
DOCKED: ATOM     11  CM  UNL     1      36.750  14.717 123.188 +0.00 -0.00    +0.000 AC
DOCKED: BRANCH   5  12
DOCKED: ATOM     12  C   UNL     1      36.992  11.054 122.234 -0.57 -0.00    +0.000 C 
DOCKED: ATOM     13  C   UNL     1      36.592  11.824 123.258 -0.69 -0.00    +0.000 C 
DOCKED: BRANCH  11  14
DOCKED: ATOM     14  O   UNL     1      36.697   8.978 121.164 -2.62 -0.00    +0.000 OA
DOCKED: ATOM     15  C   UNL     1      36.919   9.579 122.248 -0.64 -0.00    +0.000 C 
DOCKED: ATOM     16  N   UNL     1      37.065   8.815 123.453 -0.62 -0.00    +0.000 N 
DOCKED: ATOM     17  O   UNL     1      37.095   7.463 123.399 -2.48 -0.00    +0.000 OA
DOCKED: ATOM     18  H   UNL     1      37.143   9.275 124.319 -0.55 -0.00    +0.000 HD
DOCKED: ENDBRANCH  11  14
DOCKED: ENDBRANCH   5  12
DOCKED: ENDBRANCH   4   8
DOCKED: ENDBRANCH   1   4
DOCKED: BRANCH   1  18
DOCKED: ATOM     19  C   UNL     1      37.597  19.428 124.558 -0.13 -0.00    +0.000 C 
DOCKED: BRANCH  18  19
DOCKED: ATOM     20  C   UNL     1      38.829  20.199 125.058 -0.08 -0.00    +0.000 C 
DOCKED: BRANCH  19  20
DOCKED: ATOM     21  C   UNL     1      39.785  19.269 125.747 -0.17 -0.00    +0.000 A 
DOCKED: ATOM     22  C   UNL     1      40.925  18.671 125.206 -0.26 -0.00    +0.000 A 
DOCKED: ATOM     23  N   UNL     1      41.501  17.840 126.106 -0.34 -0.00    +0.000 N 
DOCKED: ATOM     24  C   UNL     1      40.726  17.890 127.203 -0.37 -0.00    +0.000 A 
DOCKED: ATOM     25  C   UNL     1      39.667  18.744 127.020 -0.23 -0.00    +0.000 A 
DOCKED: ATOM     26  C   UNL     1      38.708  18.945 128.014 -0.16 -0.00    +0.000 A 
DOCKED: ATOM     27  C   UNL     1      38.860  18.247 129.225 -0.22 -0.00    +0.000 A 
DOCKED: ATOM     28  C   UNL     1      39.953  17.372 129.414 -0.37 -0.00    +0.000 A 
DOCKED: ATOM     29  C   UNL     1      40.902  17.184 128.393 -0.37 -0.00    +0.000 A 
DOCKED: ATOM     30  C   UNL     1      41.465  18.908 123.832 -0.20 -0.00    +0.000 C 
DOCKED: ATOM     31  H   UNL     1      42.320  17.307 125.982 -0.43 -0.00    +0.000 HD
DOCKED: ATOM     32  CM  UNL     1      40.553  18.462 126.251 +0.00 -0.00    +0.000 AC
DOCKED: ATOM     33  CM  UNL     1      39.802  18.064 128.212 +0.00 -0.00    +0.000 AC
DOCKED: ENDBRANCH  19  20
DOCKED: ENDBRANCH  18  19
DOCKED: ENDBRANCH   1  18
DOCKED: TORSDOF 7DOCKED: TER
DOCKED: ENDMDL
________________________________________________________________________________


	BEGINNING GENETIC ALGORITHM DOCKING 44 of 100
Run: 44 Seed: 1237952744 2062866408 [ Run 44 of 100 GA/GALS ]
Beginning LAMARCKIAN GENETIC ALGORITHM (LGA), with a maximum of 2500000 energy evaluations.

Final-Value: -15.034


	FINAL GENETIC ALGORITHM DOCKED STATE
	_______________________________________________


Detailed state:  trans 36.693 17.371 124.466 quatxyzw 0.072981 -0.249195 0.435380 0.861986 center 0.576 -0.005 0.140 ntor 7 23.7767 97.6995 -170.1873 176.4247 136.7054 28.2024 148.6213
State:	 36.693  17.371 124.466   0.144 -0.492  0.859 60.919     23.78   97.70 -170.19  176.42  136.71   28.20  148.62

DOCKED: MODEL       44
DOCKED: USER    Run = 44
DOCKED: USER    DPF = ligand_dock.biased.dpf
DOCKED: USER  
DOCKED: USER    Estimated Free Energy of Binding    =  -11.65 kcal/mol  [=(1)+(2)+(3)-(4)]
DOCKED: USER    Estimated Inhibition Constant, Ki   =    2.87 nM (nanomolar)  [Temperature = 298.15 K]
DOCKED: USER    
DOCKED: USER    (1) Final Intermolecular Energy     =  -13.74 kcal/mol
DOCKED: USER        vdW + Hbond + desolv Energy     =  -13.74 kcal/mol
DOCKED: USER        Electrostatic Energy            =   +0.00 kcal/mol
DOCKED: USER    (2) Final Total Internal Energy     =   -1.29 kcal/mol
DOCKED: USER    (3) Torsional Free Energy           =   +2.09 kcal/mol
DOCKED: USER    (4) Unbound System's Energy  [=(2)] =   -1.29 kcal/mol
DOCKED: USER    
DOCKED: USER    
DOCKED: USER    NEWDPF move ligand.dum.pdbqt
DOCKED: USER    NEWDPF about 0.576000 -0.005000 0.140000
DOCKED: USER    NEWDPF tran0 36.692885 17.370598 124.466148
DOCKED: USER    NEWDPF quaternion0 0.072981 -0.249195 0.435380 0.861986
DOCKED: USER    NEWDPF axisangle0 0.143967 -0.491575 0.858852 60.919371
DOCKED: USER    NEWDPF quat0 0.143967 -0.491575 0.858852 60.919371
DOCKED: USER    NEWDPF dihe0 23.78 97.70 -170.19 176.42 136.71 28.20 148.62 
DOCKED: USER  keepresnum = 1 
DOCKED: USER  
DOCKED: REMARK  Name = 
DOCKED: REMARK  8 active torsions:
DOCKED: REMARK  status: ('A' for Active; 'I' for Inactive)
DOCKED: REMARK    1  A    between atoms: C_2  and  C_3
DOCKED: REMARK    2  A    between atoms: C_4  and  C_5
DOCKED: REMARK    3  A    between atoms: C_8  and  C_9
DOCKED: REMARK    4  A    between atoms: C_9  and  N_10
DOCKED: REMARK    5  A    between atoms: N_10  and  C_11
DOCKED: REMARK    6  A    between atoms: C_11  and  C_12
DOCKED: REMARK    7  A    between atoms: C_12  and  C_13
DOCKED: REMARK    8  A    between atoms: C_14  and  C_22
DOCKED: REMARK                            x       y       z     vdW  Elec       q    Type
DOCKED: REMARK                         _______ _______ _______ _____ _____    ______ ____
DOCKED: USER                              x       y       z     vdW  Elec       q    Type
DOCKED: USER                           _______ _______ _______ _____ _____    ______ ____
DOCKED: ROOT
DOCKED: ATOM      1  N   UNL     1      36.578  17.974 124.949 -0.21 -0.00    +0.000 N 
DOCKED: ATOM      2  H   UNL     1      37.595  17.978 125.031 -0.02 -0.00    +0.000 HD
DOCKED: ATOM      3  H   UNL     1      36.150  17.358 125.640 -0.02 -0.00    +0.000 HD
DOCKED: ENDROOT
DOCKED: BRANCH   1   4
DOCKED: ATOM      4  C   UNL     1      36.214  17.474 123.617 -0.28 -0.00    +0.000 C 
DOCKED: BRANCH   4   8
DOCKED: ATOM      5  C   UNL     1      36.795  13.194 123.398 -0.54 -0.00    +0.000 A 
DOCKED: ATOM      6  C   UNL     1      35.563  13.729 123.825 -0.45 -0.00    +0.000 A 
DOCKED: ATOM      7  C   UNL     1      35.383  15.113 123.907 -0.49 -0.00    +0.000 A 
DOCKED: ATOM      8  C   UNL     1      36.425  15.987 123.567 -0.33 -0.00    +0.000 A 
DOCKED: ATOM      9  C   UNL     1      37.641  15.459 123.109 -0.32 -0.00    +0.000 A 
DOCKED: ATOM     10  C   UNL     1      37.823  14.076 123.026 -0.44 -0.00    +0.000 A 
DOCKED: ATOM     11  CM  UNL     1      36.605  14.593 123.471 +0.00 -0.00    +0.000 AC
DOCKED: BRANCH   5  12
DOCKED: ATOM     12  C   UNL     1      36.543  10.975 122.291 -0.65 -0.00    +0.000 C 
DOCKED: ATOM     13  C   UNL     1      37.037  11.734 123.281 -0.67 -0.00    +0.000 C 
DOCKED: BRANCH  11  14
DOCKED: ATOM     14  O   UNL     1      37.010   9.035 121.042 -2.70 -0.00    +0.000 OA
DOCKED: ATOM     15  C   UNL     1      36.786   9.522 122.181 -0.68 -0.00    +0.000 C 
DOCKED: ATOM     16  N   UNL     1      36.747   8.650 123.318 -0.66 -0.00    +0.000 N 
DOCKED: ATOM     17  O   UNL     1      37.079   7.345 123.183 -2.35 -0.00    +0.000 OA
DOCKED: ATOM     18  H   UNL     1      36.479   9.001 124.198 -0.40 -0.00    +0.000 HD
DOCKED: ENDBRANCH  11  14
DOCKED: ENDBRANCH   5  12
DOCKED: ENDBRANCH   4   8
DOCKED: ENDBRANCH   1   4
DOCKED: BRANCH   1  18
DOCKED: ATOM     19  C   UNL     1      36.079  19.336 125.191 -0.19 -0.00    +0.000 C 
DOCKED: BRANCH  18  19
DOCKED: ATOM     20  C   UNL     1      37.112  20.225 125.904 -0.10 -0.00    +0.000 C 
DOCKED: BRANCH  19  20
DOCKED: ATOM     21  C   UNL     1      37.700  19.502 127.081 -0.12 -0.00    +0.000 A 
DOCKED: ATOM     22  C   UNL     1      37.132  19.338 128.346 -0.11 -0.00    +0.000 A 
DOCKED: ATOM     23  N   UNL     1      37.985  18.688 129.173 -0.16 -0.00    +0.000 N 
DOCKED: ATOM     24  C   UNL     1      39.095  18.458 128.450 -0.21 -0.00    +0.000 A 
DOCKED: ATOM     25  C   UNL     1      38.962  18.945 127.173 -0.17 -0.00    +0.000 A 
DOCKED: ATOM     26  C   UNL     1      39.995  18.846 126.240 -0.24 -0.00    +0.000 A 
DOCKED: ATOM     27  C   UNL     1      41.187  18.218 126.644 -0.36 -0.00    +0.000 A 
DOCKED: ATOM     28  C   UNL     1      41.321  17.713 127.956 -0.44 -0.00    +0.000 A 
DOCKED: ATOM     29  C   UNL     1      40.265  17.833 128.878 -0.37 -0.00    +0.000 A 
DOCKED: ATOM     30  C   UNL     1      35.768  19.794 128.755 -0.08 -0.00    +0.000 C 
DOCKED: ATOM     31  H   UNL     1      37.825  18.437 130.112 -0.00 -0.00    +0.000 HD
DOCKED: ATOM     32  CM  UNL     1      38.168  18.977 128.081 +0.00 -0.00    +0.000 AC
DOCKED: ATOM     33  CM  UNL     1      40.138  18.335 127.556 +0.00 -0.00    +0.000 AC
DOCKED: ENDBRANCH  19  20
DOCKED: ENDBRANCH  18  19
DOCKED: ENDBRANCH   1  18
DOCKED: TORSDOF 7DOCKED: TER
DOCKED: ENDMDL
________________________________________________________________________________


	BEGINNING GENETIC ALGORITHM DOCKING 45 of 100
Run: 45 Seed: 1227895186 134276446 [ Run 45 of 100 GA/GALS ]
Beginning LAMARCKIAN GENETIC ALGORITHM (LGA), with a maximum of 2500000 energy evaluations.

Final-Value: -14.137


	FINAL GENETIC ALGORITHM DOCKED STATE
	_______________________________________________


Detailed state:  trans 36.336 18.739 122.958 quatxyzw 0.799123 0.264629 -0.071749 0.535001 center 0.576 -0.005 0.140 ntor 7 -82.6864 50.5525 -169.0109 176.6684 109.6666 -158.5930 -179.6101
State:	 36.336  18.739 122.958   0.946  0.313 -0.085 115.312    -82.69   50.55 -169.01  176.67  109.67 -158.59 -179.61

DOCKED: MODEL       45
DOCKED: USER    Run = 45
DOCKED: USER    DPF = ligand_dock.biased.dpf
DOCKED: USER  
DOCKED: USER    Estimated Free Energy of Binding    =  -10.80 kcal/mol  [=(1)+(2)+(3)-(4)]
DOCKED: USER    Estimated Inhibition Constant, Ki   =   12.13 nM (nanomolar)  [Temperature = 298.15 K]
DOCKED: USER    
DOCKED: USER    (1) Final Intermolecular Energy     =  -12.89 kcal/mol
DOCKED: USER        vdW + Hbond + desolv Energy     =  -12.89 kcal/mol
DOCKED: USER        Electrostatic Energy            =   +0.00 kcal/mol
DOCKED: USER    (2) Final Total Internal Energy     =   -1.25 kcal/mol
DOCKED: USER    (3) Torsional Free Energy           =   +2.09 kcal/mol
DOCKED: USER    (4) Unbound System's Energy  [=(2)] =   -1.25 kcal/mol
DOCKED: USER    
DOCKED: USER    
DOCKED: USER    NEWDPF move ligand.dum.pdbqt
DOCKED: USER    NEWDPF about 0.576000 -0.005000 0.140000
DOCKED: USER    NEWDPF tran0 36.336365 18.738924 122.958178
DOCKED: USER    NEWDPF quaternion0 0.799123 0.264629 -0.071749 0.535001
DOCKED: USER    NEWDPF axisangle0 0.945874 0.313226 -0.084925 115.312017
DOCKED: USER    NEWDPF quat0 0.945874 0.313226 -0.084925 115.312017
DOCKED: USER    NEWDPF dihe0 -82.69 50.55 -169.01 176.67 109.67 -158.59 -179.61 
DOCKED: USER  keepresnum = 1 
DOCKED: USER  
DOCKED: REMARK  Name = 
DOCKED: REMARK  8 active torsions:
DOCKED: REMARK  status: ('A' for Active; 'I' for Inactive)
DOCKED: REMARK    1  A    between atoms: C_2  and  C_3
DOCKED: REMARK    2  A    between atoms: C_4  and  C_5
DOCKED: REMARK    3  A    between atoms: C_8  and  C_9
DOCKED: REMARK    4  A    between atoms: C_9  and  N_10
DOCKED: REMARK    5  A    between atoms: N_10  and  C_11
DOCKED: REMARK    6  A    between atoms: C_11  and  C_12
DOCKED: REMARK    7  A    between atoms: C_12  and  C_13
DOCKED: REMARK    8  A    between atoms: C_14  and  C_22
DOCKED: REMARK                            x       y       z     vdW  Elec       q    Type
DOCKED: REMARK                         _______ _______ _______ _____ _____    ______ ____
DOCKED: USER                              x       y       z     vdW  Elec       q    Type
DOCKED: USER                           _______ _______ _______ _____ _____    ______ ____
DOCKED: ROOT
DOCKED: ATOM      1  N   UNL     1      35.654  18.600 122.603 -0.23 -0.00    +0.000 N 
DOCKED: ATOM      2  H   UNL     1      36.070  19.102 121.819 -0.00 -0.00    +0.000 HD
DOCKED: ATOM      3  H   UNL     1      35.176  19.236 123.242 -0.01 -0.00    +0.000 HD
DOCKED: ENDROOT
DOCKED: BRANCH   1   4
DOCKED: ATOM      4  C   UNL     1      36.723  17.930 123.355 -0.21 -0.00    +0.000 C 
DOCKED: BRANCH   4   8
DOCKED: ATOM      5  C   UNL     1      36.386  13.636 122.964 -0.46 -0.00    +0.000 A 
DOCKED: ATOM      6  C   UNL     1      37.146  14.382 122.041 -0.35 -0.00    +0.000 A 
DOCKED: ATOM      7  C   UNL     1      37.243  15.772 122.163 -0.25 -0.00    +0.000 A 
DOCKED: ATOM      8  C   UNL     1      36.583  16.441 123.204 -0.28 -0.00    +0.000 A 
DOCKED: ATOM      9  C   UNL     1      35.853  15.698 124.143 -0.37 -0.00    +0.000 A 
DOCKED: ATOM     10  C   UNL     1      35.756  14.310 124.023 -0.46 -0.00    +0.000 A 
DOCKED: ATOM     11  CM  UNL     1      36.495  15.040 123.090 +0.00 -0.00    +0.000 AC
DOCKED: BRANCH   5  12
DOCKED: ATOM     12  C   UNL     1      37.194  11.358 122.353 -0.45 -0.00    +0.000 C 
DOCKED: ATOM     13  C   UNL     1      36.259  12.159 122.888 -0.64 -0.00    +0.000 C 
DOCKED: BRANCH  11  14
DOCKED: ATOM     14  O   UNL     1      36.967   9.351 121.144 -2.57 -0.00    +0.000 OA
DOCKED: ATOM     15  C   UNL     1      37.062   9.889 122.279 -0.58 -0.00    +0.000 C 
DOCKED: ATOM     16  N   UNL     1      37.011   9.063 123.449 -0.58 -0.00    +0.000 N 
DOCKED: ATOM     17  O   UNL     1      36.994   7.716 123.328 -2.59 -0.00    +0.000 OA
DOCKED: ATOM     18  H   UNL     1      36.987   9.477 124.342 -0.49 -0.00    +0.000 HD
DOCKED: ENDBRANCH  11  14
DOCKED: ENDBRANCH   5  12
DOCKED: ENDBRANCH   4   8
DOCKED: ENDBRANCH   1   4
DOCKED: BRANCH   1  18
DOCKED: ATOM     19  C   UNL     1      34.658  17.652 122.083 -0.37 -0.00    +0.000 C 
DOCKED: BRANCH  18  19
DOCKED: ATOM     20  C   UNL     1      34.775  17.447 120.564 -0.10 -0.00    +0.000 C 
DOCKED: BRANCH  19  20
DOCKED: ATOM     21  C   UNL     1      34.233  18.641 119.831 -0.26 -0.00    +0.000 A 
DOCKED: ATOM     22  C   UNL     1      32.894  18.955 119.594 -0.33 -0.00    +0.000 A 
DOCKED: ATOM     23  N   UNL     1      32.791  20.075 118.840 -0.24 -0.00    +0.000 N 
DOCKED: ATOM     24  C   UNL     1      34.052  20.460 118.580 -0.11 -0.00    +0.000 A 
DOCKED: ATOM     25  C   UNL     1      34.959  19.608 119.161 -0.15 -0.00    +0.000 A 
DOCKED: ATOM     26  C   UNL     1      36.334  19.789 119.011 -0.09 -0.00    +0.000 A 
DOCKED: ATOM     27  C   UNL     1      36.774  20.886 118.248 -0.05 -0.00    +0.000 A 
DOCKED: ATOM     28  C   UNL     1      35.840  21.765 117.655 -0.06 -0.00    +0.000 A 
DOCKED: ATOM     29  C   UNL     1      34.459  21.554 117.818 -0.10 -0.00    +0.000 A 
DOCKED: ATOM     30  C   UNL     1      31.715  18.187 120.102 -0.47 -0.00    +0.000 C 
DOCKED: ATOM     31  H   UNL     1      31.962  20.516 118.543 -0.02 -0.00    +0.000 HD
DOCKED: ATOM     32  CM  UNL     1      33.754  19.565 119.190 +0.00 -0.00    +0.000 AC
DOCKED: ATOM     33  CM  UNL     1      35.404  20.677 118.412 +0.00 -0.00    +0.000 AC
DOCKED: ENDBRANCH  19  20
DOCKED: ENDBRANCH  18  19
DOCKED: ENDBRANCH   1  18
DOCKED: TORSDOF 7DOCKED: TER
DOCKED: ENDMDL
________________________________________________________________________________


	BEGINNING GENETIC ALGORITHM DOCKING 46 of 100
Run: 46 Seed: 1419733285 821013098 [ Run 46 of 100 GA/GALS ]
Beginning LAMARCKIAN GENETIC ALGORITHM (LGA), with a maximum of 2500000 energy evaluations.

Final-Value: -13.800


	FINAL GENETIC ALGORITHM DOCKED STATE
	_______________________________________________


Detailed state:  trans 36.739 18.261 122.916 quatxyzw 0.488064 0.288609 -0.131904 0.813080 center 0.576 -0.005 0.140 ntor 7 -180.0000 178.3233 43.8443 -176.0210 -33.1964 159.1896 144.2724
State:	 36.739  18.261 122.916   0.838  0.496 -0.227 71.204   -180.00  178.32   43.84 -176.02  -33.20  159.19  144.27

DOCKED: MODEL       46
DOCKED: USER    Run = 46
DOCKED: USER    DPF = ligand_dock.biased.dpf
DOCKED: USER  
DOCKED: USER    Estimated Free Energy of Binding    =  -10.33 kcal/mol  [=(1)+(2)+(3)-(4)]
DOCKED: USER    Estimated Inhibition Constant, Ki   =   26.85 nM (nanomolar)  [Temperature = 298.15 K]
DOCKED: USER    
DOCKED: USER    (1) Final Intermolecular Energy     =  -12.42 kcal/mol
DOCKED: USER        vdW + Hbond + desolv Energy     =  -12.42 kcal/mol
DOCKED: USER        Electrostatic Energy            =   +0.00 kcal/mol
DOCKED: USER    (2) Final Total Internal Energy     =   -1.38 kcal/mol
DOCKED: USER    (3) Torsional Free Energy           =   +2.09 kcal/mol
DOCKED: USER    (4) Unbound System's Energy  [=(2)] =   -1.38 kcal/mol
DOCKED: USER    
DOCKED: USER    
DOCKED: USER    NEWDPF move ligand.dum.pdbqt
DOCKED: USER    NEWDPF about 0.576000 -0.005000 0.140000
DOCKED: USER    NEWDPF tran0 36.739396 18.261054 122.916191
DOCKED: USER    NEWDPF quaternion0 0.488064 0.288609 -0.131904 0.813080
DOCKED: USER    NEWDPF axisangle0 0.838380 0.495762 -0.226580 71.204031
DOCKED: USER    NEWDPF quat0 0.838380 0.495762 -0.226580 71.204031
DOCKED: USER    NEWDPF dihe0 -180.00 178.32 43.84 -176.02 -33.20 159.19 144.27 
DOCKED: USER  keepresnum = 1 
DOCKED: USER  
DOCKED: REMARK  Name = 
DOCKED: REMARK  8 active torsions:
DOCKED: REMARK  status: ('A' for Active; 'I' for Inactive)
DOCKED: REMARK    1  A    between atoms: C_2  and  C_3
DOCKED: REMARK    2  A    between atoms: C_4  and  C_5
DOCKED: REMARK    3  A    between atoms: C_8  and  C_9
DOCKED: REMARK    4  A    between atoms: C_9  and  N_10
DOCKED: REMARK    5  A    between atoms: N_10  and  C_11
DOCKED: REMARK    6  A    between atoms: C_11  and  C_12
DOCKED: REMARK    7  A    between atoms: C_12  and  C_13
DOCKED: REMARK    8  A    between atoms: C_14  and  C_22
DOCKED: REMARK                            x       y       z     vdW  Elec       q    Type
DOCKED: REMARK                         _______ _______ _______ _____ _____    ______ ____
DOCKED: USER                              x       y       z     vdW  Elec       q    Type
DOCKED: USER                           _______ _______ _______ _____ _____    ______ ____
DOCKED: ROOT
DOCKED: ATOM      1  N   UNL     1      35.998  18.188 122.679 -0.20 -0.00    +0.000 N 
DOCKED: ATOM      2  H   UNL     1      36.080  19.175 122.435 -0.00 -0.00    +0.000 HD
DOCKED: ATOM      3  H   UNL     1      35.687  18.066 123.643 -0.00 -0.00    +0.000 HD
DOCKED: ENDROOT
DOCKED: BRANCH   1   4
DOCKED: ATOM      4  C   UNL     1      37.319  17.559 122.553 -0.18 -0.00    +0.000 C 
DOCKED: BRANCH   4   8
DOCKED: ATOM      5  C   UNL     1      36.911  13.318 121.806 -0.38 -0.00    +0.000 A 
DOCKED: ATOM      6  C   UNL     1      37.111  14.218 120.739 -0.26 -0.00    +0.000 A 
DOCKED: ATOM      7  C   UNL     1      37.231  15.590 120.983 -0.20 -0.00    +0.000 A 
DOCKED: ATOM      8  C   UNL     1      37.150  16.088 122.291 -0.24 -0.00    +0.000 A 
DOCKED: ATOM      9  C   UNL     1      36.985  15.193 123.358 -0.36 -0.00    +0.000 A 
DOCKED: ATOM     10  C   UNL     1      36.867  13.822 123.117 -0.48 -0.00    +0.000 A 
DOCKED: ATOM     11  CM  UNL     1      37.043  14.705 122.050 +0.00 -0.00    +0.000 AC
DOCKED: BRANCH   5  12
DOCKED: ATOM     12  C   UNL     1      37.069  10.946 122.555 -0.58 -0.00    +0.000 C 
DOCKED: ATOM     13  C   UNL     1      36.790  11.853 121.606 -0.57 -0.00    +0.000 C 
DOCKED: BRANCH  11  14
DOCKED: ATOM     14  O   UNL     1      36.880   9.053 121.169 -2.67 -0.00    +0.000 OA
DOCKED: ATOM     15  C   UNL     1      36.948   9.489 122.349 -0.65 -0.00    +0.000 C 
DOCKED: ATOM     16  N   UNL     1      36.879   8.563 123.441 -0.66 -0.00    +0.000 N 
DOCKED: ATOM     17  O   UNL     1      36.875   7.231 123.201 -2.15 -0.00    +0.000 OA
DOCKED: ATOM     18  H   UNL     1      36.834   8.896 124.366 -0.45 -0.00    +0.000 HD
DOCKED: ENDBRANCH  11  14
DOCKED: ENDBRANCH   5  12
DOCKED: ENDBRANCH   4   8
DOCKED: ENDBRANCH   1   4
DOCKED: BRANCH   1  18
DOCKED: ATOM     19  C   UNL     1      34.996  17.565 121.801 -0.33 -0.00    +0.000 C 
DOCKED: BRANCH  18  19
DOCKED: ATOM     20  C   UNL     1      34.017  18.590 121.205 -0.12 -0.00    +0.000 C 
DOCKED: BRANCH  19  20
DOCKED: ATOM     21  C   UNL     1      33.677  18.226 119.788 -0.26 -0.00    +0.000 A 
DOCKED: ATOM     22  C   UNL     1      32.412  18.206 119.198 -0.31 -0.00    +0.000 A 
DOCKED: ATOM     23  N   UNL     1      32.486  17.761 117.922 -0.19 -0.00    +0.000 N 
DOCKED: ATOM     24  C   UNL     1      33.782  17.479 117.706 -0.13 -0.00    +0.000 A 
DOCKED: ATOM     25  C   UNL     1      34.538  17.742 118.821 -0.13 -0.00    +0.000 A 
DOCKED: ATOM     26  C   UNL     1      35.913  17.506 118.848 -0.12 -0.00    +0.000 A 
DOCKED: ATOM     27  C   UNL     1      36.514  16.993 117.685 -0.09 -0.00    +0.000 A 
DOCKED: ATOM     28  C   UNL     1      35.737  16.727 116.535 -0.09 -0.00    +0.000 A 
DOCKED: ATOM     29  C   UNL     1      34.352  16.968 116.539 -0.11 -0.00    +0.000 A 
DOCKED: ATOM     30  C   UNL     1      31.136  18.626 119.855 -0.50 -0.00    +0.000 C 
DOCKED: ATOM     31  H   UNL     1      31.743  17.663 117.283 -0.00 -0.00    +0.000 HD
DOCKED: ATOM     32  CM  UNL     1      33.350  17.879 118.662 +0.00 -0.00    +0.000 AC
DOCKED: ATOM     33  CM  UNL     1      35.140  17.236 117.689 +0.00 -0.00    +0.000 AC
DOCKED: ENDBRANCH  19  20
DOCKED: ENDBRANCH  18  19
DOCKED: ENDBRANCH   1  18
DOCKED: TORSDOF 7DOCKED: TER
DOCKED: ENDMDL
________________________________________________________________________________


	BEGINNING GENETIC ALGORITHM DOCKING 47 of 100
Run: 47 Seed: 1213060054 465644404 [ Run 47 of 100 GA/GALS ]
Beginning LAMARCKIAN GENETIC ALGORITHM (LGA), with a maximum of 2500000 energy evaluations.

Final-Value: -15.968


	FINAL GENETIC ALGORITHM DOCKED STATE
	_______________________________________________


Detailed state:  trans 35.186 17.133 124.836 quatxyzw 0.178817 0.012911 -0.427248 -0.886181 center 0.576 -0.005 0.140 ntor 7 27.1666 -96.0812 -6.0055 -32.3664 101.4899 20.2080 122.6138
State:	 35.186  17.133 124.836   0.386  0.028 -0.922 -55.206     27.17  -96.08   -6.01  -32.37  101.49   20.21  122.61

DOCKED: MODEL       47
DOCKED: USER    Run = 47
DOCKED: USER    DPF = ligand_dock.biased.dpf
DOCKED: USER  
DOCKED: USER    Estimated Free Energy of Binding    =  -12.72 kcal/mol  [=(1)+(2)+(3)-(4)]
DOCKED: USER    Estimated Inhibition Constant, Ki   =  472.86 pM (picomolar)  [Temperature = 298.15 K]
DOCKED: USER    
DOCKED: USER    (1) Final Intermolecular Energy     =  -14.81 kcal/mol
DOCKED: USER        vdW + Hbond + desolv Energy     =  -14.81 kcal/mol
DOCKED: USER        Electrostatic Energy            =   +0.00 kcal/mol
DOCKED: USER    (2) Final Total Internal Energy     =   -1.16 kcal/mol
DOCKED: USER    (3) Torsional Free Energy           =   +2.09 kcal/mol
DOCKED: USER    (4) Unbound System's Energy  [=(2)] =   -1.16 kcal/mol
DOCKED: USER    
DOCKED: USER    
DOCKED: USER    NEWDPF move ligand.dum.pdbqt
DOCKED: USER    NEWDPF about 0.576000 -0.005000 0.140000
DOCKED: USER    NEWDPF tran0 35.185815 17.132656 124.835755
DOCKED: USER    NEWDPF quaternion0 0.178817 0.012911 -0.427248 -0.886181
DOCKED: USER    NEWDPF axisangle0 0.385932 0.027866 -0.922106 -55.205575
DOCKED: USER    NEWDPF quat0 0.385932 0.027866 -0.922106 -55.205575
DOCKED: USER    NEWDPF dihe0 27.17 -96.08 -6.01 -32.37 101.49 20.21 122.61 
DOCKED: USER  keepresnum = 1 
DOCKED: USER  
DOCKED: REMARK  Name = 
DOCKED: REMARK  8 active torsions:
DOCKED: REMARK  status: ('A' for Active; 'I' for Inactive)
DOCKED: REMARK    1  A    between atoms: C_2  and  C_3
DOCKED: REMARK    2  A    between atoms: C_4  and  C_5
DOCKED: REMARK    3  A    between atoms: C_8  and  C_9
DOCKED: REMARK    4  A    between atoms: C_9  and  N_10
DOCKED: REMARK    5  A    between atoms: N_10  and  C_11
DOCKED: REMARK    6  A    between atoms: C_11  and  C_12
DOCKED: REMARK    7  A    between atoms: C_12  and  C_13
DOCKED: REMARK    8  A    between atoms: C_14  and  C_22
DOCKED: REMARK                            x       y       z     vdW  Elec       q    Type
DOCKED: REMARK                         _______ _______ _______ _____ _____    ______ ____
DOCKED: USER                              x       y       z     vdW  Elec       q    Type
DOCKED: USER                           _______ _______ _______ _____ _____    ______ ____
DOCKED: ROOT
DOCKED: ATOM      1  N   UNL     1      34.788  17.635 125.284 -0.34 -0.00    +0.000 N 
DOCKED: ATOM      2  H   UNL     1      35.547  17.492 125.950 -0.02 -0.00    +0.000 HD
DOCKED: ATOM      3  H   UNL     1      34.043  16.951 125.414 -0.02 -0.00    +0.000 HD
DOCKED: ENDROOT
DOCKED: BRANCH   1   4
DOCKED: ATOM      4  C   UNL     1      35.317  17.468 123.924 -0.36 -0.00    +0.000 C 
DOCKED: BRANCH   4   8
DOCKED: ATOM      5  C   UNL     1      36.531  13.347 123.418 -0.53 -0.00    +0.000 A 
DOCKED: ATOM      6  C   UNL     1      37.469  14.391 123.292 -0.39 -0.00    +0.000 A 
DOCKED: ATOM      7  C   UNL     1      37.071  15.723 123.445 -0.32 -0.00    +0.000 A 
DOCKED: ATOM      8  C   UNL     1      35.733  16.037 123.721 -0.39 -0.00    +0.000 A 
DOCKED: ATOM      9  C   UNL     1      34.803  14.999 123.881 -0.50 -0.00    +0.000 A 
DOCKED: ATOM     10  C   UNL     1      35.199  13.668 123.730 -0.10 -0.00    +0.000 A 
DOCKED: ATOM     11  CM  UNL     1      36.134  14.695 123.582 +0.00 -0.00    +0.000 AC
DOCKED: BRANCH   5  12
DOCKED: ATOM     12  C   UNL     1      36.394  11.105 122.338 -0.66 -0.00    +0.000 C 
DOCKED: ATOM     13  C   UNL     1      36.901  11.917 123.279 -0.67 -0.00    +0.000 C 
DOCKED: BRANCH  11  14
DOCKED: ATOM     14  O   UNL     1      36.992   9.225 121.053 -2.70 -0.00    +0.000 OA
DOCKED: ATOM     15  C   UNL     1      36.765   9.682 122.205 -0.67 -0.00    +0.000 C 
DOCKED: ATOM     16  N   UNL     1      36.847   8.802 123.333 -0.63 -0.00    +0.000 N 
DOCKED: ATOM     17  O   UNL     1      37.292   7.534 123.173 -2.34 -0.00    +0.000 OA
DOCKED: ATOM     18  H   UNL     1      36.579   9.121 124.225 -0.42 -0.00    +0.000 HD
DOCKED: ENDBRANCH  11  14
DOCKED: ENDBRANCH   5  12
DOCKED: ENDBRANCH   4   8
DOCKED: ENDBRANCH   1   4
DOCKED: BRANCH   1  18
DOCKED: ATOM     19  C   UNL     1      34.214  18.971 125.500 -0.29 -0.00    +0.000 C 
DOCKED: BRANCH  18  19
DOCKED: ATOM     20  C   UNL     1      34.013  19.292 126.990 -0.20 -0.00    +0.000 C 
DOCKED: BRANCH  19  20
DOCKED: ATOM     21  C   UNL     1      32.724  18.701 127.484 -0.22 -0.00    +0.000 A 
DOCKED: ATOM     22  C   UNL     1      32.507  17.399 127.936 -0.32 -0.00    +0.000 A 
DOCKED: ATOM     23  N   UNL     1      31.200  17.208 128.236 -0.42 -0.00    +0.000 N 
DOCKED: ATOM     24  C   UNL     1      30.585  18.371 127.958 -0.25 -0.00    +0.000 A 
DOCKED: ATOM     25  C   UNL     1      31.480  19.302 127.491 -0.23 -0.00    +0.000 A 
DOCKED: ATOM     26  C   UNL     1      31.073  20.582 127.111 -0.24 -0.00    +0.000 A 
DOCKED: ATOM     27  C   UNL     1      29.708  20.900 127.229 -0.29 -0.00    +0.000 A 
DOCKED: ATOM     28  C   UNL     1      28.790  19.943 127.715 -0.46 -0.00    +0.000 A 
DOCKED: ATOM     29  C   UNL     1      29.227  18.658 128.084 -0.28 -0.00    +0.000 A 
DOCKED: ATOM     30  C   UNL     1      33.554  16.343 128.092 -0.37 -0.00    +0.000 C 
DOCKED: ATOM     31  H   UNL     1      30.785  16.386 128.586 -0.17 -0.00    +0.000 HD
DOCKED: ATOM     32  CM  UNL     1      31.683  18.164 127.834 +0.00 -0.00    +0.000 AC
DOCKED: ATOM     33  CM  UNL     1      30.144  19.627 127.598 +0.00 -0.00    +0.000 AC
DOCKED: ENDBRANCH  19  20
DOCKED: ENDBRANCH  18  19
DOCKED: ENDBRANCH   1  18
DOCKED: TORSDOF 7DOCKED: TER
DOCKED: ENDMDL
________________________________________________________________________________


	BEGINNING GENETIC ALGORITHM DOCKING 48 of 100
Run: 48 Seed: 1525870301 1409606159 [ Run 48 of 100 GA/GALS ]
Beginning LAMARCKIAN GENETIC ALGORITHM (LGA), with a maximum of 2500000 energy evaluations.

Final-Value: -14.937


	FINAL GENETIC ALGORITHM DOCKED STATE
	_______________________________________________


Detailed state:  trans 36.628 17.641 124.240 quatxyzw -0.034028 0.200357 -0.012185 -0.979056 center 0.576 -0.005 0.140 ntor 7 122.3165 18.4703 -175.5998 131.6116 3.1120 79.8593 115.2435
State:	 36.628  17.641 124.240  -0.167  0.984 -0.060 -23.494    122.32   18.47 -175.60  131.61    3.11   79.86  115.24

DOCKED: MODEL       48
DOCKED: USER    Run = 48
DOCKED: USER    DPF = ligand_dock.biased.dpf
DOCKED: USER  
DOCKED: USER    Estimated Free Energy of Binding    =  -11.94 kcal/mol  [=(1)+(2)+(3)-(4)]
DOCKED: USER    Estimated Inhibition Constant, Ki   =    1.76 nM (nanomolar)  [Temperature = 298.15 K]
DOCKED: USER    
DOCKED: USER    (1) Final Intermolecular Energy     =  -14.03 kcal/mol
DOCKED: USER        vdW + Hbond + desolv Energy     =  -14.03 kcal/mol
DOCKED: USER        Electrostatic Energy            =   +0.00 kcal/mol
DOCKED: USER    (2) Final Total Internal Energy     =   -0.91 kcal/mol
DOCKED: USER    (3) Torsional Free Energy           =   +2.09 kcal/mol
DOCKED: USER    (4) Unbound System's Energy  [=(2)] =   -0.91 kcal/mol
DOCKED: USER    
DOCKED: USER    
DOCKED: USER    NEWDPF move ligand.dum.pdbqt
DOCKED: USER    NEWDPF about 0.576000 -0.005000 0.140000
DOCKED: USER    NEWDPF tran0 36.627757 17.641009 124.239868
DOCKED: USER    NEWDPF quaternion0 -0.034028 0.200357 -0.012185 -0.979056
DOCKED: USER    NEWDPF axisangle0 -0.167139 0.984115 -0.059851 -23.494026
DOCKED: USER    NEWDPF quat0 -0.167139 0.984115 -0.059851 -23.494026
DOCKED: USER    NEWDPF dihe0 122.32 18.47 -175.60 131.61 3.11 79.86 115.24 
DOCKED: USER  keepresnum = 1 
DOCKED: USER  
DOCKED: REMARK  Name = 
DOCKED: REMARK  8 active torsions:
DOCKED: REMARK  status: ('A' for Active; 'I' for Inactive)
DOCKED: REMARK    1  A    between atoms: C_2  and  C_3
DOCKED: REMARK    2  A    between atoms: C_4  and  C_5
DOCKED: REMARK    3  A    between atoms: C_8  and  C_9
DOCKED: REMARK    4  A    between atoms: C_9  and  N_10
DOCKED: REMARK    5  A    between atoms: N_10  and  C_11
DOCKED: REMARK    6  A    between atoms: C_11  and  C_12
DOCKED: REMARK    7  A    between atoms: C_12  and  C_13
DOCKED: REMARK    8  A    between atoms: C_14  and  C_22
DOCKED: REMARK                            x       y       z     vdW  Elec       q    Type
DOCKED: REMARK                         _______ _______ _______ _____ _____    ______ ____
DOCKED: USER                              x       y       z     vdW  Elec       q    Type
DOCKED: USER                           _______ _______ _______ _____ _____    ______ ____
DOCKED: ROOT
DOCKED: ATOM      1  N   UNL     1      36.097  17.807 124.790 -0.24 -0.00    +0.000 N 
DOCKED: ATOM      2  H   UNL     1      36.763  18.523 125.079 -0.01 -0.00    +0.000 HD
DOCKED: ATOM      3  H   UNL     1      36.280  16.917 125.254 -0.02 -0.00    +0.000 HD
DOCKED: ENDROOT
DOCKED: BRANCH   1   4
DOCKED: ATOM      4  C   UNL     1      36.234  17.593 123.343 -0.26 -0.00    +0.000 C 
DOCKED: BRANCH   4   8
DOCKED: ATOM      5  C   UNL     1      36.849  13.393 122.512 -0.46 -0.00    +0.000 A 
DOCKED: ATOM      6  C   UNL     1      35.869  13.804 123.438 -0.48 -0.00    +0.000 A 
DOCKED: ATOM      7  C   UNL     1      35.681  15.162 123.713 -0.45 -0.00    +0.000 A 
DOCKED: ATOM      8  C   UNL     1      36.467  16.132 123.074 -0.31 -0.00    +0.000 A 
DOCKED: ATOM      9  C   UNL     1      37.420  15.729 122.127 -0.25 -0.00    +0.000 A 
DOCKED: ATOM     10  C   UNL     1      37.609  14.373 121.850 -0.36 -0.00    +0.000 A 
DOCKED: ATOM     11  CM  UNL     1      36.649  14.766 122.785 +0.00 -0.00    +0.000 AC
DOCKED: BRANCH   5  12
DOCKED: ATOM     12  C   UNL     1      36.448  10.947 122.771 -0.68 -0.00    +0.000 C 
DOCKED: ATOM     13  C   UNL     1      37.083  11.967 122.173 -0.58 -0.00    +0.000 C 
DOCKED: BRANCH  11  14
DOCKED: ATOM     14  O   UNL     1      36.821   9.217 121.217 -2.66 -0.00    +0.000 OA
DOCKED: ATOM     15  C   UNL     1      36.686   9.530 122.431 -0.71 -0.00    +0.000 C 
DOCKED: ATOM     16  N   UNL     1      36.741   8.500 123.427 -0.66 -0.00    +0.000 N 
DOCKED: ATOM     17  O   UNL     1      37.066   7.234 123.076 -2.20 -0.00    +0.000 OA
DOCKED: ATOM     18  H   UNL     1      36.543   8.715 124.366 -0.35 -0.00    +0.000 HD
DOCKED: ENDBRANCH  11  14
DOCKED: ENDBRANCH   5  12
DOCKED: ENDBRANCH   4   8
DOCKED: ENDBRANCH   1   4
DOCKED: BRANCH   1  18
DOCKED: ATOM     19  C   UNL     1      34.744  18.241 125.165 -0.33 -0.00    +0.000 C 
DOCKED: BRANCH  18  19
DOCKED: ATOM     20  C   UNL     1      34.647  18.661 126.641 -0.24 -0.00    +0.000 C 
DOCKED: BRANCH  19  20
DOCKED: ATOM     21  C   UNL     1      33.255  19.122 126.964 -0.22 -0.00    +0.000 A 
DOCKED: ATOM     22  C   UNL     1      32.721  20.399 126.782 -0.19 -0.00    +0.000 A 
DOCKED: ATOM     23  N   UNL     1      31.453  20.458 127.253 -0.24 -0.00    +0.000 N 
DOCKED: ATOM     24  C   UNL     1      31.187  19.238 127.750 -0.24 -0.00    +0.000 A 
DOCKED: ATOM     25  C   UNL     1      32.263  18.399 127.599 -0.22 -0.00    +0.000 A 
DOCKED: ATOM     26  C   UNL     1      32.236  17.082 128.061 -0.37 -0.00    +0.000 A 
DOCKED: ATOM     27  C   UNL     1      31.060  16.629 128.685 -0.40 -0.00    +0.000 A 
DOCKED: ATOM     28  C   UNL     1      29.951  17.492 128.835 -0.39 -0.00    +0.000 A 
DOCKED: ATOM     29  C   UNL     1      30.010  18.816 128.366 -0.34 -0.00    +0.000 A 
DOCKED: ATOM     30  C   UNL     1      33.423  21.556 126.146 -0.17 -0.00    +0.000 C 
DOCKED: ATOM     31  H   UNL     1      30.849  21.236 127.235 -0.01 -0.00    +0.000 HD
DOCKED: ATOM     32  CM  UNL     1      32.153  19.554 127.269 +0.00 -0.00    +0.000 AC
DOCKED: ATOM     33  CM  UNL     1      31.118  17.942 128.216 +0.00 -0.00    +0.000 AC
DOCKED: ENDBRANCH  19  20
DOCKED: ENDBRANCH  18  19
DOCKED: ENDBRANCH   1  18
DOCKED: TORSDOF 7DOCKED: TER
DOCKED: ENDMDL
________________________________________________________________________________


	BEGINNING GENETIC ALGORITHM DOCKING 49 of 100
Run: 49 Seed: 868652516 1067724994 [ Run 49 of 100 GA/GALS ]
Beginning LAMARCKIAN GENETIC ALGORITHM (LGA), with a maximum of 2500000 energy evaluations.

Final-Value: -15.347


	FINAL GENETIC ALGORITHM DOCKED STATE
	_______________________________________________


Detailed state:  trans 37.462 17.424 124.486 quatxyzw -0.022916 -0.102209 0.489903 0.865461 center 0.576 -0.005 0.140 ntor 7 -81.0340 180.0000 4.6855 152.1217 175.4651 39.4394 -179.6546
State:	 37.462  17.424 124.486  -0.046 -0.204  0.978 60.129    -81.03  180.00    4.69  152.12  175.47   39.44 -179.65

DOCKED: MODEL       49
DOCKED: USER    Run = 49
DOCKED: USER    DPF = ligand_dock.biased.dpf
DOCKED: USER  
DOCKED: USER    Estimated Free Energy of Binding    =  -11.99 kcal/mol  [=(1)+(2)+(3)-(4)]
DOCKED: USER    Estimated Inhibition Constant, Ki   =    1.62 nM (nanomolar)  [Temperature = 298.15 K]
DOCKED: USER    
DOCKED: USER    (1) Final Intermolecular Energy     =  -14.08 kcal/mol
DOCKED: USER        vdW + Hbond + desolv Energy     =  -14.08 kcal/mol
DOCKED: USER        Electrostatic Energy            =   +0.00 kcal/mol
DOCKED: USER    (2) Final Total Internal Energy     =   -1.27 kcal/mol
DOCKED: USER    (3) Torsional Free Energy           =   +2.09 kcal/mol
DOCKED: USER    (4) Unbound System's Energy  [=(2)] =   -1.27 kcal/mol
DOCKED: USER    
DOCKED: USER    
DOCKED: USER    NEWDPF move ligand.dum.pdbqt
DOCKED: USER    NEWDPF about 0.576000 -0.005000 0.140000
DOCKED: USER    NEWDPF tran0 37.461975 17.424115 124.485629
DOCKED: USER    NEWDPF quaternion0 -0.022916 -0.102209 0.489903 0.865461
DOCKED: USER    NEWDPF axisangle0 -0.045743 -0.204020 0.977897 60.129127
DOCKED: USER    NEWDPF quat0 -0.045743 -0.204020 0.977897 60.129127
DOCKED: USER    NEWDPF dihe0 -81.03 180.00 4.69 152.12 175.47 39.44 -179.65 
DOCKED: USER  keepresnum = 1 
DOCKED: USER  
DOCKED: REMARK  Name = 
DOCKED: REMARK  8 active torsions:
DOCKED: REMARK  status: ('A' for Active; 'I' for Inactive)
DOCKED: REMARK    1  A    between atoms: C_2  and  C_3
DOCKED: REMARK    2  A    between atoms: C_4  and  C_5
DOCKED: REMARK    3  A    between atoms: C_8  and  C_9
DOCKED: REMARK    4  A    between atoms: C_9  and  N_10
DOCKED: REMARK    5  A    between atoms: N_10  and  C_11
DOCKED: REMARK    6  A    between atoms: C_11  and  C_12
DOCKED: REMARK    7  A    between atoms: C_12  and  C_13
DOCKED: REMARK    8  A    between atoms: C_14  and  C_22
DOCKED: REMARK                            x       y       z     vdW  Elec       q    Type
DOCKED: REMARK                         _______ _______ _______ _____ _____    ______ ____
DOCKED: USER                              x       y       z     vdW  Elec       q    Type
DOCKED: USER                           _______ _______ _______ _____ _____    ______ ____
DOCKED: ROOT
DOCKED: ATOM      1  N   UNL     1      37.259  18.042 124.919 -0.19 -0.00    +0.000 N 
DOCKED: ATOM      2  H   UNL     1      38.179  17.927 125.342 -0.02 -0.00    +0.000 HD
DOCKED: ATOM      3  H   UNL     1      36.553  17.487 125.404 -0.02 -0.00    +0.000 HD
DOCKED: ENDROOT
DOCKED: BRANCH   1   4
DOCKED: ATOM      4  C   UNL     1      37.316  17.575 123.528 -0.23 -0.00    +0.000 C 
DOCKED: BRANCH   4   8
DOCKED: ATOM      5  C   UNL     1      36.625  13.309 123.343 -0.53 -0.00    +0.000 A 
DOCKED: ATOM      6  C   UNL     1      35.609  14.181 123.781 -0.49 -0.00    +0.000 A 
DOCKED: ATOM      7  C   UNL     1      35.839  15.559 123.851 -0.42 -0.00    +0.000 A 
DOCKED: ATOM      8  C   UNL     1      37.086  16.090 123.489 -0.29 -0.00    +0.000 A 
DOCKED: ATOM      9  C   UNL     1      38.089  15.228 123.020 -0.32 -0.00    +0.000 A 
DOCKED: ATOM     10  C   UNL     1      37.860  13.853 122.949 -0.45 -0.00    +0.000 A 
DOCKED: ATOM     11  CM  UNL     1      36.852  14.704 123.405 +0.00 -0.00    +0.000 AC
DOCKED: BRANCH   5  12
DOCKED: ATOM     12  C   UNL     1      37.167  11.049 122.443 -0.44 -0.00    +0.000 C 
DOCKED: ATOM     13  C   UNL     1      36.431  11.842 123.237 -0.69 -0.00    +0.000 C 
DOCKED: BRANCH  11  14
DOCKED: ATOM     14  O   UNL     1      36.593   9.109 121.238 -2.48 -0.00    +0.000 OA
DOCKED: ATOM     15  C   UNL     1      36.967   9.589 122.341 -0.63 -0.00    +0.000 C 
DOCKED: ATOM     16  N   UNL     1      37.158   8.708 123.456 -0.62 -0.00    +0.000 N 
DOCKED: ATOM     17  O   UNL     1      37.065   7.369 123.286 -2.40 -0.00    +0.000 OA
DOCKED: ATOM     18  H   UNL     1      37.356   9.079 124.346 -0.60 -0.00    +0.000 HD
DOCKED: ENDBRANCH  11  14
DOCKED: ENDBRANCH   5  12
DOCKED: ENDBRANCH   4   8
DOCKED: ENDBRANCH   1   4
DOCKED: BRANCH   1  18
DOCKED: ATOM     19  C   UNL     1      36.865  19.455 125.018 -0.16 -0.00    +0.000 C 
DOCKED: BRANCH  18  19
DOCKED: ATOM     20  C   UNL     1      38.043  20.370 125.394 -0.08 -0.00    +0.000 C 
DOCKED: BRANCH  19  20
DOCKED: ATOM     21  C   UNL     1      39.243  19.550 125.771 -0.13 -0.00    +0.000 A 
DOCKED: ATOM     22  C   UNL     1      40.305  19.174 124.947 -0.17 -0.00    +0.000 A 
DOCKED: ATOM     23  N   UNL     1      41.172  18.378 125.618 -0.34 -0.00    +0.000 N 
DOCKED: ATOM     24  C   UNL     1      40.657  18.230 126.851 -0.35 -0.00    +0.000 A 
DOCKED: ATOM     25  C   UNL     1      39.479  18.924 126.980 -0.20 -0.00    +0.000 A 
DOCKED: ATOM     26  C   UNL     1      38.743  18.903 128.166 -0.17 -0.00    +0.000 A 
DOCKED: ATOM     27  C   UNL     1      39.251  18.153 129.241 -0.25 -0.00    +0.000 A 
DOCKED: ATOM     28  C   UNL     1      40.466  17.444 129.109 -0.42 -0.00    +0.000 A 
DOCKED: ATOM     29  C   UNL     1      41.182  17.477 127.900 -0.40 -0.00    +0.000 A 
DOCKED: ATOM     30  C   UNL     1      40.494  19.588 123.523 -0.10 -0.00    +0.000 C 
DOCKED: ATOM     31  H   UNL     1      42.007  17.988 125.273 -0.50 -0.00    +0.000 HD
DOCKED: ATOM     32  CM  UNL     1      40.204  18.836 126.020 +0.00 -0.00    +0.000 AC
DOCKED: ATOM     33  CM  UNL     1      39.963  18.189 128.041 +0.00 -0.00    +0.000 AC
DOCKED: ENDBRANCH  19  20
DOCKED: ENDBRANCH  18  19
DOCKED: ENDBRANCH   1  18
DOCKED: TORSDOF 7DOCKED: TER
DOCKED: ENDMDL
________________________________________________________________________________


	BEGINNING GENETIC ALGORITHM DOCKING 50 of 100
Run: 50 Seed: 715941262 314933992 [ Run 50 of 100 GA/GALS ]
Beginning LAMARCKIAN GENETIC ALGORITHM (LGA), with a maximum of 2500000 energy evaluations.

Final-Value: -15.432


	FINAL GENETIC ALGORITHM DOCKED STATE
	_______________________________________________


Detailed state:  trans 36.368 17.937 122.780 quatxyzw 0.916946 -0.245262 -0.302535 0.086767 center 0.576 -0.005 0.140 ntor 7 -54.5318 174.5657 163.0956 30.1936 -1.4032 -78.9324 -27.5184
State:	 36.368  17.937 122.780   0.920 -0.246 -0.304 170.045    -54.53  174.57  163.10   30.19   -1.40  -78.93  -27.52

DOCKED: MODEL       50
DOCKED: USER    Run = 50
DOCKED: USER    DPF = ligand_dock.biased.dpf
DOCKED: USER  
DOCKED: USER    Estimated Free Energy of Binding    =  -12.18 kcal/mol  [=(1)+(2)+(3)-(4)]
DOCKED: USER    Estimated Inhibition Constant, Ki   =    1.18 nM (nanomolar)  [Temperature = 298.15 K]
DOCKED: USER    
DOCKED: USER    (1) Final Intermolecular Energy     =  -14.27 kcal/mol
DOCKED: USER        vdW + Hbond + desolv Energy     =  -14.27 kcal/mol
DOCKED: USER        Electrostatic Energy            =   +0.00 kcal/mol
DOCKED: USER    (2) Final Total Internal Energy     =   -1.16 kcal/mol
DOCKED: USER    (3) Torsional Free Energy           =   +2.09 kcal/mol
DOCKED: USER    (4) Unbound System's Energy  [=(2)] =   -1.16 kcal/mol
DOCKED: USER    
DOCKED: USER    
DOCKED: USER    NEWDPF move ligand.dum.pdbqt
DOCKED: USER    NEWDPF about 0.576000 -0.005000 0.140000
DOCKED: USER    NEWDPF tran0 36.368456 17.937467 122.779715
DOCKED: USER    NEWDPF quaternion0 0.916946 -0.245262 -0.302535 0.086767
DOCKED: USER    NEWDPF axisangle0 0.920417 -0.246191 -0.303680 170.044713
DOCKED: USER    NEWDPF quat0 0.920417 -0.246191 -0.303680 170.044713
DOCKED: USER    NEWDPF dihe0 -54.53 174.57 163.10 30.19 -1.40 -78.93 -27.52 
DOCKED: USER  keepresnum = 1 
DOCKED: USER  
DOCKED: REMARK  Name = 
DOCKED: REMARK  8 active torsions:
DOCKED: REMARK  status: ('A' for Active; 'I' for Inactive)
DOCKED: REMARK    1  A    between atoms: C_2  and  C_3
DOCKED: REMARK    2  A    between atoms: C_4  and  C_5
DOCKED: REMARK    3  A    between atoms: C_8  and  C_9
DOCKED: REMARK    4  A    between atoms: C_9  and  N_10
DOCKED: REMARK    5  A    between atoms: N_10  and  C_11
DOCKED: REMARK    6  A    between atoms: C_11  and  C_12
DOCKED: REMARK    7  A    between atoms: C_12  and  C_13
DOCKED: REMARK    8  A    between atoms: C_14  and  C_22
DOCKED: REMARK                            x       y       z     vdW  Elec       q    Type
DOCKED: REMARK                         _______ _______ _______ _____ _____    ______ ____
DOCKED: USER                              x       y       z     vdW  Elec       q    Type
DOCKED: USER                           _______ _______ _______ _____ _____    ______ ____
DOCKED: ROOT
DOCKED: ATOM      1  N   UNL     1      35.657  18.209 122.957 -0.23 -0.00    +0.000 N 
DOCKED: ATOM      2  H   UNL     1      35.341  17.592 122.208 -0.00 -0.00    +0.000 HD
DOCKED: ATOM      3  H   UNL     1      35.905  19.132 122.600 -0.01 -0.00    +0.000 HD
DOCKED: ENDROOT
DOCKED: BRANCH   1   4
DOCKED: ATOM      4  C   UNL     1      36.858  17.629 123.571 -0.24 -0.00    +0.000 C 
DOCKED: BRANCH   4   8
DOCKED: ATOM      5  C   UNL     1      36.560  13.319 123.376 -0.53 -0.00    +0.000 A 
DOCKED: ATOM      6  C   UNL     1      35.558  14.078 124.013 -0.44 -0.00    +0.000 A 
DOCKED: ATOM      7  C   UNL     1      35.664  15.471 124.084 -0.42 -0.00    +0.000 A 
DOCKED: ATOM      8  C   UNL     1      36.769  16.129 123.527 -0.30 -0.00    +0.000 A 
DOCKED: ATOM      9  C   UNL     1      37.751  15.379 122.863 -0.32 -0.00    +0.000 A 
DOCKED: ATOM     10  C   UNL     1      37.647  13.989 122.789 -0.44 -0.00    +0.000 A 
DOCKED: ATOM     11  CM  UNL     1      36.658  14.728 123.442 +0.00 -0.00    +0.000 AC
DOCKED: BRANCH   5  12
DOCKED: ATOM     12  C   UNL     1      37.063  11.145 122.264 -0.56 -0.00    +0.000 C 
DOCKED: ATOM     13  C   UNL     1      36.493  11.840 123.260 -0.69 -0.00    +0.000 C 
DOCKED: BRANCH  11  14
DOCKED: ATOM     14  O   UNL     1      36.864   9.163 121.009 -2.66 -0.00    +0.000 OA
DOCKED: ATOM     15  C   UNL     1      36.991   9.674 122.154 -0.61 -0.00    +0.000 C 
DOCKED: ATOM     16  N   UNL     1      37.032   8.816 123.300 -0.65 -0.00    +0.000 N 
DOCKED: ATOM     17  O   UNL     1      37.068   7.472 123.141 -2.41 -0.00    +0.000 OA
DOCKED: ATOM     18  H   UNL     1      37.033   9.204 124.205 -0.57 -0.00    +0.000 HD
DOCKED: ENDBRANCH  11  14
DOCKED: ENDBRANCH   5  12
DOCKED: ENDBRANCH   4   8
DOCKED: ENDBRANCH   1   4
DOCKED: BRANCH   1  18
DOCKED: ATOM     19  C   UNL     1      34.562  18.380 123.923 -0.26 -0.00    +0.000 C 
DOCKED: BRANCH  18  19
DOCKED: ATOM     20  C   UNL     1      35.035  19.001 125.247 -0.26 -0.00    +0.000 C 
DOCKED: BRANCH  19  20
DOCKED: ATOM     21  C   UNL     1      33.863  19.282 126.142 -0.23 -0.00    +0.000 A 
DOCKED: ATOM     22  C   UNL     1      33.304  20.526 126.443 -0.17 -0.00    +0.000 A 
DOCKED: ATOM     23  N   UNL     1      32.300  20.395 127.341 -0.19 -0.00    +0.000 N 
DOCKED: ATOM     24  C   UNL     1      32.231  19.083 127.627 -0.20 -0.00    +0.000 A 
DOCKED: ATOM     25  C   UNL     1      33.172  18.374 126.922 -0.26 -0.00    +0.000 A 
DOCKED: ATOM     26  C   UNL     1      33.311  16.993 127.069 -0.38 -0.00    +0.000 A 
DOCKED: ATOM     27  C   UNL     1      32.446  16.338 127.964 -0.40 -0.00    +0.000 A 
DOCKED: ATOM     28  C   UNL     1      31.475  17.067 128.685 -0.40 -0.00    +0.000 A 
DOCKED: ATOM     29  C   UNL     1      31.362  18.459 128.521 -0.24 -0.00    +0.000 A 
DOCKED: ATOM     30  C   UNL     1      33.727  21.836 125.859 -0.16 -0.00    +0.000 C 
DOCKED: ATOM     31  H   UNL     1      31.736  21.113 127.709 +0.00 -0.00    +0.000 HD
DOCKED: ATOM     32  CM  UNL     1      32.952  19.560 126.909 +0.00 -0.00    +0.000 AC
DOCKED: ATOM     33  CM  UNL     1      32.333  17.718 127.798 +0.00 -0.00    +0.000 AC
DOCKED: ENDBRANCH  19  20
DOCKED: ENDBRANCH  18  19
DOCKED: ENDBRANCH   1  18
DOCKED: TORSDOF 7DOCKED: TER
DOCKED: ENDMDL
________________________________________________________________________________


	BEGINNING GENETIC ALGORITHM DOCKING 51 of 100
Run: 51 Seed: 547365800 521730134 [ Run 51 of 100 GA/GALS ]
Beginning LAMARCKIAN GENETIC ALGORITHM (LGA), with a maximum of 2500000 energy evaluations.

Final-Value: -14.580


	FINAL GENETIC ALGORITHM DOCKED STATE
	_______________________________________________


Detailed state:  trans 37.761 15.901 122.641 quatxyzw -0.151302 0.312509 -0.389181 -0.853220 center 0.576 -0.005 0.140 ntor 7 -168.3990 73.3782 161.5823 117.4175 -87.2998 44.5576 -28.8852
State:	 37.761  15.901 122.641  -0.290  0.599 -0.746 -62.873   -168.40   73.38  161.58  117.42  -87.30   44.56  -28.89

DOCKED: MODEL       51
DOCKED: USER    Run = 51
DOCKED: USER    DPF = ligand_dock.biased.dpf
DOCKED: USER  
DOCKED: USER    Estimated Free Energy of Binding    =  -11.12 kcal/mol  [=(1)+(2)+(3)-(4)]
DOCKED: USER    Estimated Inhibition Constant, Ki   =    7.03 nM (nanomolar)  [Temperature = 298.15 K]
DOCKED: USER    
DOCKED: USER    (1) Final Intermolecular Energy     =  -13.21 kcal/mol
DOCKED: USER        vdW + Hbond + desolv Energy     =  -13.21 kcal/mol
DOCKED: USER        Electrostatic Energy            =   +0.00 kcal/mol
DOCKED: USER    (2) Final Total Internal Energy     =   -1.37 kcal/mol
DOCKED: USER    (3) Torsional Free Energy           =   +2.09 kcal/mol
DOCKED: USER    (4) Unbound System's Energy  [=(2)] =   -1.37 kcal/mol
DOCKED: USER    
DOCKED: USER    
DOCKED: USER    NEWDPF move ligand.dum.pdbqt
DOCKED: USER    NEWDPF about 0.576000 -0.005000 0.140000
DOCKED: USER    NEWDPF tran0 37.760812 15.900970 122.640818
DOCKED: USER    NEWDPF quaternion0 -0.151302 0.312509 -0.389181 -0.853220
DOCKED: USER    NEWDPF axisangle0 -0.290100 0.599191 -0.746198 -62.872746
DOCKED: USER    NEWDPF quat0 -0.290100 0.599191 -0.746198 -62.872746
DOCKED: USER    NEWDPF dihe0 -168.40 73.38 161.58 117.42 -87.30 44.56 -28.89 
DOCKED: USER  keepresnum = 1 
DOCKED: USER  
DOCKED: REMARK  Name = 
DOCKED: REMARK  8 active torsions:
DOCKED: REMARK  status: ('A' for Active; 'I' for Inactive)
DOCKED: REMARK    1  A    between atoms: C_2  and  C_3
DOCKED: REMARK    2  A    between atoms: C_4  and  C_5
DOCKED: REMARK    3  A    between atoms: C_8  and  C_9
DOCKED: REMARK    4  A    between atoms: C_9  and  N_10
DOCKED: REMARK    5  A    between atoms: N_10  and  C_11
DOCKED: REMARK    6  A    between atoms: C_11  and  C_12
DOCKED: REMARK    7  A    between atoms: C_12  and  C_13
DOCKED: REMARK    8  A    between atoms: C_14  and  C_22
DOCKED: REMARK                            x       y       z     vdW  Elec       q    Type
DOCKED: REMARK                         _______ _______ _______ _____ _____    ______ ____
DOCKED: USER                              x       y       z     vdW  Elec       q    Type
DOCKED: USER                           _______ _______ _______ _____ _____    ______ ____
DOCKED: ROOT
DOCKED: ATOM      1  N   UNL     1      37.673  16.522 123.107 -0.25 -0.00    +0.000 N 
DOCKED: ATOM      2  H   UNL     1      38.681  16.629 122.994 -0.01 -0.00    +0.000 HD
DOCKED: ATOM      3  H   UNL     1      37.448  15.916 123.896 -0.03 -0.00    +0.000 HD
DOCKED: ENDROOT
DOCKED: BRANCH   1   4
DOCKED: ATOM      4  C   UNL     1      37.125  15.901 121.895 -0.26 -0.00    +0.000 C 
DOCKED: BRANCH   4   8
DOCKED: ATOM      5  C   UNL     1      37.037  11.601 122.352 -0.52 -0.00    +0.000 A 
DOCKED: ATOM      6  C   UNL     1      36.903  12.444 123.474 -0.59 -0.00    +0.000 A 
DOCKED: ATOM      7  C   UNL     1      36.944  13.833 123.324 -0.47 -0.00    +0.000 A 
DOCKED: ATOM      8  C   UNL     1      37.122  14.406 122.057 -0.35 -0.00    +0.000 A 
DOCKED: ATOM      9  C   UNL     1      37.222  13.571 120.934 -0.36 -0.00    +0.000 A 
DOCKED: ATOM     10  C   UNL     1      37.180  12.183 121.082 -0.47 -0.00    +0.000 A 
DOCKED: ATOM     11  CM  UNL     1      37.068  13.007 122.203 +0.00 -0.00    +0.000 AC
DOCKED: BRANCH   5  12
DOCKED: ATOM     12  C   UNL     1      36.015   9.449 123.086 -0.66 -0.00    +0.000 C 
DOCKED: ATOM     13  C   UNL     1      36.989  10.121 122.452 -0.59 -0.00    +0.000 C 
DOCKED: BRANCH  11  14
DOCKED: ATOM     14  O   UNL     1      37.061   7.342 123.161 -2.34 -0.00    +0.000 OA
DOCKED: ATOM     15  C   UNL     1      35.973   7.976 123.184 -0.74 -0.00    +0.000 C 
DOCKED: ATOM     16  N   UNL     1      34.742   7.248 123.275 -0.68 -0.00    +0.000 N 
DOCKED: ATOM     17  O   UNL     1      34.760   5.908 123.469 -0.89 -0.00    +0.000 OA
DOCKED: ATOM     18  H   UNL     1      33.884   7.723 123.197 -0.06 -0.00    +0.000 HD
DOCKED: ENDBRANCH  11  14
DOCKED: ENDBRANCH   5  12
DOCKED: ENDBRANCH   4   8
DOCKED: ENDBRANCH   1   4
DOCKED: BRANCH   1  18
DOCKED: ATOM     19  C   UNL     1      37.085  17.843 123.373 -0.21 -0.00    +0.000 C 
DOCKED: BRANCH  18  19
DOCKED: ATOM     20  C   UNL     1      35.559  17.858 123.186 -0.30 -0.00    +0.000 C 
DOCKED: BRANCH  19  20
DOCKED: ATOM     21  C   UNL     1      34.871  17.476 124.465 -0.35 -0.00    +0.000 A 
DOCKED: ATOM     22  C   UNL     1      34.204  16.283 124.746 -0.46 -0.00    +0.000 A 
DOCKED: ATOM     23  N   UNL     1      33.648  16.324 125.980 -0.46 -0.00    +0.000 N 
DOCKED: ATOM     24  C   UNL     1      33.939  17.540 126.474 -0.33 -0.00    +0.000 A 
DOCKED: ATOM     25  C   UNL     1      34.677  18.273 125.577 -0.28 -0.00    +0.000 A 
DOCKED: ATOM     26  C   UNL     1      35.079  19.580 125.856 -0.18 -0.00    +0.000 A 
DOCKED: ATOM     27  C   UNL     1      34.714  20.130 127.098 -0.11 -0.00    +0.000 A 
DOCKED: ATOM     28  C   UNL     1      33.959  19.372 128.022 -0.11 -0.00    +0.000 A 
DOCKED: ATOM     29  C   UNL     1      33.561  18.060 127.711 -0.23 -0.00    +0.000 A 
DOCKED: ATOM     30  C   UNL     1      34.112  15.100 123.835 -0.52 -0.00    +0.000 C 
DOCKED: ATOM     31  H   UNL     1      33.136  15.610 126.424 -0.14 -0.00    +0.000 HD
DOCKED: ATOM     32  CM  UNL     1      34.248  17.151 125.465 -0.24 -0.00    +0.000 AC
DOCKED: ATOM     33  CM  UNL     1      34.322  18.826 126.790 -0.02 -0.00    +0.000 AC
DOCKED: ENDBRANCH  19  20
DOCKED: ENDBRANCH  18  19
DOCKED: ENDBRANCH   1  18
DOCKED: TORSDOF 7DOCKED: TER
DOCKED: ENDMDL
________________________________________________________________________________


	BEGINNING GENETIC ALGORITHM DOCKING 52 of 100
Run: 52 Seed: 924337816 1512414774 [ Run 52 of 100 GA/GALS ]
Beginning LAMARCKIAN GENETIC ALGORITHM (LGA), with a maximum of 2500000 energy evaluations.

Final-Value: -13.272


	FINAL GENETIC ALGORITHM DOCKED STATE
	_______________________________________________


Detailed state:  trans 36.248 18.250 124.019 quatxyzw -0.574305 -0.543759 -0.206594 -0.576037 center 0.576 -0.005 0.140 ntor 7 -158.5747 90.2768 -170.3937 178.9570 166.1840 170.6382 -152.0668
State:	 36.248  18.250 124.019  -0.703 -0.665 -0.253 -109.655   -158.57   90.28 -170.39  178.96  166.18  170.64 -152.07

DOCKED: MODEL       52
DOCKED: USER    Run = 52
DOCKED: USER    DPF = ligand_dock.biased.dpf
DOCKED: USER  
DOCKED: USER    Estimated Free Energy of Binding    =   -9.85 kcal/mol  [=(1)+(2)+(3)-(4)]
DOCKED: USER    Estimated Inhibition Constant, Ki   =   60.46 nM (nanomolar)  [Temperature = 298.15 K]
DOCKED: USER    
DOCKED: USER    (1) Final Intermolecular Energy     =  -11.94 kcal/mol
DOCKED: USER        vdW + Hbond + desolv Energy     =  -11.94 kcal/mol
DOCKED: USER        Electrostatic Energy            =   +0.00 kcal/mol
DOCKED: USER    (2) Final Total Internal Energy     =   -1.34 kcal/mol
DOCKED: USER    (3) Torsional Free Energy           =   +2.09 kcal/mol
DOCKED: USER    (4) Unbound System's Energy  [=(2)] =   -1.34 kcal/mol
DOCKED: USER    
DOCKED: USER    
DOCKED: USER    NEWDPF move ligand.dum.pdbqt
DOCKED: USER    NEWDPF about 0.576000 -0.005000 0.140000
DOCKED: USER    NEWDPF tran0 36.247504 18.249961 124.018525
DOCKED: USER    NEWDPF quaternion0 -0.574305 -0.543759 -0.206594 -0.576037
DOCKED: USER    NEWDPF axisangle0 -0.702580 -0.665211 -0.252738 -109.655365
DOCKED: USER    NEWDPF quat0 -0.702580 -0.665211 -0.252738 -109.655365
DOCKED: USER    NEWDPF dihe0 -158.57 90.28 -170.39 178.96 166.18 170.64 -152.07 
DOCKED: USER  keepresnum = 1 
DOCKED: USER  
DOCKED: REMARK  Name = 
DOCKED: REMARK  8 active torsions:
DOCKED: REMARK  status: ('A' for Active; 'I' for Inactive)
DOCKED: REMARK    1  A    between atoms: C_2  and  C_3
DOCKED: REMARK    2  A    between atoms: C_4  and  C_5
DOCKED: REMARK    3  A    between atoms: C_8  and  C_9
DOCKED: REMARK    4  A    between atoms: C_9  and  N_10
DOCKED: REMARK    5  A    between atoms: N_10  and  C_11
DOCKED: REMARK    6  A    between atoms: C_11  and  C_12
DOCKED: REMARK    7  A    between atoms: C_12  and  C_13
DOCKED: REMARK    8  A    between atoms: C_14  and  C_22
DOCKED: REMARK                            x       y       z     vdW  Elec       q    Type
DOCKED: REMARK                         _______ _______ _______ _____ _____    ______ ____
DOCKED: USER                              x       y       z     vdW  Elec       q    Type
DOCKED: USER                           _______ _______ _______ _____ _____    ______ ____
DOCKED: ROOT
DOCKED: ATOM      1  N   UNL     1      36.004  18.278 123.276 -0.20 -0.00    +0.000 N 
DOCKED: ATOM      2  H   UNL     1      36.537  19.146 123.235 +0.00 -0.00    +0.000 HD
DOCKED: ATOM      3  H   UNL     1      35.045  18.444 123.583 -0.01 -0.00    +0.000 HD
DOCKED: ENDROOT
DOCKED: BRANCH   1   4
DOCKED: ATOM      4  C   UNL     1      36.636  17.381 124.251 -0.25 -0.00    +0.000 C 
DOCKED: BRANCH   4   8
DOCKED: ATOM      5  C   UNL     1      36.402  13.277 122.906 -0.48 -0.00    +0.000 A 
DOCKED: ATOM      6  C   UNL     1      37.522  14.072 122.589 -0.43 -0.00    +0.000 A 
DOCKED: ATOM      7  C   UNL     1      37.589  15.402 123.016 -0.33 -0.00    +0.000 A 
DOCKED: ATOM      8  C   UNL     1      36.542  15.963 123.761 -0.32 -0.00    +0.000 A 
DOCKED: ATOM      9  C   UNL     1      35.442  15.165 124.107 -0.47 -0.00    +0.000 A 
DOCKED: ATOM     10  C   UNL     1      35.374  13.836 123.683 -0.32 -0.00    +0.000 A 
DOCKED: ATOM     11  CM  UNL     1      36.478  14.619 123.344 +0.00 -0.00    +0.000 AC
DOCKED: BRANCH   5  12
DOCKED: ATOM     12  C   UNL     1      37.065  10.875 122.968 -0.61 -0.00    +0.000 C 
DOCKED: ATOM     13  C   UNL     1      36.285  11.857 122.490 -0.63 -0.00    +0.000 C 
DOCKED: BRANCH  11  14
DOCKED: ATOM     14  O   UNL     1      36.691   9.216 121.339 -2.52 -0.00    +0.000 OA
DOCKED: ATOM     15  C   UNL     1      36.945   9.464 122.548 -0.65 -0.00    +0.000 C 
DOCKED: ATOM     16  N   UNL     1      37.080   8.375 123.470 -0.68 -0.00    +0.000 N 
DOCKED: ATOM     17  O   UNL     1      37.066   7.099 123.020 -2.02 -0.00    +0.000 OA
DOCKED: ATOM     18  H   UNL     1      37.183   8.556 124.432 -0.50 -0.00    +0.000 HD
DOCKED: ENDBRANCH  11  14
DOCKED: ENDBRANCH   5  12
DOCKED: ENDBRANCH   4   8
DOCKED: ENDBRANCH   1   4
DOCKED: BRANCH   1  18
DOCKED: ATOM     19  C   UNL     1      35.949  17.691 121.929 -0.25 -0.00    +0.000 C 
DOCKED: BRANCH  18  19
DOCKED: ATOM     20  C   UNL     1      37.292  17.791 121.188 -0.12 -0.00    +0.000 C 
DOCKED: BRANCH  19  20
DOCKED: ATOM     21  C   UNL     1      38.169  18.827 121.830 -0.06 -0.00    +0.000 A 
DOCKED: ATOM     22  C   UNL     1      38.106  20.212 121.665 -0.06 -0.00    +0.000 A 
DOCKED: ATOM     23  N   UNL     1      39.102  20.822 122.350 -0.03 -0.00    +0.000 N 
DOCKED: ATOM     24  C   UNL     1      39.807  19.835 122.929 -0.04 -0.00    +0.000 A 
DOCKED: ATOM     25  C   UNL     1      39.274  18.606 122.630 -0.08 -0.00    +0.000 A 
DOCKED: ATOM     26  C   UNL     1      39.849  17.424 123.100 -0.20 -0.00    +0.000 A 
DOCKED: ATOM     27  C   UNL     1      40.998  17.527 123.904 -0.30 -0.00    +0.000 A 
DOCKED: ATOM     28  C   UNL     1      41.543  18.792 124.216 -0.19 -0.00    +0.000 A 
DOCKED: ATOM     29  C   UNL     1      40.946  19.966 123.723 -0.08 -0.00    +0.000 A 
DOCKED: ATOM     30  C   UNL     1      37.082  20.949 120.861 -0.10 -0.00    +0.000 C 
DOCKED: ATOM     31  H   UNL     1      39.274  21.789 122.411 +0.00 -0.00    +0.000 HD
DOCKED: ATOM     32  CM  UNL     1      38.898  19.698 122.283 +0.00 -0.00    +0.000 AC
DOCKED: ATOM     33  CM  UNL     1      40.403  18.691 123.417 +0.00 -0.00    +0.000 AC
DOCKED: ENDBRANCH  19  20
DOCKED: ENDBRANCH  18  19
DOCKED: ENDBRANCH   1  18
DOCKED: TORSDOF 7DOCKED: TER
DOCKED: ENDMDL
________________________________________________________________________________


	BEGINNING GENETIC ALGORITHM DOCKING 53 of 100
Run: 53 Seed: 1913420311 2070975217 [ Run 53 of 100 GA/GALS ]
Beginning LAMARCKIAN GENETIC ALGORITHM (LGA), with a maximum of 2500000 energy evaluations.

Final-Value: -14.217


	FINAL GENETIC ALGORITHM DOCKED STATE
	_______________________________________________


Detailed state:  trans 37.424 16.772 121.950 quatxyzw -0.968652 0.076405 -0.062477 -0.227973 center 0.576 -0.005 0.140 ntor 7 -163.9201 -115.0158 -151.3576 132.0321 115.1562 -97.0039 8.8946
State:	 37.424  16.772 121.950  -0.995  0.078 -0.064 -153.645   -163.92 -115.02 -151.36  132.03  115.16  -97.00    8.89

DOCKED: MODEL       53
DOCKED: USER    Run = 53
DOCKED: USER    DPF = ligand_dock.biased.dpf
DOCKED: USER  
DOCKED: USER    Estimated Free Energy of Binding    =  -10.51 kcal/mol  [=(1)+(2)+(3)-(4)]
DOCKED: USER    Estimated Inhibition Constant, Ki   =   19.76 nM (nanomolar)  [Temperature = 298.15 K]
DOCKED: USER    
DOCKED: USER    (1) Final Intermolecular Energy     =  -12.60 kcal/mol
DOCKED: USER        vdW + Hbond + desolv Energy     =  -12.60 kcal/mol
DOCKED: USER        Electrostatic Energy            =   +0.00 kcal/mol
DOCKED: USER    (2) Final Total Internal Energy     =   -1.62 kcal/mol
DOCKED: USER    (3) Torsional Free Energy           =   +2.09 kcal/mol
DOCKED: USER    (4) Unbound System's Energy  [=(2)] =   -1.62 kcal/mol
DOCKED: USER    
DOCKED: USER    
DOCKED: USER    NEWDPF move ligand.dum.pdbqt
DOCKED: USER    NEWDPF about 0.576000 -0.005000 0.140000
DOCKED: USER    NEWDPF tran0 37.424466 16.772413 121.950148
DOCKED: USER    NEWDPF quaternion0 -0.968652 0.076405 -0.062477 -0.227973
DOCKED: USER    NEWDPF axisangle0 -0.994849 0.078472 -0.064166 -153.644521
DOCKED: USER    NEWDPF quat0 -0.994849 0.078472 -0.064166 -153.644521
DOCKED: USER    NEWDPF dihe0 -163.92 -115.02 -151.36 132.03 115.16 -97.00 8.89 
DOCKED: USER  keepresnum = 1 
DOCKED: USER  
DOCKED: REMARK  Name = 
DOCKED: REMARK  8 active torsions:
DOCKED: REMARK  status: ('A' for Active; 'I' for Inactive)
DOCKED: REMARK    1  A    between atoms: C_2  and  C_3
DOCKED: REMARK    2  A    between atoms: C_4  and  C_5
DOCKED: REMARK    3  A    between atoms: C_8  and  C_9
DOCKED: REMARK    4  A    between atoms: C_9  and  N_10
DOCKED: REMARK    5  A    between atoms: N_10  and  C_11
DOCKED: REMARK    6  A    between atoms: C_11  and  C_12
DOCKED: REMARK    7  A    between atoms: C_12  and  C_13
DOCKED: REMARK    8  A    between atoms: C_14  and  C_22
DOCKED: REMARK                            x       y       z     vdW  Elec       q    Type
DOCKED: REMARK                         _______ _______ _______ _____ _____    ______ ____
DOCKED: USER                              x       y       z     vdW  Elec       q    Type
DOCKED: USER                           _______ _______ _______ _____ _____    ______ ____
DOCKED: ROOT
DOCKED: ATOM      1  N   UNL     1      36.763  16.923 121.563 -0.17 -0.00    +0.000 N 
DOCKED: ATOM      2  H   UNL     1      37.231  16.468 120.779 +0.00 -0.00    +0.000 HD
DOCKED: ATOM      3  H   UNL     1      36.960  17.924 121.585 +0.00 -0.00    +0.000 HD
DOCKED: ENDROOT
DOCKED: BRANCH   1   4
DOCKED: ATOM      4  C   UNL     1      37.261  16.340 122.814 -0.29 -0.00    +0.000 C 
DOCKED: BRANCH   4   8
DOCKED: ATOM      5  C   UNL     1      37.079  12.023 122.625 -0.54 -0.00    +0.000 A 
DOCKED: ATOM      6  C   UNL     1      37.572  12.768 121.535 -0.43 -0.00    +0.000 A 
DOCKED: ATOM      7  C   UNL     1      37.619  14.164 121.595 -0.36 -0.00    +0.000 A 
DOCKED: ATOM      8  C   UNL     1      37.172  14.841 122.739 -0.37 -0.00    +0.000 A 
DOCKED: ATOM      9  C   UNL     1      36.712  14.102 123.838 -0.37 -0.00    +0.000 A 
DOCKED: ATOM     10  C   UNL     1      36.666  12.707 123.781 -0.54 -0.00    +0.000 A 
DOCKED: ATOM     11  CM  UNL     1      37.137  13.434 122.686 +0.00 -0.00    +0.000 AC
DOCKED: BRANCH   5  12
DOCKED: ATOM     12  C   UNL     1      35.976   9.836 123.086 -0.67 -0.00    +0.000 C 
DOCKED: ATOM     13  C   UNL     1      37.019  10.540 122.620 -0.59 -0.00    +0.000 C 
DOCKED: BRANCH  11  14
DOCKED: ATOM     14  O   UNL     1      36.996   7.719 123.231 -2.55 -0.00    +0.000 OA
DOCKED: ATOM     15  C   UNL     1      35.922   8.360 123.080 -0.73 -0.00    +0.000 C 
DOCKED: ATOM     16  N   UNL     1      34.700   7.637 122.881 -0.63 -0.00    +0.000 N 
DOCKED: ATOM     17  O   UNL     1      34.686   6.288 122.988 -0.78 -0.00    +0.000 OA
DOCKED: ATOM     18  H   UNL     1      33.872   8.123 122.666 -0.03 -0.00    +0.000 HD
DOCKED: ENDBRANCH  11  14
DOCKED: ENDBRANCH   5  12
DOCKED: ENDBRANCH   4   8
DOCKED: ENDBRANCH   1   4
DOCKED: BRANCH   1  18
DOCKED: ATOM     19  C   UNL     1      35.310  16.755 121.407 -0.05 -0.00    +0.000 C 
DOCKED: BRANCH  18  19
DOCKED: ATOM     20  C   UNL     1      34.508  17.819 122.175 -0.38 -0.00    +0.000 C 
DOCKED: BRANCH  19  20
DOCKED: ATOM     21  C   UNL     1      34.639  17.605 123.656 -0.36 -0.00    +0.000 A 
DOCKED: ATOM     22  C   UNL     1      34.252  16.482 124.388 -0.44 -0.00    +0.000 A 
DOCKED: ATOM     23  N   UNL     1      34.464  16.677 125.712 -0.40 -0.00    +0.000 N 
DOCKED: ATOM     24  C   UNL     1      34.960  17.921 125.825 -0.25 -0.00    +0.000 A 
DOCKED: ATOM     25  C   UNL     1      35.076  18.521 124.595 -0.26 -0.00    +0.000 A 
DOCKED: ATOM     26  C   UNL     1      35.547  19.827 124.459 -0.16 -0.00    +0.000 A 
DOCKED: ATOM     27  C   UNL     1      35.914  20.519 125.627 -0.12 -0.00    +0.000 A 
DOCKED: ATOM     28  C   UNL     1      35.800  19.899 126.891 -0.11 -0.00    +0.000 A 
DOCKED: ATOM     29  C   UNL     1      35.316  18.583 126.999 -0.15 -0.00    +0.000 A 
DOCKED: ATOM     30  C   UNL     1      33.692  15.218 123.817 -0.35 -0.00    +0.000 C 
DOCKED: ATOM     31  H   UNL     1      34.289  16.039 126.441 -0.04 -0.00    +0.000 HD
DOCKED: ATOM     32  CM  UNL     1      34.671  17.416 124.864 -0.41 -0.00    +0.000 AC
DOCKED: ATOM     33  CM  UNL     1      35.436  19.212 125.733 -0.07 -0.00    +0.000 AC
DOCKED: ENDBRANCH  19  20
DOCKED: ENDBRANCH  18  19
DOCKED: ENDBRANCH   1  18
DOCKED: TORSDOF 7DOCKED: TER
DOCKED: ENDMDL
________________________________________________________________________________


	BEGINNING GENETIC ALGORITHM DOCKING 54 of 100
Run: 54 Seed: 468019078 1114869072 [ Run 54 of 100 GA/GALS ]
Beginning LAMARCKIAN GENETIC ALGORITHM (LGA), with a maximum of 2500000 energy evaluations.

Final-Value: -14.701


	FINAL GENETIC ALGORITHM DOCKED STATE
	_______________________________________________


Detailed state:  trans 36.978 17.178 124.502 quatxyzw -0.143624 0.307955 -0.748240 -0.569801 center 0.576 -0.005 0.140 ntor 7 148.7742 161.8523 -22.7115 10.1574 -79.2431 -28.7404 64.1289
State:	 36.978  17.178 124.502  -0.175  0.375 -0.911 -110.527    148.77  161.85  -22.71   10.16  -79.24  -28.74   64.13

DOCKED: MODEL       54
DOCKED: USER    Run = 54
DOCKED: USER    DPF = ligand_dock.biased.dpf
DOCKED: USER  
DOCKED: USER    Estimated Free Energy of Binding    =  -11.58 kcal/mol  [=(1)+(2)+(3)-(4)]
DOCKED: USER    Estimated Inhibition Constant, Ki   =    3.26 nM (nanomolar)  [Temperature = 298.15 K]
DOCKED: USER    
DOCKED: USER    (1) Final Intermolecular Energy     =  -13.67 kcal/mol
DOCKED: USER        vdW + Hbond + desolv Energy     =  -13.67 kcal/mol
DOCKED: USER        Electrostatic Energy            =   +0.00 kcal/mol
DOCKED: USER    (2) Final Total Internal Energy     =   -1.03 kcal/mol
DOCKED: USER    (3) Torsional Free Energy           =   +2.09 kcal/mol
DOCKED: USER    (4) Unbound System's Energy  [=(2)] =   -1.03 kcal/mol
DOCKED: USER    
DOCKED: USER    
DOCKED: USER    NEWDPF move ligand.dum.pdbqt
DOCKED: USER    NEWDPF about 0.576000 -0.005000 0.140000
DOCKED: USER    NEWDPF tran0 36.978217 17.177548 124.502105
DOCKED: USER    NEWDPF quaternion0 -0.143624 0.307955 -0.748240 -0.569801
DOCKED: USER    NEWDPF axisangle0 -0.174771 0.374740 -0.910508 -110.527330
DOCKED: USER    NEWDPF quat0 -0.174771 0.374740 -0.910508 -110.527330
DOCKED: USER    NEWDPF dihe0 148.77 161.85 -22.71 10.16 -79.24 -28.74 64.13 
DOCKED: USER  keepresnum = 1 
DOCKED: USER  
DOCKED: REMARK  Name = 
DOCKED: REMARK  8 active torsions:
DOCKED: REMARK  status: ('A' for Active; 'I' for Inactive)
DOCKED: REMARK    1  A    between atoms: C_2  and  C_3
DOCKED: REMARK    2  A    between atoms: C_4  and  C_5
DOCKED: REMARK    3  A    between atoms: C_8  and  C_9
DOCKED: REMARK    4  A    between atoms: C_9  and  N_10
DOCKED: REMARK    5  A    between atoms: N_10  and  C_11
DOCKED: REMARK    6  A    between atoms: C_11  and  C_12
DOCKED: REMARK    7  A    between atoms: C_12  and  C_13
DOCKED: REMARK    8  A    between atoms: C_14  and  C_22
DOCKED: REMARK                            x       y       z     vdW  Elec       q    Type
DOCKED: REMARK                         _______ _______ _______ _____ _____    ______ ____
DOCKED: USER                              x       y       z     vdW  Elec       q    Type
DOCKED: USER                           _______ _______ _______ _____ _____    ______ ____
DOCKED: ROOT
DOCKED: ATOM      1  N   UNL     1      37.463  17.734 124.758 -0.14 -0.00    +0.000 N 
DOCKED: ATOM      2  H   UNL     1      38.176  17.008 124.697 -0.02 -0.00    +0.000 HD
DOCKED: ATOM      3  H   UNL     1      37.006  17.733 125.670 -0.01 -0.00    +0.000 HD
DOCKED: ENDROOT
DOCKED: BRANCH   1   4
DOCKED: ATOM      4  C   UNL     1      36.436  17.475 123.742 -0.27 -0.00    +0.000 C 
DOCKED: BRANCH   4   8
DOCKED: ATOM      5  C   UNL     1      36.803  13.366 122.445 -0.45 -0.00    +0.000 A 
DOCKED: ATOM      6  C   UNL     1      37.705  14.346 121.984 -0.37 -0.00    +0.000 A 
DOCKED: ATOM      7  C   UNL     1      37.576  15.676 122.396 -0.28 -0.00    +0.000 A 
DOCKED: ATOM      8  C   UNL     1      36.546  16.052 123.270 -0.32 -0.00    +0.000 A 
DOCKED: ATOM      9  C   UNL     1      35.668  15.073 123.757 -0.46 -0.00    +0.000 A 
DOCKED: ATOM     10  C   UNL     1      35.796  13.744 123.348 -0.41 -0.00    +0.000 A 
DOCKED: ATOM     11  CM  UNL     1      36.682  14.710 122.867 +0.00 -0.00    +0.000 AC
DOCKED: BRANCH   5  12
DOCKED: ATOM     12  C   UNL     1      36.707  10.916 122.897 -0.68 -0.00    +0.000 C 
DOCKED: ATOM     13  C   UNL     1      36.901  11.938 122.049 -0.59 -0.00    +0.000 C 
DOCKED: BRANCH  11  14
DOCKED: ATOM     14  O   UNL     1      36.813   9.218 121.270 -2.61 -0.00    +0.000 OA
DOCKED: ATOM     15  C   UNL     1      36.808   9.498 122.498 -0.68 -0.00    +0.000 C 
DOCKED: ATOM     16  N   UNL     1      36.874   8.434 123.457 -0.68 -0.00    +0.000 N 
DOCKED: ATOM     17  O   UNL     1      37.071   7.161 123.044 -2.10 -0.00    +0.000 OA
DOCKED: ATOM     18  H   UNL     1      36.775   8.631 124.416 -0.41 -0.00    +0.000 HD
DOCKED: ENDBRANCH  11  14
DOCKED: ENDBRANCH   5  12
DOCKED: ENDBRANCH   4   8
DOCKED: ENDBRANCH   1   4
DOCKED: BRANCH   1  18
DOCKED: ATOM     19  C   UNL     1      38.107  19.044 124.581 -0.15 -0.00    +0.000 C 
DOCKED: BRANCH  18  19
DOCKED: ATOM     20  C   UNL     1      38.300  19.791 125.911 -0.12 -0.00    +0.000 C 
DOCKED: BRANCH  19  20
DOCKED: ATOM     21  C   UNL     1      39.688  19.569 126.440 -0.14 -0.00    +0.000 A 
DOCKED: ATOM     22  C   UNL     1      40.887  20.030 125.895 -0.14 -0.00    +0.000 A 
DOCKED: ATOM     23  N   UNL     1      41.944  19.574 126.609 -0.16 -0.00    +0.000 N 
DOCKED: ATOM     24  C   UNL     1      41.425  18.813 127.588 -0.31 -0.00    +0.000 A 
DOCKED: ATOM     25  C   UNL     1      40.055  18.780 127.514 -0.25 -0.00    +0.000 A 
DOCKED: ATOM     26  C   UNL     1      39.291  18.033 128.412 -0.20 -0.00    +0.000 A 
DOCKED: ATOM     27  C   UNL     1      39.969  17.314 129.412 -0.37 -0.00    +0.000 A 
DOCKED: ATOM     28  C   UNL     1      41.379  17.353 129.491 -0.37 -0.00    +0.000 A 
DOCKED: ATOM     29  C   UNL     1      42.124  18.109 128.568 -0.42 -0.00    +0.000 A 
DOCKED: ATOM     30  C   UNL     1      41.017  20.916 124.697 -0.07 -0.00    +0.000 C 
DOCKED: ATOM     31  H   UNL     1      42.896  19.762 126.444 -0.48 -0.00    +0.000 HD
DOCKED: ATOM     32  CM  UNL     1      40.837  19.360 126.802 +0.00 -0.00    +0.000 AC
DOCKED: ATOM     33  CM  UNL     1      40.706  18.067 128.498 +0.00 -0.00    +0.000 AC
DOCKED: ENDBRANCH  19  20
DOCKED: ENDBRANCH  18  19
DOCKED: ENDBRANCH   1  18
DOCKED: TORSDOF 7DOCKED: TER
DOCKED: ENDMDL
________________________________________________________________________________


	BEGINNING GENETIC ALGORITHM DOCKING 55 of 100
Run: 55 Seed: 1861031991 1469507936 [ Run 55 of 100 GA/GALS ]
Beginning LAMARCKIAN GENETIC ALGORITHM (LGA), with a maximum of 2500000 energy evaluations.

Final-Value: -15.169


	FINAL GENETIC ALGORITHM DOCKED STATE
	_______________________________________________


Detailed state:  trans 37.749 18.092 121.698 quatxyzw -0.792157 0.332960 0.501862 -0.098796 center 0.576 -0.005 0.140 ntor 7 -178.7535 -174.0131 -168.4195 160.5206 -50.9141 -74.9156 142.7871
State:	 37.749  18.092 121.698  -0.796  0.335  0.504 -168.660   -178.75 -174.01 -168.42  160.52  -50.91  -74.92  142.79

DOCKED: MODEL       55
DOCKED: USER    Run = 55
DOCKED: USER    DPF = ligand_dock.biased.dpf
DOCKED: USER  
DOCKED: USER    Estimated Free Energy of Binding    =  -11.55 kcal/mol  [=(1)+(2)+(3)-(4)]
DOCKED: USER    Estimated Inhibition Constant, Ki   =    3.44 nM (nanomolar)  [Temperature = 298.15 K]
DOCKED: USER    
DOCKED: USER    (1) Final Intermolecular Energy     =  -13.63 kcal/mol
DOCKED: USER        vdW + Hbond + desolv Energy     =  -13.63 kcal/mol
DOCKED: USER        Electrostatic Energy            =   +0.00 kcal/mol
DOCKED: USER    (2) Final Total Internal Energy     =   -1.54 kcal/mol
DOCKED: USER    (3) Torsional Free Energy           =   +2.09 kcal/mol
DOCKED: USER    (4) Unbound System's Energy  [=(2)] =   -1.54 kcal/mol
DOCKED: USER    
DOCKED: USER    
DOCKED: USER    NEWDPF move ligand.dum.pdbqt
DOCKED: USER    NEWDPF about 0.576000 -0.005000 0.140000
DOCKED: USER    NEWDPF tran0 37.749459 18.092346 121.698198
DOCKED: USER    NEWDPF quaternion0 -0.792157 0.332960 0.501862 -0.098796
DOCKED: USER    NEWDPF axisangle0 -0.796051 0.334596 0.504329 -168.660272
DOCKED: USER    NEWDPF quat0 -0.796051 0.334596 0.504329 -168.660272
DOCKED: USER    NEWDPF dihe0 -178.75 -174.01 -168.42 160.52 -50.91 -74.92 142.79 
DOCKED: USER  keepresnum = 1 
DOCKED: USER  
DOCKED: REMARK  Name = 
DOCKED: REMARK  8 active torsions:
DOCKED: REMARK  status: ('A' for Active; 'I' for Inactive)
DOCKED: REMARK    1  A    between atoms: C_2  and  C_3
DOCKED: REMARK    2  A    between atoms: C_4  and  C_5
DOCKED: REMARK    3  A    between atoms: C_8  and  C_9
DOCKED: REMARK    4  A    between atoms: C_9  and  N_10
DOCKED: REMARK    5  A    between atoms: N_10  and  C_11
DOCKED: REMARK    6  A    between atoms: C_11  and  C_12
DOCKED: REMARK    7  A    between atoms: C_12  and  C_13
DOCKED: REMARK    8  A    between atoms: C_14  and  C_22
DOCKED: REMARK                            x       y       z     vdW  Elec       q    Type
DOCKED: REMARK                         _______ _______ _______ _____ _____    ______ ____
DOCKED: USER                              x       y       z     vdW  Elec       q    Type
DOCKED: USER                           _______ _______ _______ _____ _____    ______ ____
DOCKED: ROOT
DOCKED: ATOM      1  N   UNL     1      37.256  18.454 122.184 -0.11 -0.00    +0.000 N 
DOCKED: ATOM      2  H   UNL     1      36.530  18.002 121.630 +0.00 -0.00    +0.000 HD
DOCKED: ATOM      3  H   UNL     1      37.514  19.361 121.793 +0.00 -0.00    +0.000 HD
DOCKED: ENDROOT
DOCKED: BRANCH   1   4
DOCKED: ATOM      4  C   UNL     1      38.454  17.606 122.175 -0.14 -0.00    +0.000 C 
DOCKED: BRANCH   4   8
DOCKED: ATOM      5  C   UNL     1      37.359  13.450 121.689 -0.41 -0.00    +0.000 A 
DOCKED: ATOM      6  C   UNL     1      37.277  14.345 120.602 -0.28 -0.00    +0.000 A 
DOCKED: ATOM      7  C   UNL     1      37.621  15.690 120.766 -0.19 -0.00    +0.000 A 
DOCKED: ATOM      8  C   UNL     1      38.048  16.168 122.014 -0.20 -0.00    +0.000 A 
DOCKED: ATOM      9  C   UNL     1      38.162  15.273 123.088 -0.31 -0.00    +0.000 A 
DOCKED: ATOM     10  C   UNL     1      37.821  13.929 122.926 -0.45 -0.00    +0.000 A 
DOCKED: ATOM     11  CM  UNL     1      37.715  14.809 121.848 +0.00 -0.00    +0.000 AC
DOCKED: BRANCH   5  12
DOCKED: ATOM     12  C   UNL     1      37.384  11.082 122.464 -0.17 -0.00    +0.000 C 
DOCKED: ATOM     13  C   UNL     1      37.018  12.011 121.568 -0.56 -0.00    +0.000 C 
DOCKED: BRANCH  11  14
DOCKED: ATOM     14  O   UNL     1      36.691   9.214 121.210 -2.63 -0.00    +0.000 OA
DOCKED: ATOM     15  C   UNL     1      37.045   9.650 122.338 -0.60 -0.00    +0.000 C 
DOCKED: ATOM     16  N   UNL     1      37.077   8.752 123.454 -0.63 -0.00    +0.000 N 
DOCKED: ATOM     17  O   UNL     1      36.859   7.429 123.267 -2.32 -0.00    +0.000 OA
DOCKED: ATOM     18  H   UNL     1      37.258   9.098 124.357 -0.57 -0.00    +0.000 HD
DOCKED: ENDBRANCH  11  14
DOCKED: ENDBRANCH   5  12
DOCKED: ENDBRANCH   4   8
DOCKED: ENDBRANCH   1   4
DOCKED: BRANCH   1  18
DOCKED: ATOM     19  C   UNL     1      36.741  18.681 123.543 -0.19 -0.00    +0.000 C 
DOCKED: BRANCH  18  19
DOCKED: ATOM     20  C   UNL     1      35.205  18.743 123.589 -0.23 -0.00    +0.000 C 
DOCKED: BRANCH  19  20
DOCKED: ATOM     21  C   UNL     1      34.671  17.742 124.572 -0.34 -0.00    +0.000 A 
DOCKED: ATOM     22  C   UNL     1      34.531  16.365 124.390 -0.47 -0.00    +0.000 A 
DOCKED: ATOM     23  N   UNL     1      33.948  15.796 125.472 -0.51 -0.00    +0.000 N 
DOCKED: ATOM     24  C   UNL     1      33.699  16.803 126.327 -0.38 -0.00    +0.000 A 
DOCKED: ATOM     25  C   UNL     1      34.118  18.004 125.812 -0.33 -0.00    +0.000 A 
DOCKED: ATOM     26  C   UNL     1      33.945  19.201 126.509 -0.22 -0.00    +0.000 A 
DOCKED: ATOM     27  C   UNL     1      33.329  19.143 127.772 -0.15 -0.00    +0.000 A 
DOCKED: ATOM     28  C   UNL     1      32.903  17.905 128.304 -0.23 -0.00    +0.000 A 
DOCKED: ATOM     29  C   UNL     1      33.085  16.716 127.576 -0.40 -0.00    +0.000 A 
DOCKED: ATOM     30  C   UNL     1      34.967  15.596 123.185 -0.35 -0.00    +0.000 C 
DOCKED: ATOM     31  H   UNL     1      33.748  14.841 125.605 -0.06 -0.00    +0.000 HD
DOCKED: ATOM     32  CM  UNL     1      34.185  16.905 125.320 -0.20 -0.00    +0.000 AC
DOCKED: ATOM     33  CM  UNL     1      33.513  17.962 127.050 -0.00 -0.00    +0.000 AC
DOCKED: ENDBRANCH  19  20
DOCKED: ENDBRANCH  18  19
DOCKED: ENDBRANCH   1  18
DOCKED: TORSDOF 7DOCKED: TER
DOCKED: ENDMDL
________________________________________________________________________________


	BEGINNING GENETIC ALGORITHM DOCKING 56 of 100
Run: 56 Seed: 46487410 1656893965 [ Run 56 of 100 GA/GALS ]
Beginning LAMARCKIAN GENETIC ALGORITHM (LGA), with a maximum of 2500000 energy evaluations.

Final-Value: -14.583


	FINAL GENETIC ALGORITHM DOCKED STATE
	_______________________________________________


Detailed state:  trans 37.016 17.279 124.042 quatxyzw 0.106536 -0.347538 0.633025 0.683481 center 0.576 -0.005 0.140 ntor 7 138.9463 -156.8919 -16.9457 -23.0095 -130.2279 -6.5883 179.8184
State:	 37.016  17.279 124.042   0.146 -0.476  0.867 93.767    138.95 -156.89  -16.95  -23.01 -130.23   -6.59  179.82

DOCKED: MODEL       56
DOCKED: USER    Run = 56
DOCKED: USER    DPF = ligand_dock.biased.dpf
DOCKED: USER  
DOCKED: USER    Estimated Free Energy of Binding    =  -10.30 kcal/mol  [=(1)+(2)+(3)-(4)]
DOCKED: USER    Estimated Inhibition Constant, Ki   =   28.01 nM (nanomolar)  [Temperature = 298.15 K]
DOCKED: USER    
DOCKED: USER    (1) Final Intermolecular Energy     =  -12.39 kcal/mol
DOCKED: USER        vdW + Hbond + desolv Energy     =  -12.39 kcal/mol
DOCKED: USER        Electrostatic Energy            =   +0.00 kcal/mol
DOCKED: USER    (2) Final Total Internal Energy     =   -2.19 kcal/mol
DOCKED: USER    (3) Torsional Free Energy           =   +2.09 kcal/mol
DOCKED: USER    (4) Unbound System's Energy  [=(2)] =   -2.19 kcal/mol
DOCKED: USER    
DOCKED: USER    
DOCKED: USER    NEWDPF move ligand.dum.pdbqt
DOCKED: USER    NEWDPF about 0.576000 -0.005000 0.140000
DOCKED: USER    NEWDPF tran0 37.016057 17.279206 124.042022
DOCKED: USER    NEWDPF quaternion0 0.106536 -0.347538 0.633025 0.683481
DOCKED: USER    NEWDPF axisangle0 0.145946 -0.476101 0.867195 93.767409
DOCKED: USER    NEWDPF quat0 0.145946 -0.476101 0.867195 93.767409
DOCKED: USER    NEWDPF dihe0 138.95 -156.89 -16.95 -23.01 -130.23 -6.59 179.82 
DOCKED: USER  keepresnum = 1 
DOCKED: USER  
DOCKED: REMARK  Name = 
DOCKED: REMARK  8 active torsions:
DOCKED: REMARK  status: ('A' for Active; 'I' for Inactive)
DOCKED: REMARK    1  A    between atoms: C_2  and  C_3
DOCKED: REMARK    2  A    between atoms: C_4  and  C_5
DOCKED: REMARK    3  A    between atoms: C_8  and  C_9
DOCKED: REMARK    4  A    between atoms: C_9  and  N_10
DOCKED: REMARK    5  A    between atoms: N_10  and  C_11
DOCKED: REMARK    6  A    between atoms: C_11  and  C_12
DOCKED: REMARK    7  A    between atoms: C_12  and  C_13
DOCKED: REMARK    8  A    between atoms: C_14  and  C_22
DOCKED: REMARK                            x       y       z     vdW  Elec       q    Type
DOCKED: REMARK                         _______ _______ _______ _____ _____    ______ ____
DOCKED: USER                              x       y       z     vdW  Elec       q    Type
DOCKED: USER                           _______ _______ _______ _____ _____    ______ ____
DOCKED: ROOT
DOCKED: ATOM      1  N   UNL     1      37.329  17.876 124.437 -0.21 -0.00    +0.000 N 
DOCKED: ATOM      2  H   UNL     1      38.211  17.388 124.288 -0.02 -0.00    +0.000 HD
DOCKED: ATOM      3  H   UNL     1      36.871  17.567 125.295 -0.02 -0.00    +0.000 HD
DOCKED: ENDROOT
DOCKED: BRANCH   1   4
DOCKED: ATOM      4  C   UNL     1      36.428  17.578 123.317 -0.25 -0.00    +0.000 C 
DOCKED: BRANCH   4   8
DOCKED: ATOM      5  C   UNL     1      36.914  13.418 122.239 -0.43 -0.00    +0.000 A 
DOCKED: ATOM      6  C   UNL     1      37.372  14.439 121.381 -0.31 -0.00    +0.000 A 
DOCKED: ATOM      7  C   UNL     1      37.202  15.783 121.727 -0.22 -0.00    +0.000 A 
DOCKED: ATOM      8  C   UNL     1      36.572  16.132 122.930 -0.29 -0.00    +0.000 A 
DOCKED: ATOM      9  C   UNL     1      36.146  15.119 123.802 -0.42 -0.00    +0.000 A 
DOCKED: ATOM     10  C   UNL     1      36.316  13.776 123.458 -0.51 -0.00    +0.000 A 
DOCKED: ATOM     11  CM  UNL     1      36.754  14.778 122.590 +0.00 -0.00    +0.000 AC
DOCKED: BRANCH   5  12
DOCKED: ATOM     12  C   UNL     1      36.646  10.988 122.725 -0.67 -0.00    +0.000 C 
DOCKED: ATOM     13  C   UNL     1      37.079  11.976 121.927 -0.57 -0.00    +0.000 C 
DOCKED: BRANCH  11  14
DOCKED: ATOM     14  O   UNL     1      36.948   9.217 121.204 -2.70 -0.00    +0.000 OA
DOCKED: ATOM     15  C   UNL     1      36.814   9.555 122.410 -0.68 -0.00    +0.000 C 
DOCKED: ATOM     16  N   UNL     1      36.804   8.540 123.422 -0.66 -0.00    +0.000 N 
DOCKED: ATOM     17  O   UNL     1      37.067   7.254 123.096 -2.23 -0.00    +0.000 OA
DOCKED: ATOM     18  H   UNL     1      36.606   8.781 124.356 -0.38 -0.00    +0.000 HD
DOCKED: ENDBRANCH  11  14
DOCKED: ENDBRANCH   5  12
DOCKED: ENDBRANCH   4   8
DOCKED: ENDBRANCH   1   4
DOCKED: BRANCH   1  18
DOCKED: ATOM     19  C   UNL     1      37.601  19.315 124.568 -0.14 -0.00    +0.000 C 
DOCKED: BRANCH  18  19
DOCKED: ATOM     20  C   UNL     1      39.026  19.688 124.126 -0.09 -0.00    +0.000 C 
DOCKED: BRANCH  19  20
DOCKED: ATOM     21  C   UNL     1      39.363  19.016 122.826 -0.07 -0.00    +0.000 A 
DOCKED: ATOM     22  C   UNL     1      38.884  19.339 121.555 -0.04 -0.00    +0.000 A 
DOCKED: ATOM     23  N   UNL     1      39.356  18.469 120.631 -0.04 -0.00    +0.000 N 
DOCKED: ATOM     24  C   UNL     1      40.111  17.587 121.308 -0.09 -0.00    +0.000 A 
DOCKED: ATOM     25  C   UNL     1      40.134  17.883 122.648 -0.14 -0.00    +0.000 A 
DOCKED: ATOM     26  C   UNL     1      40.835  17.093 123.561 -0.28 -0.00    +0.000 A 
DOCKED: ATOM     27  C   UNL     1      41.533  15.978 123.065 -0.39 -0.00    +0.000 A 
DOCKED: ATOM     28  C   UNL     1      41.513  15.677 121.685 -0.33 -0.00    +0.000 A 
DOCKED: ATOM     29  C   UNL     1      40.793  16.486 120.789 -0.16 -0.00    +0.000 A 
DOCKED: ATOM     30  C   UNL     1      37.985  20.488 121.227 -0.07 -0.00    +0.000 C 
DOCKED: ATOM     31  H   UNL     1      39.181  18.480 119.662 +0.00 -0.00    +0.000 HD
DOCKED: ATOM     32  CM  UNL     1      39.563  18.459 121.756 +0.00 -0.00    +0.000 AC
DOCKED: ATOM     33  CM  UNL     1      40.820  16.784 122.177 +0.00 -0.00    +0.000 AC
DOCKED: ENDBRANCH  19  20
DOCKED: ENDBRANCH  18  19
DOCKED: ENDBRANCH   1  18
DOCKED: TORSDOF 7DOCKED: TER
DOCKED: ENDMDL
________________________________________________________________________________


	BEGINNING GENETIC ALGORITHM DOCKING 57 of 100
Run: 57 Seed: 809304060 725599129 [ Run 57 of 100 GA/GALS ]
Beginning LAMARCKIAN GENETIC ALGORITHM (LGA), with a maximum of 2500000 energy evaluations.

Final-Value: -15.554


	FINAL GENETIC ALGORITHM DOCKED STATE
	_______________________________________________


Detailed state:  trans 36.257 17.768 121.456 quatxyzw -0.408069 0.192623 0.856554 0.250383 center 0.576 -0.005 0.140 ntor 7 147.0315 -153.3212 -6.1752 -106.1705 -44.8758 -63.1148 -164.5735
State:	 36.257  17.768 121.456  -0.421  0.199  0.885 151.000    147.03 -153.32   -6.18 -106.17  -44.88  -63.11 -164.57

DOCKED: MODEL       57
DOCKED: USER    Run = 57
DOCKED: USER    DPF = ligand_dock.biased.dpf
DOCKED: USER  
DOCKED: USER    Estimated Free Energy of Binding    =  -11.79 kcal/mol  [=(1)+(2)+(3)-(4)]
DOCKED: USER    Estimated Inhibition Constant, Ki   =    2.30 nM (nanomolar)  [Temperature = 298.15 K]
DOCKED: USER    
DOCKED: USER    (1) Final Intermolecular Energy     =  -13.87 kcal/mol
DOCKED: USER        vdW + Hbond + desolv Energy     =  -13.87 kcal/mol
DOCKED: USER        Electrostatic Energy            =   +0.00 kcal/mol
DOCKED: USER    (2) Final Total Internal Energy     =   -1.68 kcal/mol
DOCKED: USER    (3) Torsional Free Energy           =   +2.09 kcal/mol
DOCKED: USER    (4) Unbound System's Energy  [=(2)] =   -1.68 kcal/mol
DOCKED: USER    
DOCKED: USER    
DOCKED: USER    NEWDPF move ligand.dum.pdbqt
DOCKED: USER    NEWDPF about 0.576000 -0.005000 0.140000
DOCKED: USER    NEWDPF tran0 36.256577 17.768165 121.456313
DOCKED: USER    NEWDPF quaternion0 -0.408069 0.192623 0.856554 0.250383
DOCKED: USER    NEWDPF axisangle0 -0.421495 0.198961 0.884735 150.999684
DOCKED: USER    NEWDPF quat0 -0.421495 0.198961 0.884735 150.999684
DOCKED: USER    NEWDPF dihe0 147.03 -153.32 -6.18 -106.17 -44.88 -63.11 -164.57 
DOCKED: USER  keepresnum = 1 
DOCKED: USER  
DOCKED: REMARK  Name = 
DOCKED: REMARK  8 active torsions:
DOCKED: REMARK  status: ('A' for Active; 'I' for Inactive)
DOCKED: REMARK    1  A    between atoms: C_2  and  C_3
DOCKED: REMARK    2  A    between atoms: C_4  and  C_5
DOCKED: REMARK    3  A    between atoms: C_8  and  C_9
DOCKED: REMARK    4  A    between atoms: C_9  and  N_10
DOCKED: REMARK    5  A    between atoms: N_10  and  C_11
DOCKED: REMARK    6  A    between atoms: C_11  and  C_12
DOCKED: REMARK    7  A    between atoms: C_12  and  C_13
DOCKED: REMARK    8  A    between atoms: C_14  and  C_22
DOCKED: REMARK                            x       y       z     vdW  Elec       q    Type
DOCKED: REMARK                         _______ _______ _______ _____ _____    ______ ____
DOCKED: USER                              x       y       z     vdW  Elec       q    Type
DOCKED: USER                           _______ _______ _______ _____ _____    ______ ____
DOCKED: ROOT
DOCKED: ATOM      1  N   UNL     1      36.430  18.125 122.130 -0.16 -0.00    +0.000 N 
DOCKED: ATOM      2  H   UNL     1      35.910  17.360 122.558 +0.00 -0.00    +0.000 HD
DOCKED: ATOM      3  H   UNL     1      35.818  18.905 121.890 -0.01 -0.00    +0.000 HD
DOCKED: ENDROOT
DOCKED: BRANCH   1   4
DOCKED: ATOM      4  C   UNL     1      37.044  17.641 120.887 -0.14 -0.00    +0.000 C 
DOCKED: BRANCH   4   8
DOCKED: ATOM      5  C   UNL     1      37.149  13.317 120.903 -0.39 -0.00    +0.000 A 
DOCKED: ATOM      6  C   UNL     1      37.403  14.035 119.717 -0.32 -0.00    +0.000 A 
DOCKED: ATOM      7  C   UNL     1      37.357  15.433 119.713 -0.20 -0.00    +0.000 A 
DOCKED: ATOM      8  C   UNL     1      37.054  16.137 120.887 -0.17 -0.00    +0.000 A 
DOCKED: ATOM      9  C   UNL     1      36.833  15.427 122.076 -0.26 -0.00    +0.000 A 
DOCKED: ATOM     10  C   UNL     1      36.880  14.031 122.083 -0.33 -0.00    +0.000 A 
DOCKED: ATOM     11  CM  UNL     1      37.113  14.730 120.897 +0.00 -0.00    +0.000 AC
DOCKED: BRANCH   5  12
DOCKED: ATOM     12  C   UNL     1      36.885  11.127 122.064 -0.59 -0.00    +0.000 C 
DOCKED: ATOM     13  C   UNL     1      37.197  11.835 120.967 -0.52 -0.00    +0.000 C 
DOCKED: BRANCH  11  14
DOCKED: ATOM     14  O   UNL     1      36.982   9.009 121.039 -2.69 -0.00    +0.000 OA
DOCKED: ATOM     15  C   UNL     1      36.936   9.652 122.122 -0.63 -0.00    +0.000 C 
DOCKED: ATOM     16  N   UNL     1      36.909   8.931 123.360 -0.61 -0.00    +0.000 N 
DOCKED: ATOM     17  O   UNL     1      37.064   7.587 123.366 -2.57 -0.00    +0.000 OA
DOCKED: ATOM     18  H   UNL     1      36.777   9.415 124.207 -0.51 -0.00    +0.000 HD
DOCKED: ENDBRANCH  11  14
DOCKED: ENDBRANCH   5  12
DOCKED: ENDBRANCH   4   8
DOCKED: ENDBRANCH   1   4
DOCKED: BRANCH   1  18
DOCKED: ATOM     19  C   UNL     1      37.427  18.617 123.092 -0.14 -0.00    +0.000 C 
DOCKED: BRANCH  18  19
DOCKED: ATOM     20  C   UNL     1      37.901  17.521 124.061 -0.21 -0.00    +0.000 C 
DOCKED: BRANCH  19  20
DOCKED: ATOM     21  C   UNL     1      39.401  17.493 124.125 -0.20 -0.00    +0.000 A 
DOCKED: ATOM     22  C   UNL     1      40.231  18.285 124.920 -0.26 -0.00    +0.000 A 
DOCKED: ATOM     23  N   UNL     1      41.534  18.025 124.660 -0.31 -0.00    +0.000 N 
DOCKED: ATOM     24  C   UNL     1      41.537  17.091 123.693 -0.31 -0.00    +0.000 A 
DOCKED: ATOM     25  C   UNL     1      40.256  16.747 123.336 -0.22 -0.00    +0.000 A 
DOCKED: ATOM     26  C   UNL     1      40.002  15.811 122.332 -0.31 -0.00    +0.000 A 
DOCKED: ATOM     27  C   UNL     1      41.105  15.216 121.694 -0.31 -0.00    +0.000 A 
DOCKED: ATOM     28  C   UNL     1      42.422  15.567 122.065 -0.38 -0.00    +0.000 A 
DOCKED: ATOM     29  C   UNL     1      42.648  16.519 123.076 -0.40 -0.00    +0.000 A 
DOCKED: ATOM     30  C   UNL     1      39.773  19.281 125.937 -0.19 -0.00    +0.000 C 
DOCKED: ATOM     31  H   UNL     1      42.319  18.436 125.090 -0.53 -0.00    +0.000 HD
DOCKED: ATOM     32  CM  UNL     1      40.622  17.544 124.163 +0.00 -0.00    +0.000 AC
DOCKED: ATOM     33  CM  UNL     1      41.328  16.158 122.699 +0.00 -0.00    +0.000 AC
DOCKED: ENDBRANCH  19  20
DOCKED: ENDBRANCH  18  19
DOCKED: ENDBRANCH   1  18
DOCKED: TORSDOF 7DOCKED: TER
DOCKED: ENDMDL
________________________________________________________________________________


	BEGINNING GENETIC ALGORITHM DOCKING 58 of 100
Run: 58 Seed: 2091497109 1034415553 [ Run 58 of 100 GA/GALS ]
Beginning LAMARCKIAN GENETIC ALGORITHM (LGA), with a maximum of 2500000 energy evaluations.

Final-Value: -15.962


	FINAL GENETIC ALGORITHM DOCKED STATE
	_______________________________________________


Detailed state:  trans 37.194 17.699 124.148 quatxyzw 0.456244 -0.332498 0.682645 0.463986 center 0.576 -0.005 0.140 ntor 7 -25.6056 -57.9097 161.5017 74.3434 -166.3546 -31.3072 128.7591
State:	 37.194  17.699 124.148   0.515 -0.375  0.771 124.711    -25.61  -57.91  161.50   74.34 -166.35  -31.31  128.76

DOCKED: MODEL       58
DOCKED: USER    Run = 58
DOCKED: USER    DPF = ligand_dock.biased.dpf
DOCKED: USER  
DOCKED: USER    Estimated Free Energy of Binding    =  -12.08 kcal/mol  [=(1)+(2)+(3)-(4)]
DOCKED: USER    Estimated Inhibition Constant, Ki   =    1.40 nM (nanomolar)  [Temperature = 298.15 K]
DOCKED: USER    
DOCKED: USER    (1) Final Intermolecular Energy     =  -14.17 kcal/mol
DOCKED: USER        vdW + Hbond + desolv Energy     =  -14.17 kcal/mol
DOCKED: USER        Electrostatic Energy            =   +0.00 kcal/mol
DOCKED: USER    (2) Final Total Internal Energy     =   -1.80 kcal/mol
DOCKED: USER    (3) Torsional Free Energy           =   +2.09 kcal/mol
DOCKED: USER    (4) Unbound System's Energy  [=(2)] =   -1.80 kcal/mol
DOCKED: USER    
DOCKED: USER    
DOCKED: USER    NEWDPF move ligand.dum.pdbqt
DOCKED: USER    NEWDPF about 0.576000 -0.005000 0.140000
DOCKED: USER    NEWDPF tran0 37.194438 17.698754 124.148384
DOCKED: USER    NEWDPF quaternion0 0.456244 -0.332498 0.682645 0.463986
DOCKED: USER    NEWDPF axisangle0 0.515039 -0.375346 0.770616 124.710748
DOCKED: USER    NEWDPF quat0 0.515039 -0.375346 0.770616 124.710748
DOCKED: USER    NEWDPF dihe0 -25.61 -57.91 161.50 74.34 -166.35 -31.31 128.76 
DOCKED: USER  keepresnum = 1 
DOCKED: USER  
DOCKED: REMARK  Name = 
DOCKED: REMARK  8 active torsions:
DOCKED: REMARK  status: ('A' for Active; 'I' for Inactive)
DOCKED: REMARK    1  A    between atoms: C_2  and  C_3
DOCKED: REMARK    2  A    between atoms: C_4  and  C_5
DOCKED: REMARK    3  A    between atoms: C_8  and  C_9
DOCKED: REMARK    4  A    between atoms: C_9  and  N_10
DOCKED: REMARK    5  A    between atoms: N_10  and  C_11
DOCKED: REMARK    6  A    between atoms: C_11  and  C_12
DOCKED: REMARK    7  A    between atoms: C_12  and  C_13
DOCKED: REMARK    8  A    between atoms: C_14  and  C_22
DOCKED: REMARK                            x       y       z     vdW  Elec       q    Type
DOCKED: REMARK                         _______ _______ _______ _____ _____    ______ ____
DOCKED: USER                              x       y       z     vdW  Elec       q    Type
DOCKED: USER                           _______ _______ _______ _____ _____    ______ ____
DOCKED: ROOT
DOCKED: ATOM      1  N   UNL     1      37.628  18.311 123.930 -0.16 -0.00    +0.000 N 
DOCKED: ATOM      2  H   UNL     1      38.320  17.608 123.672 -0.01 -0.00    +0.000 HD
DOCKED: ATOM      3  H   UNL     1      37.734  18.600 124.903 -0.01 -0.00    +0.000 HD
DOCKED: ENDROOT
DOCKED: BRANCH   1   4
DOCKED: ATOM      4  C   UNL     1      36.287  17.733 123.780 -0.26 -0.00    +0.000 C 
DOCKED: BRANCH   4   8
DOCKED: ATOM      5  C   UNL     1      36.619  13.429 123.507 -0.52 -0.00    +0.000 A 
DOCKED: ATOM      6  C   UNL     1      37.761  14.245 123.380 -0.33 -0.00    +0.000 A 
DOCKED: ATOM      7  C   UNL     1      37.648  15.637 123.457 -0.28 -0.00    +0.000 A 
DOCKED: ATOM      8  C   UNL     1      36.398  16.238 123.658 -0.32 -0.00    +0.000 A 
DOCKED: ATOM      9  C   UNL     1      35.264  15.428 123.817 -0.48 -0.00    +0.000 A 
DOCKED: ATOM     10  C   UNL     1      35.375  14.038 123.742 -0.39 -0.00    +0.000 A 
DOCKED: ATOM     11  CM  UNL     1      36.510  14.836 123.594 +0.00 -0.00    +0.000 AC
DOCKED: BRANCH   5  12
DOCKED: ATOM     12  C   UNL     1      36.746  11.252 122.299 -0.63 -0.00    +0.000 C 
DOCKED: ATOM     13  C   UNL     1      36.683  11.947 123.445 -0.69 -0.00    +0.000 C 
DOCKED: BRANCH  11  14
DOCKED: ATOM     14  O   UNL     1      36.692   9.213 121.124 -2.62 -0.00    +0.000 OA
DOCKED: ATOM     15  C   UNL     1      36.807   9.778 122.244 -0.66 -0.00    +0.000 C 
DOCKED: ATOM     16  N   UNL     1      36.965   8.972 123.419 -0.59 -0.00    +0.000 N 
DOCKED: ATOM     17  O   UNL     1      37.121   7.632 123.307 -2.55 -0.00    +0.000 OA
DOCKED: ATOM     18  H   UNL     1      36.959   9.394 124.308 -0.49 -0.00    +0.000 HD
DOCKED: ENDBRANCH  11  14
DOCKED: ENDBRANCH   5  12
DOCKED: ENDBRANCH   4   8
DOCKED: ENDBRANCH   1   4
DOCKED: BRANCH   1  18
DOCKED: ATOM     19  C   UNL     1      37.823  19.499 123.085 -0.10 -0.00    +0.000 C 
DOCKED: BRANCH  18  19
DOCKED: ATOM     20  C   UNL     1      39.308  19.792 122.814 -0.05 -0.00    +0.000 C 
DOCKED: BRANCH  19  20
DOCKED: ATOM     21  C   UNL     1      40.162  18.656 123.297 -0.13 -0.00    +0.000 A 
DOCKED: ATOM     22  C   UNL     1      41.008  18.644 124.408 -0.23 -0.00    +0.000 A 
DOCKED: ATOM     23  N   UNL     1      41.671  17.466 124.492 -0.34 -0.00    +0.000 N 
DOCKED: ATOM     24  C   UNL     1      41.269  16.742 123.433 -0.32 -0.00    +0.000 A 
DOCKED: ATOM     25  C   UNL     1      40.356  17.436 122.678 -0.18 -0.00    +0.000 A 
DOCKED: ATOM     26  C   UNL     1      39.811  16.898 121.512 -0.14 -0.00    +0.000 A 
DOCKED: ATOM     27  C   UNL     1      40.219  15.607 121.130 -0.24 -0.00    +0.000 A 
DOCKED: ATOM     28  C   UNL     1      41.155  14.892 121.910 -0.32 -0.00    +0.000 A 
DOCKED: ATOM     29  C   UNL     1      41.693  15.462 123.078 -0.40 +0.00    +0.000 A 
DOCKED: ATOM     30  C   UNL     1      41.169  19.757 125.394 -0.18 -0.00    +0.000 C 
DOCKED: ATOM     31  H   UNL     1      42.315  17.197 125.186 -0.56 -0.00    +0.000 HD
DOCKED: ATOM     32  CM  UNL     1      40.918  17.778 123.689 +0.00 -0.00    +0.000 AC
DOCKED: ATOM     33  CM  UNL     1      40.750  16.173 122.290 +0.00 -0.00    +0.000 AC
DOCKED: ENDBRANCH  19  20
DOCKED: ENDBRANCH  18  19
DOCKED: ENDBRANCH   1  18
DOCKED: TORSDOF 7DOCKED: TER
DOCKED: ENDMDL
________________________________________________________________________________


	BEGINNING GENETIC ALGORITHM DOCKING 59 of 100
Run: 59 Seed: 1784259752 1674473052 [ Run 59 of 100 GA/GALS ]
Beginning LAMARCKIAN GENETIC ALGORITHM (LGA), with a maximum of 2500000 energy evaluations.

Final-Value: -15.316


	FINAL GENETIC ALGORITHM DOCKED STATE
	_______________________________________________


Detailed state:  trans 37.978 18.007 122.292 quatxyzw 0.079309 -0.743108 -0.212781 0.629464 center 0.576 -0.005 0.140 ntor 7 -31.6933 -180.0000 -3.1784 -175.5925 -159.6991 116.8030 74.1269
State:	 37.978  18.007 122.292   0.102 -0.956 -0.274 101.979    -31.69 -180.00   -3.18 -175.59 -159.70  116.80   74.13

DOCKED: MODEL       59
DOCKED: USER    Run = 59
DOCKED: USER    DPF = ligand_dock.biased.dpf
DOCKED: USER  
DOCKED: USER    Estimated Free Energy of Binding    =  -11.39 kcal/mol  [=(1)+(2)+(3)-(4)]
DOCKED: USER    Estimated Inhibition Constant, Ki   =    4.48 nM (nanomolar)  [Temperature = 298.15 K]
DOCKED: USER    
DOCKED: USER    (1) Final Intermolecular Energy     =  -13.48 kcal/mol
DOCKED: USER        vdW + Hbond + desolv Energy     =  -13.48 kcal/mol
DOCKED: USER        Electrostatic Energy            =   +0.00 kcal/mol
DOCKED: USER    (2) Final Total Internal Energy     =   -1.84 kcal/mol
DOCKED: USER    (3) Torsional Free Energy           =   +2.09 kcal/mol
DOCKED: USER    (4) Unbound System's Energy  [=(2)] =   -1.84 kcal/mol
DOCKED: USER    
DOCKED: USER    
DOCKED: USER    NEWDPF move ligand.dum.pdbqt
DOCKED: USER    NEWDPF about 0.576000 -0.005000 0.140000
DOCKED: USER    NEWDPF tran0 37.977931 18.006765 122.292442
DOCKED: USER    NEWDPF quaternion0 0.079309 -0.743108 -0.212781 0.629464
DOCKED: USER    NEWDPF axisangle0 0.102067 -0.956344 -0.273840 101.978814
DOCKED: USER    NEWDPF quat0 0.102067 -0.956344 -0.273840 101.978814
DOCKED: USER    NEWDPF dihe0 -31.69 -180.00 -3.18 -175.59 -159.70 116.80 74.13 
DOCKED: USER  keepresnum = 1 
DOCKED: USER  
DOCKED: REMARK  Name = 
DOCKED: REMARK  8 active torsions:
DOCKED: REMARK  status: ('A' for Active; 'I' for Inactive)
DOCKED: REMARK    1  A    between atoms: C_2  and  C_3
DOCKED: REMARK    2  A    between atoms: C_4  and  C_5
DOCKED: REMARK    3  A    between atoms: C_8  and  C_9
DOCKED: REMARK    4  A    between atoms: C_9  and  N_10
DOCKED: REMARK    5  A    between atoms: N_10  and  C_11
DOCKED: REMARK    6  A    between atoms: C_11  and  C_12
DOCKED: REMARK    7  A    between atoms: C_12  and  C_13
DOCKED: REMARK    8  A    between atoms: C_14  and  C_22
DOCKED: REMARK                            x       y       z     vdW  Elec       q    Type
DOCKED: REMARK                         _______ _______ _______ _____ _____    ______ ____
DOCKED: USER                              x       y       z     vdW  Elec       q    Type
DOCKED: USER                           _______ _______ _______ _____ _____    ______ ____
DOCKED: ROOT
DOCKED: ATOM      1  N   UNL     1      38.345  18.136 122.970 -0.12 -0.00    +0.000 N 
DOCKED: ATOM      2  H   UNL     1      38.499  19.073 122.597 +0.00 -0.00    +0.000 HD
DOCKED: ATOM      3  H   UNL     1      39.096  17.499 122.701 +0.00 -0.00    +0.000 HD
DOCKED: ENDROOT
DOCKED: BRANCH   1   4
DOCKED: ATOM      4  C   UNL     1      37.091  17.608 122.418 -0.18 -0.00    +0.000 C 
DOCKED: BRANCH   4   8
DOCKED: ATOM      5  C   UNL     1      36.908  13.316 122.916 -0.51 -0.00    +0.000 A 
DOCKED: ATOM      6  C   UNL     1      36.267  14.172 123.834 -0.46 -0.00    +0.000 A 
DOCKED: ATOM      7  C   UNL     1      36.338  15.559 123.677 -0.37 -0.00    +0.000 A 
DOCKED: ATOM      8  C   UNL     1      37.051  16.117 122.606 -0.26 -0.00    +0.000 A 
DOCKED: ATOM      9  C   UNL     1      37.661  15.268 121.672 -0.26 -0.00    +0.000 A 
DOCKED: ATOM     10  C   UNL     1      37.590  13.882 121.826 -0.39 -0.00    +0.000 A 
DOCKED: ATOM     11  CM  UNL     1      36.969  14.719 122.755 +0.00 -0.00    +0.000 AC
DOCKED: BRANCH   5  12
DOCKED: ATOM     12  C   UNL     1      37.051  11.005 121.994 -0.54 -0.00    +0.000 C 
DOCKED: ATOM     13  C   UNL     1      36.854  11.837 123.028 -0.67 -0.00    +0.000 C 
DOCKED: BRANCH  11  14
DOCKED: ATOM     14  O   UNL     1      36.905   8.850 121.057 -2.66 -0.00    +0.000 OA
DOCKED: ATOM     15  C   UNL     1      36.994   9.534 122.111 -0.63 -0.00    +0.000 C 
DOCKED: ATOM     16  N   UNL     1      37.010   8.864 123.378 -0.62 -0.00    +0.000 N 
DOCKED: ATOM     17  O   UNL     1      37.062   7.512 123.430 -2.54 -0.00    +0.000 OA
DOCKED: ATOM     18  H   UNL     1      36.982   9.388 124.211 -0.56 -0.00    +0.000 HD
DOCKED: ENDBRANCH  11  14
DOCKED: ENDBRANCH   5  12
DOCKED: ENDBRANCH   4   8
DOCKED: ENDBRANCH   1   4
DOCKED: BRANCH   1  18
DOCKED: ATOM     19  C   UNL     1      38.324  18.210 124.438 -0.20 -0.00    +0.000 C 
DOCKED: BRANCH  18  19
DOCKED: ATOM     20  C   UNL     1      39.707  17.963 125.062 -0.24 -0.00    +0.000 C 
DOCKED: BRANCH  19  20
DOCKED: ATOM     21  C   UNL     1      40.781  18.096 124.021 -0.25 -0.00    +0.000 A 
DOCKED: ATOM     22  C   UNL     1      41.441  19.261 123.626 -0.13 -0.00    +0.000 A 
DOCKED: ATOM     23  N   UNL     1      42.300  19.004 122.611 -0.12 -0.00    +0.000 N 
DOCKED: ATOM     24  C   UNL     1      42.175  17.692 122.347 -0.21 -0.00    +0.000 A 
DOCKED: ATOM     25  C   UNL     1      41.255  17.106 123.180 -0.30 -0.00    +0.000 A 
DOCKED: ATOM     26  C   UNL     1      40.935  15.751 123.081 -0.31 -0.00    +0.000 A 
DOCKED: ATOM     27  C   UNL     1      41.595  14.990 122.099 -0.39 -0.00    +0.000 A 
DOCKED: ATOM     28  C   UNL     1      42.546  15.593 121.246 -0.26 -0.00    +0.000 A 
DOCKED: ATOM     29  C   UNL     1      42.844  16.963 121.365 -0.21 -0.00    +0.000 A 
DOCKED: ATOM     30  C   UNL     1      41.254  20.616 124.230 -0.09 -0.00    +0.000 C 
DOCKED: ATOM     31  H   UNL     1      42.894  19.647 122.160 -0.00 -0.00    +0.000 HD
DOCKED: ATOM     32  CM  UNL     1      41.613  18.257 123.139 +0.00 -0.00    +0.000 AC
DOCKED: ATOM     33  CM  UNL     1      41.892  16.349 122.220 +0.00 -0.00    +0.000 AC
DOCKED: ENDBRANCH  19  20
DOCKED: ENDBRANCH  18  19
DOCKED: ENDBRANCH   1  18
DOCKED: TORSDOF 7DOCKED: TER
DOCKED: ENDMDL
________________________________________________________________________________


	BEGINNING GENETIC ALGORITHM DOCKING 60 of 100
Run: 60 Seed: 661646912 1141316964 [ Run 60 of 100 GA/GALS ]
Beginning LAMARCKIAN GENETIC ALGORITHM (LGA), with a maximum of 2500000 energy evaluations.

Final-Value: -14.350


	FINAL GENETIC ALGORITHM DOCKED STATE
	_______________________________________________


Detailed state:  trans 35.313 17.254 122.238 quatxyzw -0.513496 0.753737 0.114933 0.393691 center 0.576 -0.005 0.140 ntor 7 26.5760 -53.4529 171.7168 162.9169 169.1432 33.0733 25.8576
State:	 35.313  17.254 122.238  -0.559  0.820  0.125 133.631     26.58  -53.45  171.72  162.92  169.14   33.07   25.86

DOCKED: MODEL       60
DOCKED: USER    Run = 60
DOCKED: USER    DPF = ligand_dock.biased.dpf
DOCKED: USER  
DOCKED: USER    Estimated Free Energy of Binding    =  -10.32 kcal/mol  [=(1)+(2)+(3)-(4)]
DOCKED: USER    Estimated Inhibition Constant, Ki   =   27.10 nM (nanomolar)  [Temperature = 298.15 K]
DOCKED: USER    
DOCKED: USER    (1) Final Intermolecular Energy     =  -12.41 kcal/mol
DOCKED: USER        vdW + Hbond + desolv Energy     =  -12.41 kcal/mol
DOCKED: USER        Electrostatic Energy            =   +0.00 kcal/mol
DOCKED: USER    (2) Final Total Internal Energy     =   -1.94 kcal/mol
DOCKED: USER    (3) Torsional Free Energy           =   +2.09 kcal/mol
DOCKED: USER    (4) Unbound System's Energy  [=(2)] =   -1.94 kcal/mol
DOCKED: USER    
DOCKED: USER    
DOCKED: USER    NEWDPF move ligand.dum.pdbqt
DOCKED: USER    NEWDPF about 0.576000 -0.005000 0.140000
DOCKED: USER    NEWDPF tran0 35.312513 17.254315 122.238206
DOCKED: USER    NEWDPF quaternion0 -0.513496 0.753737 0.114933 0.393691
DOCKED: USER    NEWDPF axisangle0 -0.558607 0.819954 0.125030 133.631331
DOCKED: USER    NEWDPF quat0 -0.558607 0.819954 0.125030 133.631331
DOCKED: USER    NEWDPF dihe0 26.58 -53.45 171.72 162.92 169.14 33.07 25.86 
DOCKED: USER  keepresnum = 1 
DOCKED: USER  
DOCKED: REMARK  Name = 
DOCKED: REMARK  8 active torsions:
DOCKED: REMARK  status: ('A' for Active; 'I' for Inactive)
DOCKED: REMARK    1  A    between atoms: C_2  and  C_3
DOCKED: REMARK    2  A    between atoms: C_4  and  C_5
DOCKED: REMARK    3  A    between atoms: C_8  and  C_9
DOCKED: REMARK    4  A    between atoms: C_9  and  N_10
DOCKED: REMARK    5  A    between atoms: N_10  and  C_11
DOCKED: REMARK    6  A    between atoms: C_11  and  C_12
DOCKED: REMARK    7  A    between atoms: C_12  and  C_13
DOCKED: REMARK    8  A    between atoms: C_14  and  C_22
DOCKED: REMARK                            x       y       z     vdW  Elec       q    Type
DOCKED: REMARK                         _______ _______ _______ _____ _____    ______ ____
DOCKED: USER                              x       y       z     vdW  Elec       q    Type
DOCKED: USER                           _______ _______ _______ _____ _____    ______ ____
DOCKED: ROOT
DOCKED: ATOM      1  N   UNL     1      35.127  17.851 121.768 -0.29 -0.00    +0.000 N 
DOCKED: ATOM      2  H   UNL     1      34.165  17.623 122.017 -0.03 -0.00    +0.000 HD
DOCKED: ATOM      3  H   UNL     1      35.437  17.322 120.952 -0.01 -0.00    +0.000 HD
DOCKED: ENDROOT
DOCKED: BRANCH   1   4
DOCKED: ATOM      4  C   UNL     1      36.003  17.494 122.891 -0.27 -0.00    +0.000 C 
DOCKED: BRANCH   4   8
DOCKED: ATOM      5  C   UNL     1      36.788  13.240 122.903 -0.51 -0.00    +0.000 A 
DOCKED: ATOM      6  C   UNL     1      37.431  14.085 121.976 -0.38 -0.00    +0.000 A 
DOCKED: ATOM      7  C   UNL     1      37.166  15.458 121.967 -0.26 -0.00    +0.000 A 
DOCKED: ATOM      8  C   UNL     1      36.255  16.012 122.878 -0.31 -0.00    +0.000 A 
DOCKED: ATOM      9  C   UNL     1      35.638  15.179 123.824 -0.46 -0.00    +0.000 A 
DOCKED: ATOM     10  C   UNL     1      35.903  13.808 123.835 -0.50 -0.00    +0.000 A 
DOCKED: ATOM     11  CM  UNL     1      36.530  14.631 122.898 +0.00 -0.00    +0.000 AC
DOCKED: BRANCH   5  12
DOCKED: ATOM     12  C   UNL     1      36.539  10.899 122.085 -0.63 -0.00    +0.000 C 
DOCKED: ATOM     13  C   UNL     1      37.041  11.779 122.965 -0.65 -0.00    +0.000 C 
DOCKED: BRANCH  11  14
DOCKED: ATOM     14  O   UNL     1      37.057   8.832 121.085 -2.68 -0.00    +0.000 OA
DOCKED: ATOM     15  C   UNL     1      36.792   9.446 122.153 -0.68 -0.00    +0.000 C 
DOCKED: ATOM     16  N   UNL     1      36.721   8.711 123.381 -0.63 -0.00    +0.000 N 
DOCKED: ATOM     17  O   UNL     1      37.064   7.402 123.409 -2.45 -0.00    +0.000 OA
DOCKED: ATOM     18  H   UNL     1      36.422   9.159 124.205 -0.39 -0.00    +0.000 HD
DOCKED: ENDBRANCH  11  14
DOCKED: ENDBRANCH   5  12
DOCKED: ENDBRANCH   4   8
DOCKED: ENDBRANCH   1   4
DOCKED: BRANCH   1  18
DOCKED: ATOM     19  C   UNL     1      35.203  19.280 121.432 +0.04 -0.00    +0.000 C 
DOCKED: BRANCH  18  19
DOCKED: ATOM     20  C   UNL     1      36.131  19.557 120.238 -0.14 -0.00    +0.000 C 
DOCKED: BRANCH  19  20
DOCKED: ATOM     21  C   UNL     1      36.997  18.362 119.960 -0.09 -0.00    +0.000 A 
DOCKED: ATOM     22  C   UNL     1      38.314  18.154 120.373 -0.05 -0.00    +0.000 A 
DOCKED: ATOM     23  N   UNL     1      38.794  16.990 119.875 -0.08 -0.00    +0.000 N 
DOCKED: ATOM     24  C   UNL     1      37.801  16.470 119.134 -0.11 -0.00    +0.000 A 
DOCKED: ATOM     25  C   UNL     1      36.692  17.280 119.155 -0.11 -0.00    +0.000 A 
DOCKED: ATOM     26  C   UNL     1      35.538  16.961 118.439 -0.13 -0.00    +0.000 A 
DOCKED: ATOM     27  C   UNL     1      35.536  15.769 117.693 -0.17 -0.00    +0.000 A 
DOCKED: ATOM     28  C   UNL     1      36.675  14.933 117.675 -0.24 -0.00    +0.000 A 
DOCKED: ATOM     29  C   UNL     1      37.827  15.283 118.402 -0.18 -0.00    +0.000 A 
DOCKED: ATOM     30  C   UNL     1      39.106  19.067 121.254 -0.04 -0.00    +0.000 C 
DOCKED: ATOM     31  H   UNL     1      39.688  16.604 120.024 +0.00 -0.00    +0.000 HD
DOCKED: ATOM     32  CM  UNL     1      37.754  17.436 119.705 +0.00 -0.00    +0.000 AC
DOCKED: ATOM     33  CM  UNL     1      36.677  16.116 118.416 +0.00 -0.00    +0.000 AC
DOCKED: ENDBRANCH  19  20
DOCKED: ENDBRANCH  18  19
DOCKED: ENDBRANCH   1  18
DOCKED: TORSDOF 7DOCKED: TER
DOCKED: ENDMDL
________________________________________________________________________________


	BEGINNING GENETIC ALGORITHM DOCKING 61 of 100
Run: 61 Seed: 998510677 1887589466 [ Run 61 of 100 GA/GALS ]
Beginning LAMARCKIAN GENETIC ALGORITHM (LGA), with a maximum of 2500000 energy evaluations.

Final-Value: -14.265


	FINAL GENETIC ALGORITHM DOCKED STATE
	_______________________________________________


Detailed state:  trans 38.928 17.822 122.480 quatxyzw 0.547074 -0.012044 0.817956 0.177520 center 0.576 -0.005 0.140 ntor 7 157.7149 21.2597 9.4284 180.0000 136.5106 -86.6717 177.6166
State:	 38.928  17.822 122.480   0.556 -0.012  0.831 159.549    157.71   21.26    9.43  180.00  136.51  -86.67  177.62

DOCKED: MODEL       61
DOCKED: USER    Run = 61
DOCKED: USER    DPF = ligand_dock.biased.dpf
DOCKED: USER  
DOCKED: USER    Estimated Free Energy of Binding    =  -10.47 kcal/mol  [=(1)+(2)+(3)-(4)]
DOCKED: USER    Estimated Inhibition Constant, Ki   =   21.16 nM (nanomolar)  [Temperature = 298.15 K]
DOCKED: USER    
DOCKED: USER    (1) Final Intermolecular Energy     =  -12.56 kcal/mol
DOCKED: USER        vdW + Hbond + desolv Energy     =  -12.56 kcal/mol
DOCKED: USER        Electrostatic Energy            =   +0.00 kcal/mol
DOCKED: USER    (2) Final Total Internal Energy     =   -1.71 kcal/mol
DOCKED: USER    (3) Torsional Free Energy           =   +2.09 kcal/mol
DOCKED: USER    (4) Unbound System's Energy  [=(2)] =   -1.71 kcal/mol
DOCKED: USER    
DOCKED: USER    
DOCKED: USER    NEWDPF move ligand.dum.pdbqt
DOCKED: USER    NEWDPF about 0.576000 -0.005000 0.140000
DOCKED: USER    NEWDPF tran0 38.927551 17.822283 122.479675
DOCKED: USER    NEWDPF quaternion0 0.547074 -0.012044 0.817956 0.177520
DOCKED: USER    NEWDPF axisangle0 0.555903 -0.012238 0.831157 159.549327
DOCKED: USER    NEWDPF quat0 0.555903 -0.012238 0.831157 159.549327
DOCKED: USER    NEWDPF dihe0 157.71 21.26 9.43 180.00 136.51 -86.67 177.62 
DOCKED: USER  keepresnum = 1 
DOCKED: USER  
DOCKED: REMARK  Name = 
DOCKED: REMARK  8 active torsions:
DOCKED: REMARK  status: ('A' for Active; 'I' for Inactive)
DOCKED: REMARK    1  A    between atoms: C_2  and  C_3
DOCKED: REMARK    2  A    between atoms: C_4  and  C_5
DOCKED: REMARK    3  A    between atoms: C_8  and  C_9
DOCKED: REMARK    4  A    between atoms: C_9  and  N_10
DOCKED: REMARK    5  A    between atoms: N_10  and  C_11
DOCKED: REMARK    6  A    between atoms: C_11  and  C_12
DOCKED: REMARK    7  A    between atoms: C_12  and  C_13
DOCKED: REMARK    8  A    between atoms: C_14  and  C_22
DOCKED: REMARK                            x       y       z     vdW  Elec       q    Type
DOCKED: REMARK                         _______ _______ _______ _____ _____    ______ ____
DOCKED: USER                              x       y       z     vdW  Elec       q    Type
DOCKED: USER                           _______ _______ _______ _____ _____    ______ ____
DOCKED: ROOT
DOCKED: ATOM      1  N   UNL     1      39.476  17.978 121.945 -0.09 -0.00    +0.000 N 
DOCKED: ATOM      2  H   UNL     1      40.025  17.278 122.445 +0.00 -0.00    +0.000 HD
DOCKED: ATOM      3  H   UNL     1      39.613  18.910 122.336 +0.00 -0.00    +0.000 HD
DOCKED: ENDROOT
DOCKED: BRANCH   1   4
DOCKED: ATOM      4  C   UNL     1      38.053  17.643 122.076 -0.13 -0.00    +0.000 C 
DOCKED: BRANCH   4   8
DOCKED: ATOM      5  C   UNL     1      37.462  13.374 121.707 -0.42 -0.00    +0.000 A 
DOCKED: ATOM      6  C   UNL     1      37.638  13.966 122.974 -0.45 -0.00    +0.000 A 
DOCKED: ATOM      7  C   UNL     1      37.841  15.345 123.089 -0.33 -0.00    +0.000 A 
DOCKED: ATOM      8  C   UNL     1      37.874  16.156 121.945 -0.20 -0.00    +0.000 A 
DOCKED: ATOM      9  C   UNL     1      37.666  15.575 120.685 -0.20 -0.00    +0.000 A 
DOCKED: ATOM     10  C   UNL     1      37.462  14.198 120.569 -0.32 -0.00    +0.000 A 
DOCKED: ATOM     11  CM  UNL     1      37.657  14.769 121.828 +0.00 -0.00    +0.000 AC
DOCKED: BRANCH   5  12
DOCKED: ATOM     12  C   UNL     1      37.199  11.040 122.542 -0.41 -0.00    +0.000 C 
DOCKED: ATOM     13  C   UNL     1      37.231  11.919 121.528 -0.52 -0.00    +0.000 C 
DOCKED: BRANCH  11  14
DOCKED: ATOM     14  O   UNL     1      36.691   9.171 121.205 -2.63 -0.00    +0.000 OA
DOCKED: ATOM     15  C   UNL     1      36.971   9.593 122.358 -0.63 -0.00    +0.000 C 
DOCKED: ATOM     16  N   UNL     1      37.031   8.662 123.447 -0.65 -0.00    +0.000 N 
DOCKED: ATOM     17  O   UNL     1      36.919   7.334 123.210 -2.28 -0.00    +0.000 OA
DOCKED: ATOM     18  H   UNL     1      37.153   8.990 124.367 -0.54 -0.00    +0.000 HD
DOCKED: ENDBRANCH  11  14
DOCKED: ENDBRANCH   5  12
DOCKED: ENDBRANCH   4   8
DOCKED: ENDBRANCH   1   4
DOCKED: BRANCH   1  18
DOCKED: ATOM     19  C   UNL     1      39.917  18.010 120.543 -0.06 -0.00    +0.000 C 
DOCKED: BRANCH  18  19
DOCKED: ATOM     20  C   UNL     1      40.841  16.833 120.188 -0.14 -0.00    +0.000 C 
DOCKED: BRANCH  19  20
DOCKED: ATOM     21  C   UNL     1      41.915  16.680 121.226 -0.19 -0.00    +0.000 A 
DOCKED: ATOM     22  C   UNL     1      41.949  15.768 122.282 -0.41 -0.00    +0.000 A 
DOCKED: ATOM     23  N   UNL     1      43.043  15.971 123.054 -0.45 +0.00    +0.000 N 
DOCKED: ATOM     24  C   UNL     1      43.690  17.015 122.508 -0.32 -0.00    +0.000 A 
DOCKED: ATOM     25  C   UNL     1      43.030  17.479 121.397 -0.17 -0.00    +0.000 A 
DOCKED: ATOM     26  C   UNL     1      43.498  18.575 120.672 -0.06 -0.00    +0.000 A 
DOCKED: ATOM     27  C   UNL     1      44.682  19.195 121.108 -0.06 -0.00    +0.000 A 
DOCKED: ATOM     28  C   UNL     1      45.363  18.714 122.248 -0.16 -0.00    +0.000 A 
DOCKED: ATOM     29  C   UNL     1      44.865  17.611 122.964 -0.22 -0.00    +0.000 A 
DOCKED: ATOM     30  C   UNL     1      40.939  14.697 122.543 -0.47 -0.00    +0.000 C 
DOCKED: ATOM     31  H   UNL     1      43.309  15.458 123.852 -0.07 +0.00    +0.000 HD
DOCKED: ATOM     32  CM  UNL     1      42.735  16.562 122.125 +0.00 -0.00    +0.000 AC
DOCKED: ATOM     33  CM  UNL     1      44.188  18.098 121.816 +0.00 -0.00    +0.000 AC
DOCKED: ENDBRANCH  19  20
DOCKED: ENDBRANCH  18  19
DOCKED: ENDBRANCH   1  18
DOCKED: TORSDOF 7DOCKED: TER
DOCKED: ENDMDL
________________________________________________________________________________


	BEGINNING GENETIC ALGORITHM DOCKING 62 of 100
Run: 62 Seed: 2068265292 635931365 [ Run 62 of 100 GA/GALS ]
Beginning LAMARCKIAN GENETIC ALGORITHM (LGA), with a maximum of 2500000 energy evaluations.

Final-Value: -15.463


	FINAL GENETIC ALGORITHM DOCKED STATE
	_______________________________________________


Detailed state:  trans 37.612 17.580 123.529 quatxyzw -0.483106 0.422259 -0.645985 -0.413532 center 0.576 -0.005 0.140 ntor 7 -57.1270 -172.7835 178.3078 -127.7674 -168.7807 -22.0708 110.5362
State:	 37.612  17.580 123.529  -0.531  0.464 -0.709 -131.146    -57.13 -172.78  178.31 -127.77 -168.78  -22.07  110.54

DOCKED: MODEL       62
DOCKED: USER    Run = 62
DOCKED: USER    DPF = ligand_dock.biased.dpf
DOCKED: USER  
DOCKED: USER    Estimated Free Energy of Binding    =  -11.79 kcal/mol  [=(1)+(2)+(3)-(4)]
DOCKED: USER    Estimated Inhibition Constant, Ki   =    2.27 nM (nanomolar)  [Temperature = 298.15 K]
DOCKED: USER    
DOCKED: USER    (1) Final Intermolecular Energy     =  -13.88 kcal/mol
DOCKED: USER        vdW + Hbond + desolv Energy     =  -13.88 kcal/mol
DOCKED: USER        Electrostatic Energy            =   +0.00 kcal/mol
DOCKED: USER    (2) Final Total Internal Energy     =   -1.58 kcal/mol
DOCKED: USER    (3) Torsional Free Energy           =   +2.09 kcal/mol
DOCKED: USER    (4) Unbound System's Energy  [=(2)] =   -1.58 kcal/mol
DOCKED: USER    
DOCKED: USER    
DOCKED: USER    NEWDPF move ligand.dum.pdbqt
DOCKED: USER    NEWDPF about 0.576000 -0.005000 0.140000
DOCKED: USER    NEWDPF tran0 37.611660 17.580455 123.529038
DOCKED: USER    NEWDPF quaternion0 -0.483106 0.422259 -0.645985 -0.413532
DOCKED: USER    NEWDPF axisangle0 -0.530600 0.463772 -0.709492 -131.146181
DOCKED: USER    NEWDPF quat0 -0.530600 0.463772 -0.709492 -131.146181
DOCKED: USER    NEWDPF dihe0 -57.13 -172.78 178.31 -127.77 -168.78 -22.07 110.54 
DOCKED: USER  keepresnum = 1 
DOCKED: USER  
DOCKED: REMARK  Name = 
DOCKED: REMARK  8 active torsions:
DOCKED: REMARK  status: ('A' for Active; 'I' for Inactive)
DOCKED: REMARK    1  A    between atoms: C_2  and  C_3
DOCKED: REMARK    2  A    between atoms: C_4  and  C_5
DOCKED: REMARK    3  A    between atoms: C_8  and  C_9
DOCKED: REMARK    4  A    between atoms: C_9  and  N_10
DOCKED: REMARK    5  A    between atoms: N_10  and  C_11
DOCKED: REMARK    6  A    between atoms: C_11  and  C_12
DOCKED: REMARK    7  A    between atoms: C_12  and  C_13
DOCKED: REMARK    8  A    between atoms: C_14  and  C_22
DOCKED: REMARK                            x       y       z     vdW  Elec       q    Type
DOCKED: REMARK                         _______ _______ _______ _____ _____    ______ ____
DOCKED: USER                              x       y       z     vdW  Elec       q    Type
DOCKED: USER                           _______ _______ _______ _____ _____    ______ ____
DOCKED: ROOT
DOCKED: ATOM      1  N   UNL     1      38.060  18.167 123.274 -0.14 -0.00    +0.000 N 
DOCKED: ATOM      2  H   UNL     1      38.615  17.428 122.843 +0.00 -0.00    +0.000 HD
DOCKED: ATOM      3  H   UNL     1      38.372  18.362 124.226 -0.00 -0.00    +0.000 HD
DOCKED: ENDROOT
DOCKED: BRANCH   1   4
DOCKED: ATOM      4  C   UNL     1      36.661  17.728 123.342 -0.23 -0.00    +0.000 C 
DOCKED: BRANCH   4   8
DOCKED: ATOM      5  C   UNL     1      36.455  13.409 123.244 -0.52 -0.00    +0.000 A 
DOCKED: ATOM      6  C   UNL     1      35.532  14.153 124.006 -0.44 -0.00    +0.000 A 
DOCKED: ATOM      7  C   UNL     1      35.608  15.549 124.045 -0.43 -0.00    +0.000 A 
DOCKED: ATOM      8  C   UNL     1      36.607  16.226 123.329 -0.30 -0.00    +0.000 A 
DOCKED: ATOM      9  C   UNL     1      37.507  15.491 122.544 -0.30 -0.00    +0.000 A 
DOCKED: ATOM     10  C   UNL     1      37.431  14.097 122.503 -0.42 -0.00    +0.000 A 
DOCKED: ATOM     11  CM  UNL     1      36.524  14.821 123.278 +0.00 -0.00    +0.000 AC
DOCKED: BRANCH   5  12
DOCKED: ATOM     12  C   UNL     1      37.068  11.218 122.227 -0.56 -0.00    +0.000 C 
DOCKED: ATOM     13  C   UNL     1      36.413  11.928 123.158 -0.69 -0.00    +0.000 C 
DOCKED: BRANCH  11  14
DOCKED: ATOM     14  O   UNL     1      36.941   9.208 121.007 -2.69 -0.00    +0.000 OA
DOCKED: ATOM     15  C   UNL     1      37.020   9.744 122.145 -0.60 -0.00    +0.000 C 
DOCKED: ATOM     16  N   UNL     1      37.032   8.910 123.310 -0.63 -0.00    +0.000 N 
DOCKED: ATOM     17  O   UNL     1      37.092   7.564 123.180 -2.46 -0.00    +0.000 OA
DOCKED: ATOM     18  H   UNL     1      36.997   9.316 124.206 -0.57 -0.00    +0.000 HD
DOCKED: ENDBRANCH  11  14
DOCKED: ENDBRANCH   5  12
DOCKED: ENDBRANCH   4   8
DOCKED: ENDBRANCH   1   4
DOCKED: BRANCH   1  18
DOCKED: ATOM     19  C   UNL     1      38.222  19.399 122.488 -0.07 -0.00    +0.000 C 
DOCKED: BRANCH  18  19
DOCKED: ATOM     20  C   UNL     1      39.695  19.815 122.340 -0.04 -0.00    +0.000 C 
DOCKED: BRANCH  19  20
DOCKED: ATOM     21  C   UNL     1      40.597  18.754 122.901 -0.11 -0.00    +0.000 A 
DOCKED: ATOM     22  C   UNL     1      41.087  18.660 124.205 -0.22 -0.00    +0.000 A 
DOCKED: ATOM     23  N   UNL     1      41.928  17.605 124.325 -0.29 -0.00    +0.000 N 
DOCKED: ATOM     24  C   UNL     1      41.992  17.045 123.105 -0.34 -0.00    +0.000 A 
DOCKED: ATOM     25  C   UNL     1      41.200  17.720 122.209 -0.15 -0.00    +0.000 A 
DOCKED: ATOM     26  C   UNL     1      41.120  17.339 120.869 -0.10 -0.00    +0.000 A 
DOCKED: ATOM     27  C   UNL     1      41.874  16.225 120.457 -0.17 -0.00    +0.000 A 
DOCKED: ATOM     28  C   UNL     1      42.684  15.528 121.380 -0.25 -0.00    +0.000 A 
DOCKED: ATOM     29  C   UNL     1      42.750  15.939 122.723 -0.39 -0.00    +0.000 A 
DOCKED: ATOM     30  C   UNL     1      40.738  19.573 125.336 -0.18 -0.00    +0.000 C 
DOCKED: ATOM     31  H   UNL     1      42.398  17.310 125.139 -0.58 -0.00    +0.000 HD
DOCKED: ATOM     32  CM  UNL     1      41.379  17.946 123.381 +0.00 -0.00    +0.000 AC
DOCKED: ATOM     33  CM  UNL     1      41.937  16.632 121.790 +0.00 -0.00    +0.000 AC
DOCKED: ENDBRANCH  19  20
DOCKED: ENDBRANCH  18  19
DOCKED: ENDBRANCH   1  18
DOCKED: TORSDOF 7DOCKED: TER
DOCKED: ENDMDL
________________________________________________________________________________


	BEGINNING GENETIC ALGORITHM DOCKING 63 of 100
Run: 63 Seed: 258546312 258031864 [ Run 63 of 100 GA/GALS ]
Beginning LAMARCKIAN GENETIC ALGORITHM (LGA), with a maximum of 2500000 energy evaluations.

Final-Value: -15.284


	FINAL GENETIC ALGORITHM DOCKED STATE
	_______________________________________________


Detailed state:  trans 37.971 17.426 122.016 quatxyzw 0.640061 -0.751619 -0.088834 -0.132283 center 0.576 -0.005 0.140 ntor 7 -85.2134 29.7133 179.9976 156.8341 -158.4701 -8.2029 -167.6574
State:	 37.971  17.426 122.016   0.646 -0.758 -0.090 -164.797    -85.21   29.71  180.00  156.83 -158.47   -8.20 -167.66

DOCKED: MODEL       63
DOCKED: USER    Run = 63
DOCKED: USER    DPF = ligand_dock.biased.dpf
DOCKED: USER  
DOCKED: USER    Estimated Free Energy of Binding    =  -11.17 kcal/mol  [=(1)+(2)+(3)-(4)]
DOCKED: USER    Estimated Inhibition Constant, Ki   =    6.46 nM (nanomolar)  [Temperature = 298.15 K]
DOCKED: USER    
DOCKED: USER    (1) Final Intermolecular Energy     =  -13.26 kcal/mol
DOCKED: USER        vdW + Hbond + desolv Energy     =  -13.26 kcal/mol
DOCKED: USER        Electrostatic Energy            =   +0.00 kcal/mol
DOCKED: USER    (2) Final Total Internal Energy     =   -2.02 kcal/mol
DOCKED: USER    (3) Torsional Free Energy           =   +2.09 kcal/mol
DOCKED: USER    (4) Unbound System's Energy  [=(2)] =   -2.02 kcal/mol
DOCKED: USER    
DOCKED: USER    
DOCKED: USER    NEWDPF move ligand.dum.pdbqt
DOCKED: USER    NEWDPF about 0.576000 -0.005000 0.140000
DOCKED: USER    NEWDPF tran0 37.970798 17.426070 122.015724
DOCKED: USER    NEWDPF quaternion0 0.640061 -0.751619 -0.088834 -0.132283
DOCKED: USER    NEWDPF axisangle0 0.645736 -0.758283 -0.089622 -164.796887
DOCKED: USER    NEWDPF quat0 0.645736 -0.758283 -0.089622 -164.796887
DOCKED: USER    NEWDPF dihe0 -85.21 29.71 180.00 156.83 -158.47 -8.20 -167.66 
DOCKED: USER  keepresnum = 1 
DOCKED: USER  
DOCKED: REMARK  Name = 
DOCKED: REMARK  8 active torsions:
DOCKED: REMARK  status: ('A' for Active; 'I' for Inactive)
DOCKED: REMARK    1  A    between atoms: C_2  and  C_3
DOCKED: REMARK    2  A    between atoms: C_4  and  C_5
DOCKED: REMARK    3  A    between atoms: C_8  and  C_9
DOCKED: REMARK    4  A    between atoms: C_9  and  N_10
DOCKED: REMARK    5  A    between atoms: N_10  and  C_11
DOCKED: REMARK    6  A    between atoms: C_11  and  C_12
DOCKED: REMARK    7  A    between atoms: C_12  and  C_13
DOCKED: REMARK    8  A    between atoms: C_14  and  C_22
DOCKED: REMARK                            x       y       z     vdW  Elec       q    Type
DOCKED: REMARK                         _______ _______ _______ _____ _____    ______ ____
DOCKED: USER                              x       y       z     vdW  Elec       q    Type
DOCKED: USER                           _______ _______ _______ _____ _____    ______ ____
DOCKED: ROOT
DOCKED: ATOM      1  N   UNL     1      37.865  18.134 121.702 -0.08 -0.00    +0.000 N 
DOCKED: ATOM      2  H   UNL     1      36.960  17.764 121.411 +0.00 -0.00    +0.000 HD
DOCKED: ATOM      3  H   UNL     1      38.586  17.948 121.004 +0.00 -0.00    +0.000 HD
DOCKED: ENDROOT
DOCKED: BRANCH   1   4
DOCKED: ATOM      4  C   UNL     1      38.267  17.472 122.949 -0.19 -0.00    +0.000 C 
DOCKED: BRANCH   4   8
DOCKED: ATOM      5  C   UNL     1      37.158  13.292 122.864 -0.50 -0.00    +0.000 A 
DOCKED: ATOM      6  C   UNL     1      38.185  13.778 122.029 -0.40 -0.00    +0.000 A 
DOCKED: ATOM      7  C   UNL     1      38.533  15.132 122.051 -0.31 -0.00    +0.000 A 
DOCKED: ATOM      8  C   UNL     1      37.863  16.025 122.900 -0.27 -0.00    +0.000 A 
DOCKED: ATOM      9  C   UNL     1      36.864  15.538 123.756 -0.28 -0.00    +0.000 A 
DOCKED: ATOM     10  C   UNL     1      36.516  14.186 123.737 -0.43 -0.00    +0.000 A 
DOCKED: ATOM     11  CM  UNL     1      37.520  14.659 122.890 +0.00 -0.00    +0.000 AC
DOCKED: BRANCH   5  12
DOCKED: ATOM     12  C   UNL     1      37.414  10.894 122.234 -0.01 -0.00    +0.000 C 
DOCKED: ATOM     13  C   UNL     1      36.757  11.863 122.890 -0.66 -0.00    +0.000 C 
DOCKED: BRANCH  11  14
DOCKED: ATOM     14  O   UNL     1      36.557   8.957 121.207 -2.46 -0.00    +0.000 OA
DOCKED: ATOM     15  C   UNL     1      37.009   9.474 122.263 -0.63 -0.00    +0.000 C 
DOCKED: ATOM     16  N   UNL     1      37.085   8.678 123.452 -0.64 -0.00    +0.000 N 
DOCKED: ATOM     17  O   UNL     1      36.802   7.355 123.403 -2.29 -0.00    +0.000 OA
DOCKED: ATOM     18  H   UNL     1      37.345   9.094 124.306 -0.60 -0.00    +0.000 HD
DOCKED: ENDBRANCH  11  14
DOCKED: ENDBRANCH   5  12
DOCKED: ENDBRANCH   4   8
DOCKED: ENDBRANCH   1   4
DOCKED: BRANCH   1  18
DOCKED: ATOM     19  C   UNL     1      37.752  19.592 121.853 -0.09 -0.00    +0.000 C 
DOCKED: BRANCH  18  19
DOCKED: ATOM     20  C   UNL     1      36.316  20.043 122.167 -0.11 -0.00    +0.000 C 
DOCKED: BRANCH  19  20
DOCKED: ATOM     21  C   UNL     1      35.495  18.881 122.645 -0.18 -0.00    +0.000 A 
DOCKED: ATOM     22  C   UNL     1      34.741  17.999 121.869 -0.30 -0.00    +0.000 A 
DOCKED: ATOM     23  N   UNL     1      34.078  17.117 122.654 -0.41 -0.00    +0.000 N 
DOCKED: ATOM     24  C   UNL     1      34.390  17.445 123.920 -0.38 -0.00    +0.000 A 
DOCKED: ATOM     25  C   UNL     1      35.245  18.519 123.955 -0.25 -0.00    +0.000 A 
DOCKED: ATOM     26  C   UNL     1      35.692  19.059 125.162 -0.19 -0.00    +0.000 A 
DOCKED: ATOM     27  C   UNL     1      35.246  18.463 126.355 -0.19 -0.00    +0.000 A 
DOCKED: ATOM     28  C   UNL     1      34.370  17.355 126.317 -0.25 -0.00    +0.000 A 
DOCKED: ATOM     29  C   UNL     1      33.931  16.835 125.087 -0.33 -0.00    +0.000 A 
DOCKED: ATOM     30  C   UNL     1      34.666  17.997 120.375 -0.27 -0.00    +0.000 C 
DOCKED: ATOM     31  H   UNL     1      33.489  16.385 122.358 -0.04 -0.00    +0.000 HD
DOCKED: ATOM     32  CM  UNL     1      34.767  17.964 122.997 -0.03 -0.00    +0.000 AC
DOCKED: ATOM     33  CM  UNL     1      34.813  17.946 125.133 -0.46 -0.00    +0.000 AC
DOCKED: ENDBRANCH  19  20
DOCKED: ENDBRANCH  18  19
DOCKED: ENDBRANCH   1  18
DOCKED: TORSDOF 7DOCKED: TER
DOCKED: ENDMDL
________________________________________________________________________________


	BEGINNING GENETIC ALGORITHM DOCKING 64 of 100
Run: 64 Seed: 1109551184 266141476 [ Run 64 of 100 GA/GALS ]
Beginning LAMARCKIAN GENETIC ALGORITHM (LGA), with a maximum of 2500000 energy evaluations.

Final-Value: -15.093


	FINAL GENETIC ALGORITHM DOCKED STATE
	_______________________________________________


Detailed state:  trans 34.666 17.560 123.540 quatxyzw 0.484640 -0.134509 -0.853934 -0.133520 center 0.576 -0.005 0.140 ntor 7 30.5676 -63.2282 149.2065 -74.6092 48.1726 -86.7320 7.7628
State:	 34.666  17.560 123.540   0.489 -0.136 -0.862 -164.654     30.57  -63.23  149.21  -74.61   48.17  -86.73    7.76

DOCKED: MODEL       64
DOCKED: USER    Run = 64
DOCKED: USER    DPF = ligand_dock.biased.dpf
DOCKED: USER  
DOCKED: USER    Estimated Free Energy of Binding    =  -11.49 kcal/mol  [=(1)+(2)+(3)-(4)]
DOCKED: USER    Estimated Inhibition Constant, Ki   =    3.76 nM (nanomolar)  [Temperature = 298.15 K]
DOCKED: USER    
DOCKED: USER    (1) Final Intermolecular Energy     =  -13.58 kcal/mol
DOCKED: USER        vdW + Hbond + desolv Energy     =  -13.58 kcal/mol
DOCKED: USER        Electrostatic Energy            =   +0.00 kcal/mol
DOCKED: USER    (2) Final Total Internal Energy     =   -1.51 kcal/mol
DOCKED: USER    (3) Torsional Free Energy           =   +2.09 kcal/mol
DOCKED: USER    (4) Unbound System's Energy  [=(2)] =   -1.51 kcal/mol
DOCKED: USER    
DOCKED: USER    
DOCKED: USER    NEWDPF move ligand.dum.pdbqt
DOCKED: USER    NEWDPF about 0.576000 -0.005000 0.140000
DOCKED: USER    NEWDPF tran0 34.665528 17.559687 123.539602
DOCKED: USER    NEWDPF quaternion0 0.484640 -0.134509 -0.853934 -0.133520
DOCKED: USER    NEWDPF axisangle0 0.489018 -0.135724 -0.861650 -164.653907
DOCKED: USER    NEWDPF quat0 0.489018 -0.135724 -0.861650 -164.653907
DOCKED: USER    NEWDPF dihe0 30.57 -63.23 149.21 -74.61 48.17 -86.73 7.76 
DOCKED: USER  keepresnum = 1 
DOCKED: USER  
DOCKED: REMARK  Name = 
DOCKED: REMARK  8 active torsions:
DOCKED: REMARK  status: ('A' for Active; 'I' for Inactive)
DOCKED: REMARK    1  A    between atoms: C_2  and  C_3
DOCKED: REMARK    2  A    between atoms: C_4  and  C_5
DOCKED: REMARK    3  A    between atoms: C_8  and  C_9
DOCKED: REMARK    4  A    between atoms: C_9  and  N_10
DOCKED: REMARK    5  A    between atoms: N_10  and  C_11
DOCKED: REMARK    6  A    between atoms: C_11  and  C_12
DOCKED: REMARK    7  A    between atoms: C_12  and  C_13
DOCKED: REMARK    8  A    between atoms: C_14  and  C_22
DOCKED: REMARK                            x       y       z     vdW  Elec       q    Type
DOCKED: REMARK                         _______ _______ _______ _____ _____    ______ ____
DOCKED: USER                              x       y       z     vdW  Elec       q    Type
DOCKED: USER                           _______ _______ _______ _____ _____    ______ ____
DOCKED: ROOT
DOCKED: ATOM      1  N   UNL     1      34.764  17.732 124.296 -0.34 -0.00    +0.000 N 
DOCKED: ATOM      2  H   UNL     1      34.105  16.971 124.456 -0.02 -0.00    +0.000 HD
DOCKED: ATOM      3  H   UNL     1      34.282  18.623 124.169 -0.02 -0.00    +0.000 HD
DOCKED: ENDROOT
DOCKED: BRANCH   1   4
DOCKED: ATOM      4  C   UNL     1      35.517  17.453 123.067 -0.32 -0.00    +0.000 C 
DOCKED: BRANCH   4   8
DOCKED: ATOM      5  C   UNL     1      36.572  13.260 122.972 -0.51 -0.00    +0.000 A 
DOCKED: ATOM      6  C   UNL     1      37.256  14.189 122.163 -0.38 -0.00    +0.000 A 
DOCKED: ATOM      7  C   UNL     1      36.905  15.542 122.187 -0.27 -0.00    +0.000 A 
DOCKED: ATOM      8  C   UNL     1      35.865  15.992 123.014 -0.34 -0.00    +0.000 A 
DOCKED: ATOM      9  C   UNL     1      35.204  15.075 123.845 -0.50 -0.00    +0.000 A 
DOCKED: ATOM     10  C   UNL     1      35.555  13.723 123.823 -0.45 -0.00    +0.000 A 
DOCKED: ATOM     11  CM  UNL     1      36.226  14.630 123.001 +0.00 -0.00    +0.000 AC
DOCKED: BRANCH   5  12
DOCKED: ATOM     12  C   UNL     1      36.412  10.920 122.128 -0.63 -0.00    +0.000 C 
DOCKED: ATOM     13  C   UNL     1      36.911  11.815 122.994 -0.66 -0.00    +0.000 C 
DOCKED: BRANCH  11  14
DOCKED: ATOM     14  O   UNL     1      37.066   8.918 121.075 -2.71 -0.00    +0.000 OA
DOCKED: ATOM     15  C   UNL     1      36.752   9.483 122.156 -0.69 -0.00    +0.000 C 
DOCKED: ATOM     16  N   UNL     1      36.711   8.708 123.362 -0.63 -0.00    +0.000 N 
DOCKED: ATOM     17  O   UNL     1      37.132   7.422 123.356 -2.43 -0.00    +0.000 OA
DOCKED: ATOM     18  H   UNL     1      36.376   9.113 124.194 -0.37 -0.00    +0.000 HD
DOCKED: ENDBRANCH  11  14
DOCKED: ENDBRANCH   5  12
DOCKED: ENDBRANCH   4   8
DOCKED: ENDBRANCH   1   4
DOCKED: BRANCH   1  18
DOCKED: ATOM     19  C   UNL     1      35.637  17.857 125.472 -0.23 -0.00    +0.000 C 
DOCKED: BRANCH  18  19
DOCKED: ATOM     20  C   UNL     1      36.292  19.244 125.575 -0.18 -0.00    +0.000 C 
DOCKED: BRANCH  19  20
DOCKED: ATOM     21  C   UNL     1      37.744  19.112 125.934 -0.14 -0.00    +0.000 A 
DOCKED: ATOM     22  C   UNL     1      38.392  19.632 127.055 -0.12 -0.00    +0.000 A 
DOCKED: ATOM     23  N   UNL     1      39.719  19.369 127.007 -0.16 -0.00    +0.000 N 
DOCKED: ATOM     24  C   UNL     1      39.921  18.706 125.855 -0.24 -0.00    +0.000 A 
DOCKED: ATOM     25  C   UNL     1      38.743  18.537 125.170 -0.17 -0.00    +0.000 A 
DOCKED: ATOM     26  C   UNL     1      38.701  17.896 123.931 -0.19 -0.00    +0.000 A 
DOCKED: ATOM     27  C   UNL     1      39.911  17.415 123.400 -0.23 -0.00    +0.000 A 
DOCKED: ATOM     28  C   UNL     1      41.122  17.585 124.107 -0.30 -0.00    +0.000 A 
DOCKED: ATOM     29  C   UNL     1      41.135  18.240 125.351 -0.29 -0.00    +0.000 A 
DOCKED: ATOM     30  C   UNL     1      37.735  20.370 128.178 -0.07 -0.00    +0.000 C 
DOCKED: ATOM     31  H   UNL     1      40.397  19.614 127.678 +0.00 -0.00    +0.000 HD
DOCKED: ATOM     32  CM  UNL     1      38.930  19.081 126.230 +0.00 -0.00    +0.000 AC
DOCKED: ATOM     33  CM  UNL     1      39.922  18.063 124.635 +0.00 -0.00    +0.000 AC
DOCKED: ENDBRANCH  19  20
DOCKED: ENDBRANCH  18  19
DOCKED: ENDBRANCH   1  18
DOCKED: TORSDOF 7DOCKED: TER
DOCKED: ENDMDL
________________________________________________________________________________


	BEGINNING GENETIC ALGORITHM DOCKING 65 of 100
Run: 65 Seed: 1471140868 1097292857 [ Run 65 of 100 GA/GALS ]
Beginning LAMARCKIAN GENETIC ALGORITHM (LGA), with a maximum of 2500000 energy evaluations.

Final-Value: -14.975


	FINAL GENETIC ALGORITHM DOCKED STATE
	_______________________________________________


Detailed state:  trans 38.084 17.469 121.753 quatxyzw -0.716351 0.669567 0.181791 0.073982 center 0.576 -0.005 0.140 ntor 7 164.3370 -174.2092 -6.0564 128.2277 -89.3389 -17.5165 178.0202
State:	 38.084  17.469 121.753  -0.718  0.671  0.182 171.515    164.34 -174.21   -6.06  128.23  -89.34  -17.52  178.02

DOCKED: MODEL       65
DOCKED: USER    Run = 65
DOCKED: USER    DPF = ligand_dock.biased.dpf
DOCKED: USER  
DOCKED: USER    Estimated Free Energy of Binding    =  -10.92 kcal/mol  [=(1)+(2)+(3)-(4)]
DOCKED: USER    Estimated Inhibition Constant, Ki   =    9.92 nM (nanomolar)  [Temperature = 298.15 K]
DOCKED: USER    
DOCKED: USER    (1) Final Intermolecular Energy     =  -13.01 kcal/mol
DOCKED: USER        vdW + Hbond + desolv Energy     =  -13.01 kcal/mol
DOCKED: USER        Electrostatic Energy            =   +0.00 kcal/mol
DOCKED: USER    (2) Final Total Internal Energy     =   -1.97 kcal/mol
DOCKED: USER    (3) Torsional Free Energy           =   +2.09 kcal/mol
DOCKED: USER    (4) Unbound System's Energy  [=(2)] =   -1.97 kcal/mol
DOCKED: USER    
DOCKED: USER    
DOCKED: USER    NEWDPF move ligand.dum.pdbqt
DOCKED: USER    NEWDPF about 0.576000 -0.005000 0.140000
DOCKED: USER    NEWDPF tran0 38.083888 17.469215 121.752656
DOCKED: USER    NEWDPF quaternion0 -0.716351 0.669567 0.181791 0.073982
DOCKED: USER    NEWDPF axisangle0 -0.718319 0.671407 0.182291 171.514554
DOCKED: USER    NEWDPF quat0 -0.718319 0.671407 0.182291 171.514554
DOCKED: USER    NEWDPF dihe0 164.34 -174.21 -6.06 128.23 -89.34 -17.52 178.02 
DOCKED: USER  keepresnum = 1 
DOCKED: USER  
DOCKED: REMARK  Name = 
DOCKED: REMARK  8 active torsions:
DOCKED: REMARK  status: ('A' for Active; 'I' for Inactive)
DOCKED: REMARK    1  A    between atoms: C_2  and  C_3
DOCKED: REMARK    2  A    between atoms: C_4  and  C_5
DOCKED: REMARK    3  A    between atoms: C_8  and  C_9
DOCKED: REMARK    4  A    between atoms: C_9  and  N_10
DOCKED: REMARK    5  A    between atoms: N_10  and  C_11
DOCKED: REMARK    6  A    between atoms: C_11  and  C_12
DOCKED: REMARK    7  A    between atoms: C_12  and  C_13
DOCKED: REMARK    8  A    between atoms: C_14  and  C_22
DOCKED: REMARK                            x       y       z     vdW  Elec       q    Type
DOCKED: REMARK                         _______ _______ _______ _____ _____    ______ ____
DOCKED: USER                              x       y       z     vdW  Elec       q    Type
DOCKED: USER                           _______ _______ _______ _____ _____    ______ ____
DOCKED: ROOT
DOCKED: ATOM      1  N   UNL     1      37.835  18.199 121.627 -0.08 -0.00    +0.000 N 
DOCKED: ATOM      2  H   UNL     1      36.994  17.748 121.267 +0.00 -0.00    +0.000 HD
DOCKED: ATOM      3  H   UNL     1      38.533  18.326 120.894 +0.00 -0.00    +0.000 HD
DOCKED: ENDROOT
DOCKED: BRANCH   1   4
DOCKED: ATOM      4  C   UNL     1      38.425  17.342 122.663 -0.19 -0.00    +0.000 C 
DOCKED: BRANCH   4   8
DOCKED: ATOM      5  C   UNL     1      37.520  13.191 121.851 -0.44 -0.00    +0.000 A 
DOCKED: ATOM      6  C   UNL     1      37.871  14.066 120.803 -0.34 -0.00    +0.000 A 
DOCKED: ATOM      7  C   UNL     1      38.151  15.410 121.068 -0.22 -0.00    +0.000 A 
DOCKED: ATOM      8  C   UNL     1      38.084  15.906 122.378 -0.25 -0.00    +0.000 A 
DOCKED: ATOM      9  C   UNL     1      37.767  15.031 123.427 -0.27 -0.00    +0.000 A 
DOCKED: ATOM     10  C   UNL     1      37.488  13.688 123.165 -0.47 -0.00    +0.000 A 
DOCKED: ATOM     11  CM  UNL     1      37.814  14.549 122.116 +0.00 -0.00    +0.000 AC
DOCKED: BRANCH   5  12
DOCKED: ATOM     12  C   UNL     1      37.211  10.837 122.609 -0.37 -0.00    +0.000 C 
DOCKED: ATOM     13  C   UNL     1      37.224  11.754 121.629 -0.50 -0.00    +0.000 C 
DOCKED: BRANCH  11  14
DOCKED: ATOM     14  O   UNL     1      36.687   9.022 121.204 -2.62 -0.00    +0.000 OA
DOCKED: ATOM     15  C   UNL     1      36.918   9.407 122.381 -0.66 -0.00    +0.000 C 
DOCKED: ATOM     16  N   UNL     1      36.862   8.456 123.451 -0.67 -0.00    +0.000 N 
DOCKED: ATOM     17  O   UNL     1      36.694   7.140 123.181 -1.98 -0.00    +0.000 OA
DOCKED: ATOM     18  H   UNL     1      36.946   8.760 124.384 -0.48 -0.00    +0.000 HD
DOCKED: ENDBRANCH  11  14
DOCKED: ENDBRANCH   5  12
DOCKED: ENDBRANCH   4   8
DOCKED: ENDBRANCH   1   4
DOCKED: BRANCH   1  18
DOCKED: ATOM     19  C   UNL     1      37.475  19.529 122.140 -0.11 -0.00    +0.000 C 
DOCKED: BRANCH  18  19
DOCKED: ATOM     20  C   UNL     1      35.954  19.728 122.248 -0.12 -0.00    +0.000 C 
DOCKED: BRANCH  19  20
DOCKED: ATOM     21  C   UNL     1      35.451  19.214 123.566 -0.12 -0.00    +0.000 A 
DOCKED: ATOM     22  C   UNL     1      35.430  19.889 124.787 -0.16 -0.00    +0.000 A 
DOCKED: ATOM     23  N   UNL     1      34.968  19.082 125.772 -0.21 -0.00    +0.000 N 
DOCKED: ATOM     24  C   UNL     1      34.717  17.897 125.190 -0.32 -0.00    +0.000 A 
DOCKED: ATOM     25  C   UNL     1      35.006  17.936 123.848 -0.31 -0.00    +0.000 A 
DOCKED: ATOM     26  C   UNL     1      34.848  16.814 123.032 -0.37 -0.00    +0.000 A 
DOCKED: ATOM     27  C   UNL     1      34.372  15.632 123.626 -0.47 -0.00    +0.000 A 
DOCKED: ATOM     28  C   UNL     1      34.070  15.594 125.005 -0.45 -0.00    +0.000 A 
DOCKED: ATOM     29  C   UNL     1      34.245  16.738 125.804 -0.33 -0.00    +0.000 A 
DOCKED: ATOM     30  C   UNL     1      35.840  21.310 125.006 -0.15 -0.00    +0.000 C 
DOCKED: ATOM     31  H   UNL     1      34.842  19.316 126.720 +0.00 -0.00    +0.000 HD
DOCKED: ATOM     32  CM  UNL     1      35.109  18.813 124.669 -0.20 -0.00    +0.000 AC
DOCKED: ATOM     33  CM  UNL     1      34.543  16.768 124.417 -0.17 -0.00    +0.000 AC
DOCKED: ENDBRANCH  19  20
DOCKED: ENDBRANCH  18  19
DOCKED: ENDBRANCH   1  18
DOCKED: TORSDOF 7DOCKED: TER
DOCKED: ENDMDL
________________________________________________________________________________


	BEGINNING GENETIC ALGORITHM DOCKING 66 of 100
Run: 66 Seed: 581519116 1949715961 [ Run 66 of 100 GA/GALS ]
Beginning LAMARCKIAN GENETIC ALGORITHM (LGA), with a maximum of 2500000 energy evaluations.

Final-Value: -14.607


	FINAL GENETIC ALGORITHM DOCKED STATE
	_______________________________________________


Detailed state:  trans 38.582 17.389 119.268 quatxyzw -0.721275 0.210662 -0.622318 -0.219328 center 0.576 -0.005 0.140 ntor 7 120.2314 114.1492 143.7404 152.8668 -118.0952 -50.8357 138.0972
State:	 38.582  17.389 119.268  -0.739  0.216 -0.638 -154.661    120.23  114.15  143.74  152.87 -118.10  -50.84  138.10

DOCKED: MODEL       66
DOCKED: USER    Run = 66
DOCKED: USER    DPF = ligand_dock.biased.dpf
DOCKED: USER  
DOCKED: USER    Estimated Free Energy of Binding    =  -10.33 kcal/mol  [=(1)+(2)+(3)-(4)]
DOCKED: USER    Estimated Inhibition Constant, Ki   =   26.57 nM (nanomolar)  [Temperature = 298.15 K]
DOCKED: USER    
DOCKED: USER    (1) Final Intermolecular Energy     =  -12.42 kcal/mol
DOCKED: USER        vdW + Hbond + desolv Energy     =  -12.42 kcal/mol
DOCKED: USER        Electrostatic Energy            =   +0.00 kcal/mol
DOCKED: USER    (2) Final Total Internal Energy     =   -2.18 kcal/mol
DOCKED: USER    (3) Torsional Free Energy           =   +2.09 kcal/mol
DOCKED: USER    (4) Unbound System's Energy  [=(2)] =   -2.18 kcal/mol
DOCKED: USER    
DOCKED: USER    
DOCKED: USER    NEWDPF move ligand.dum.pdbqt
DOCKED: USER    NEWDPF about 0.576000 -0.005000 0.140000
DOCKED: USER    NEWDPF tran0 38.581579 17.389249 119.268132
DOCKED: USER    NEWDPF quaternion0 -0.721275 0.210662 -0.622318 -0.219328
DOCKED: USER    NEWDPF axisangle0 -0.739276 0.215919 -0.637848 -154.660898
DOCKED: USER    NEWDPF quat0 -0.739276 0.215919 -0.637848 -154.660898
DOCKED: USER    NEWDPF dihe0 120.23 114.15 143.74 152.87 -118.10 -50.84 138.10 
DOCKED: USER  keepresnum = 1 
DOCKED: USER  
DOCKED: REMARK  Name = 
DOCKED: REMARK  8 active torsions:
DOCKED: REMARK  status: ('A' for Active; 'I' for Inactive)
DOCKED: REMARK    1  A    between atoms: C_2  and  C_3
DOCKED: REMARK    2  A    between atoms: C_4  and  C_5
DOCKED: REMARK    3  A    between atoms: C_8  and  C_9
DOCKED: REMARK    4  A    between atoms: C_9  and  N_10
DOCKED: REMARK    5  A    between atoms: N_10  and  C_11
DOCKED: REMARK    6  A    between atoms: C_11  and  C_12
DOCKED: REMARK    7  A    between atoms: C_12  and  C_13
DOCKED: REMARK    8  A    between atoms: C_14  and  C_22
DOCKED: REMARK                            x       y       z     vdW  Elec       q    Type
DOCKED: REMARK                         _______ _______ _______ _____ _____    ______ ____
DOCKED: USER                              x       y       z     vdW  Elec       q    Type
DOCKED: USER                           _______ _______ _______ _____ _____    ______ ____
DOCKED: ROOT
DOCKED: ATOM      1  N   UNL     1      38.784  17.716 118.588 -0.04 -0.00    +0.000 N 
DOCKED: ATOM      2  H   UNL     1      39.393  16.904 118.489 +0.00 -0.00    +0.000 HD
DOCKED: ATOM      3  H   UNL     1      39.254  18.478 119.077 +0.00 -0.00    +0.000 HD
DOCKED: ENDROOT
DOCKED: BRANCH   1   4
DOCKED: ATOM      4  C   UNL     1      37.610  17.332 119.381 -0.09 -0.00    +0.000 C 
DOCKED: BRANCH   4   8
DOCKED: ATOM      5  C   UNL     1      37.715  13.100 120.272 -0.42 -0.00    +0.000 A 
DOCKED: ATOM      6  C   UNL     1      38.689  13.969 120.804 -0.30 -0.00    +0.000 A 
DOCKED: ATOM      7  C   UNL     1      38.659  15.335 120.504 -0.21 -0.00    +0.000 A 
DOCKED: ATOM      8  C   UNL     1      37.661  15.857 119.668 -0.16 -0.00    +0.000 A 
DOCKED: ATOM      9  C   UNL     1      36.671  15.001 119.164 -0.20 -0.00    +0.000 A 
DOCKED: ATOM     10  C   UNL     1      36.698  13.637 119.464 -0.28 -0.00    +0.000 A 
DOCKED: ATOM     11  CM  UNL     1      37.682  14.483 119.979 +0.00 -0.00    +0.000 AC
DOCKED: BRANCH   5  12
DOCKED: ATOM     12  C   UNL     1      37.006  11.104 121.585 -0.53 -0.00    +0.000 C 
DOCKED: ATOM     13  C   UNL     1      37.692  11.646 120.567 -0.39 -0.00    +0.000 C 
DOCKED: BRANCH  11  14
DOCKED: ATOM     14  O   UNL     1      36.869   8.852 120.913 -2.66 -0.00    +0.000 OA
DOCKED: ATOM     15  C   UNL     1      36.988   9.656 121.875 -0.60 -0.00    +0.000 C 
DOCKED: ATOM     16  N   UNL     1      37.076   9.140 123.209 -0.63 -0.00    +0.000 N 
DOCKED: ATOM     17  O   UNL     1      37.161   7.805 123.415 -2.62 -0.00    +0.000 OA
DOCKED: ATOM     18  H   UNL     1      37.073   9.757 123.976 -0.49 -0.00    +0.000 HD
DOCKED: ENDBRANCH  11  14
DOCKED: ENDBRANCH   5  12
DOCKED: ENDBRANCH   4   8
DOCKED: ENDBRANCH   1   4
DOCKED: BRANCH   1  18
DOCKED: ATOM     19  C   UNL     1      38.420  18.200 117.248 -0.03 -0.00    +0.000 C 
DOCKED: BRANCH  18  19
DOCKED: ATOM     20  C   UNL     1      39.497  17.890 116.196 -0.04 -0.00    +0.000 C 
DOCKED: BRANCH  19  20
DOCKED: ATOM     21  C   UNL     1      39.759  16.412 116.135 -0.13 -0.00    +0.000 A 
DOCKED: ATOM     22  C   UNL     1      40.988  15.763 116.265 -0.25 -0.00    +0.000 A 
DOCKED: ATOM     23  N   UNL     1      40.845  14.428 116.086 -0.28 -0.00    +0.000 N 
DOCKED: ATOM     24  C   UNL     1      39.542  14.230 115.824 -0.33 -0.00    +0.000 A 
DOCKED: ATOM     25  C   UNL     1      38.849  15.415 115.838 -0.20 -0.00    +0.000 A 
DOCKED: ATOM     26  C   UNL     1      37.481  15.467 115.570 -0.15 -0.00    +0.000 A 
DOCKED: ATOM     27  C   UNL     1      36.820  14.258 115.289 -0.27 -0.00    +0.000 A 
DOCKED: ATOM     28  C   UNL     1      37.532  13.038 115.280 -0.31 -0.00    +0.000 A 
DOCKED: ATOM     29  C   UNL     1      38.913  13.017 115.548 -0.51 -0.00    +0.000 A 
DOCKED: ATOM     30  C   UNL     1      42.295  16.422 116.572 -0.23 -0.00    +0.000 C 
DOCKED: ATOM     31  H   UNL     1      41.552  13.744 116.138 -0.10 -0.00    +0.000 HD
DOCKED: ATOM     32  CM  UNL     1      40.024  15.223 116.032 +0.00 -0.00    +0.000 AC
DOCKED: ATOM     33  CM  UNL     1      38.189  14.238 115.558 +0.00 -0.00    +0.000 AC
DOCKED: ENDBRANCH  19  20
DOCKED: ENDBRANCH  18  19
DOCKED: ENDBRANCH   1  18
DOCKED: TORSDOF 7DOCKED: TER
DOCKED: ENDMDL
________________________________________________________________________________


	BEGINNING GENETIC ALGORITHM DOCKING 67 of 100
Run: 67 Seed: 1796674468 192801856 [ Run 67 of 100 GA/GALS ]
Beginning LAMARCKIAN GENETIC ALGORITHM (LGA), with a maximum of 2500000 energy evaluations.

Final-Value: -15.227


	FINAL GENETIC ALGORITHM DOCKED STATE
	_______________________________________________


Detailed state:  trans 35.460 17.513 121.557 quatxyzw 0.315987 -0.889423 -0.012037 -0.330052 center 0.576 -0.005 0.140 ntor 7 -15.8617 150.0155 -7.8936 -30.9829 -168.2834 56.5003 70.2381
State:	 35.460  17.513 121.557   0.335 -0.942 -0.013 -141.456    -15.86  150.02   -7.89  -30.98 -168.28   56.50   70.24

DOCKED: MODEL       67
DOCKED: USER    Run = 67
DOCKED: USER    DPF = ligand_dock.biased.dpf
DOCKED: USER  
DOCKED: USER    Estimated Free Energy of Binding    =  -11.08 kcal/mol  [=(1)+(2)+(3)-(4)]
DOCKED: USER    Estimated Inhibition Constant, Ki   =    7.55 nM (nanomolar)  [Temperature = 298.15 K]
DOCKED: USER    
DOCKED: USER    (1) Final Intermolecular Energy     =  -13.17 kcal/mol
DOCKED: USER        vdW + Hbond + desolv Energy     =  -13.17 kcal/mol
DOCKED: USER        Electrostatic Energy            =   +0.00 kcal/mol
DOCKED: USER    (2) Final Total Internal Energy     =   -2.06 kcal/mol
DOCKED: USER    (3) Torsional Free Energy           =   +2.09 kcal/mol
DOCKED: USER    (4) Unbound System's Energy  [=(2)] =   -2.06 kcal/mol
DOCKED: USER    
DOCKED: USER    
DOCKED: USER    NEWDPF move ligand.dum.pdbqt
DOCKED: USER    NEWDPF about 0.576000 -0.005000 0.140000
DOCKED: USER    NEWDPF tran0 35.460490 17.512515 121.556572
DOCKED: USER    NEWDPF quaternion0 0.315987 -0.889423 -0.012037 -0.330052
DOCKED: USER    NEWDPF axisangle0 0.334745 -0.942222 -0.012751 -141.456135
DOCKED: USER    NEWDPF quat0 0.334745 -0.942222 -0.012751 -141.456135
DOCKED: USER    NEWDPF dihe0 -15.86 150.02 -7.89 -30.98 -168.28 56.50 70.24 
DOCKED: USER  keepresnum = 1 
DOCKED: USER  
DOCKED: REMARK  Name = 
DOCKED: REMARK  8 active torsions:
DOCKED: REMARK  status: ('A' for Active; 'I' for Inactive)
DOCKED: REMARK    1  A    between atoms: C_2  and  C_3
DOCKED: REMARK    2  A    between atoms: C_4  and  C_5
DOCKED: REMARK    3  A    between atoms: C_8  and  C_9
DOCKED: REMARK    4  A    between atoms: C_9  and  N_10
DOCKED: REMARK    5  A    between atoms: N_10  and  C_11
DOCKED: REMARK    6  A    between atoms: C_11  and  C_12
DOCKED: REMARK    7  A    between atoms: C_12  and  C_13
DOCKED: REMARK    8  A    between atoms: C_14  and  C_22
DOCKED: REMARK                            x       y       z     vdW  Elec       q    Type
DOCKED: REMARK                         _______ _______ _______ _____ _____    ______ ____
DOCKED: USER                              x       y       z     vdW  Elec       q    Type
DOCKED: USER                           _______ _______ _______ _____ _____    ______ ____
DOCKED: ROOT
DOCKED: ATOM      1  N   UNL     1      35.624  17.956 120.934 -0.21 -0.00    +0.000 N 
DOCKED: ATOM      2  H   UNL     1      34.621  18.140 120.922 -0.01 -0.00    +0.000 HD
DOCKED: ATOM      3  H   UNL     1      35.859  17.127 120.388 -0.01 -0.00    +0.000 HD
DOCKED: ENDROOT
DOCKED: BRANCH   1   4
DOCKED: ATOM      4  C   UNL     1      36.042  17.711 122.320 -0.25 -0.00    +0.000 C 
DOCKED: BRANCH   4   8
DOCKED: ATOM      5  C   UNL     1      36.530  13.449 122.874 -0.48 -0.00    +0.000 A 
DOCKED: ATOM      6  C   UNL     1      35.570  14.163 123.619 -0.46 -0.00    +0.000 A 
DOCKED: ATOM      7  C   UNL     1      35.423  15.543 123.446 -0.43 -0.00    +0.000 A 
DOCKED: ATOM      8  C   UNL     1      36.231  16.234 122.532 -0.27 -0.00    +0.000 A 
DOCKED: ATOM      9  C   UNL     1      37.164  15.521 121.764 -0.24 -0.00    +0.000 A 
DOCKED: ATOM     10  C   UNL     1      37.311  14.143 121.935 -0.37 -0.00    +0.000 A 
DOCKED: ATOM     11  CM  UNL     1      36.371  14.842 122.695 +0.00 -0.00    +0.000 AC
DOCKED: BRANCH   5  12
DOCKED: ATOM     12  C   UNL     1      36.707  11.133 121.970 -0.62 -0.00    +0.000 C 
DOCKED: ATOM     13  C   UNL     1      36.720  11.983 123.008 -0.67 -0.00    +0.000 C 
DOCKED: BRANCH  11  14
DOCKED: ATOM     14  O   UNL     1      36.880   8.964 121.070 -2.66 -0.00    +0.000 OA
DOCKED: ATOM     15  C   UNL     1      36.894   9.674 122.111 -0.64 -0.00    +0.000 C 
DOCKED: ATOM     16  N   UNL     1      37.063   9.042 123.386 -0.60 -0.00    +0.000 N 
DOCKED: ATOM     17  O   UNL     1      37.335   7.718 123.455 -2.63 -0.00    +0.000 OA
DOCKED: ATOM     18  H   UNL     1      36.980   9.571 124.211 -0.56 -0.00    +0.000 HD
DOCKED: ENDBRANCH  11  14
DOCKED: ENDBRANCH   5  12
DOCKED: ENDBRANCH   4   8
DOCKED: ENDBRANCH   1   4
DOCKED: BRANCH   1  18
DOCKED: ATOM     19  C   UNL     1      36.323  19.103 120.334 -0.15 -0.00    +0.000 C 
DOCKED: BRANCH  18  19
DOCKED: ATOM     20  C   UNL     1      36.644  18.885 118.847 -0.08 -0.00    +0.000 C 
DOCKED: BRANCH  19  20
DOCKED: ATOM     21  C   UNL     1      35.997  17.624 118.351 -0.10 -0.00    +0.000 A 
DOCKED: ATOM     22  C   UNL     1      34.678  17.458 117.924 -0.14 -0.00    +0.000 A 
DOCKED: ATOM     23  N   UNL     1      34.435  16.163 117.613 -0.08 -0.00    +0.000 N 
DOCKED: ATOM     24  C   UNL     1      35.581  15.504 117.859 -0.17 -0.00    +0.000 A 
DOCKED: ATOM     25  C   UNL     1      36.553  16.358 118.316 -0.13 -0.00    +0.000 A 
DOCKED: ATOM     26  C   UNL     1      37.826  15.902 118.663 -0.14 -0.00    +0.000 A 
DOCKED: ATOM     27  C   UNL     1      38.092  14.529 118.522 -0.20 -0.00    +0.000 A 
DOCKED: ATOM     28  C   UNL     1      37.093  13.651 118.046 -0.37 -0.00    +0.000 A 
DOCKED: ATOM     29  C   UNL     1      35.817  14.138 117.711 -0.33 -0.00    +0.000 A 
DOCKED: ATOM     30  C   UNL     1      33.658  18.544 117.804 -0.16 -0.00    +0.000 C 
DOCKED: ATOM     31  H   UNL     1      33.592  15.782 117.276 -0.01 -0.00    +0.000 HD
DOCKED: ATOM     32  CM  UNL     1      35.416  16.607 118.000 +0.00 -0.00    +0.000 AC
DOCKED: ATOM     33  CM  UNL     1      36.828  15.014 118.186 +0.00 -0.00    +0.000 AC
DOCKED: ENDBRANCH  19  20
DOCKED: ENDBRANCH  18  19
DOCKED: ENDBRANCH   1  18
DOCKED: TORSDOF 7DOCKED: TER
DOCKED: ENDMDL
________________________________________________________________________________


	BEGINNING GENETIC ALGORITHM DOCKING 68 of 100
Run: 68 Seed: 908257244 1771796855 [ Run 68 of 100 GA/GALS ]
Beginning LAMARCKIAN GENETIC ALGORITHM (LGA), with a maximum of 2500000 energy evaluations.

Final-Value: -14.983


	FINAL GENETIC ALGORITHM DOCKED STATE
	_______________________________________________


Detailed state:  trans 38.040 17.677 123.557 quatxyzw 0.025753 0.210319 0.207249 0.955066 center 0.576 -0.005 0.140 ntor 7 147.1679 -144.3128 -138.3820 -154.9128 145.0558 87.6549 94.3680
State:	 38.040  17.677 123.557   0.087  0.710  0.699 34.482    147.17 -144.31 -138.38 -154.91  145.06   87.65   94.37

DOCKED: MODEL       68
DOCKED: USER    Run = 68
DOCKED: USER    DPF = ligand_dock.biased.dpf
DOCKED: USER  
DOCKED: USER    Estimated Free Energy of Binding    =  -11.35 kcal/mol  [=(1)+(2)+(3)-(4)]
DOCKED: USER    Estimated Inhibition Constant, Ki   =    4.83 nM (nanomolar)  [Temperature = 298.15 K]
DOCKED: USER    
DOCKED: USER    (1) Final Intermolecular Energy     =  -13.43 kcal/mol
DOCKED: USER        vdW + Hbond + desolv Energy     =  -13.43 kcal/mol
DOCKED: USER        Electrostatic Energy            =   +0.00 kcal/mol
DOCKED: USER    (2) Final Total Internal Energy     =   -1.55 kcal/mol
DOCKED: USER    (3) Torsional Free Energy           =   +2.09 kcal/mol
DOCKED: USER    (4) Unbound System's Energy  [=(2)] =   -1.55 kcal/mol
DOCKED: USER    
DOCKED: USER    
DOCKED: USER    NEWDPF move ligand.dum.pdbqt
DOCKED: USER    NEWDPF about 0.576000 -0.005000 0.140000
DOCKED: USER    NEWDPF tran0 38.040441 17.676787 123.557193
DOCKED: USER    NEWDPF quaternion0 0.025753 0.210319 0.207249 0.955066
DOCKED: USER    NEWDPF axisangle0 0.086888 0.709592 0.699235 34.482312
DOCKED: USER    NEWDPF quat0 0.086888 0.709592 0.699235 34.482312
DOCKED: USER    NEWDPF dihe0 147.17 -144.31 -138.38 -154.91 145.06 87.65 94.37 
DOCKED: USER  keepresnum = 1 
DOCKED: USER  
DOCKED: REMARK  Name = 
DOCKED: REMARK  8 active torsions:
DOCKED: REMARK  status: ('A' for Active; 'I' for Inactive)
DOCKED: REMARK    1  A    between atoms: C_2  and  C_3
DOCKED: REMARK    2  A    between atoms: C_4  and  C_5
DOCKED: REMARK    3  A    between atoms: C_8  and  C_9
DOCKED: REMARK    4  A    between atoms: C_9  and  N_10
DOCKED: REMARK    5  A    between atoms: N_10  and  C_11
DOCKED: REMARK    6  A    between atoms: C_11  and  C_12
DOCKED: REMARK    7  A    between atoms: C_12  and  C_13
DOCKED: REMARK    8  A    between atoms: C_14  and  C_22
DOCKED: REMARK                            x       y       z     vdW  Elec       q    Type
DOCKED: REMARK                         _______ _______ _______ _____ _____    ______ ____
DOCKED: USER                              x       y       z     vdW  Elec       q    Type
DOCKED: USER                           _______ _______ _______ _____ _____    ______ ____
DOCKED: ROOT
DOCKED: ATOM      1  N   UNL     1      37.385  18.102 123.548 -0.16 -0.00    +0.000 N 
DOCKED: ATOM      2  H   UNL     1      37.835  18.637 124.290 -0.00 -0.00    +0.000 HD
DOCKED: ATOM      3  H   UNL     1      36.853  17.316 123.924 -0.01 -0.00    +0.000 HD
DOCKED: ENDROOT
DOCKED: BRANCH   1   4
DOCKED: ATOM      4  C   UNL     1      38.421  17.558 122.662 -0.17 -0.00    +0.000 C 
DOCKED: BRANCH   4   8
DOCKED: ATOM      5  C   UNL     1      37.666  13.376 121.853 -0.43 -0.00    +0.000 A 
DOCKED: ATOM      6  C   UNL     1      37.673  14.319 120.805 -0.31 -0.00    +0.000 A 
DOCKED: ATOM      7  C   UNL     1      37.905  15.672 121.072 -0.20 -0.00    +0.000 A 
DOCKED: ATOM      8  C   UNL     1      38.132  16.108 122.385 -0.23 -0.00    +0.000 A 
DOCKED: ATOM      9  C   UNL     1      38.159  15.168 123.426 -0.12 -0.00    +0.000 A 
DOCKED: ATOM     10  C   UNL     1      37.928  13.817 123.161 -0.42 -0.00    +0.000 A 
DOCKED: ATOM     11  CM  UNL     1      37.911  14.744 122.117 +0.00 -0.00    +0.000 AC
DOCKED: BRANCH   5  12
DOCKED: ATOM     12  C   UNL     1      37.178  11.052 122.608 -0.45 -0.00    +0.000 C 
DOCKED: ATOM     13  C   UNL     1      37.437  11.928 121.625 -0.46 -0.00    +0.000 C 
DOCKED: BRANCH  11  14
DOCKED: ATOM     14  O   UNL     1      36.698   9.224 121.204 -2.63 -0.00    +0.000 OA
DOCKED: ATOM     15  C   UNL     1      36.952   9.611 122.376 -0.63 -0.00    +0.000 C 
DOCKED: ATOM     16  N   UNL     1      36.986   8.648 123.437 -0.65 -0.00    +0.000 N 
DOCKED: ATOM     17  O   UNL     1      36.878   7.328 123.158 -2.24 -0.00    +0.000 OA
DOCKED: ATOM     18  H   UNL     1      37.088   8.947 124.369 -0.53 -0.00    +0.000 HD
DOCKED: ENDBRANCH  11  14
DOCKED: ENDBRANCH   5  12
DOCKED: ENDBRANCH   4   8
DOCKED: ENDBRANCH   1   4
DOCKED: BRANCH   1  18
DOCKED: ATOM     19  C   UNL     1      36.445  18.980 122.836 -0.19 -0.00    +0.000 C 
DOCKED: BRANCH  18  19
DOCKED: ATOM     20  C   UNL     1      35.193  19.303 123.669 -0.03 -0.00    +0.000 C 
DOCKED: BRANCH  19  20
DOCKED: ATOM     21  C   UNL     1      34.743  18.090 124.430 -0.31 -0.00    +0.000 A 
DOCKED: ATOM     22  C   UNL     1      34.573  16.795 123.938 -0.43 -0.00    +0.000 A 
DOCKED: ATOM     23  N   UNL     1      34.088  15.976 124.901 -0.54 -0.00    +0.000 N 
DOCKED: ATOM     24  C   UNL     1      33.930  16.746 125.992 -0.36 -0.00    +0.000 A 
DOCKED: ATOM     25  C   UNL     1      34.312  18.041 125.742 -0.32 -0.00    +0.000 A 
DOCKED: ATOM     26  C   UNL     1      34.217  19.034 126.718 -0.20 -0.00    +0.000 A 
DOCKED: ATOM     27  C   UNL     1      33.722  18.668 127.983 -0.16 -0.00    +0.000 A 
DOCKED: ATOM     28  C   UNL     1      33.335  17.334 128.241 -0.30 -0.00    +0.000 A 
DOCKED: ATOM     29  C   UNL     1      33.436  16.355 127.236 -0.35 -0.00    +0.000 A 
DOCKED: ATOM     30  C   UNL     1      34.886  16.342 122.547 -0.22 -0.00    +0.000 C 
DOCKED: ATOM     31  H   UNL     1      33.892  15.015 124.820 -0.08 -0.00    +0.000 HD
DOCKED: ATOM     32  CM  UNL     1      34.322  17.092 124.997 -0.28 -0.00    +0.000 AC
DOCKED: ATOM     33  CM  UNL     1      33.826  17.697 126.986 -0.02 -0.00    +0.000 AC
DOCKED: ENDBRANCH  19  20
DOCKED: ENDBRANCH  18  19
DOCKED: ENDBRANCH   1  18
DOCKED: TORSDOF 7DOCKED: TER
DOCKED: ENDMDL
________________________________________________________________________________


	BEGINNING GENETIC ALGORITHM DOCKING 69 of 100
Run: 69 Seed: 1878526865 1276567468 [ Run 69 of 100 GA/GALS ]
Beginning LAMARCKIAN GENETIC ALGORITHM (LGA), with a maximum of 2500000 energy evaluations.

Final-Value: -14.289


	FINAL GENETIC ALGORITHM DOCKED STATE
	_______________________________________________


Detailed state:  trans 37.324 18.010 119.492 quatxyzw -0.032277 -0.438136 -0.893024 0.097485 center 0.576 -0.005 0.140 ntor 7 144.6181 15.1458 0.8042 153.7860 -105.7454 -122.7417 148.9978
State:	 37.324  18.010 119.492  -0.032 -0.440 -0.897 168.811    144.62   15.15    0.80  153.79 -105.75 -122.74  149.00

DOCKED: MODEL       69
DOCKED: USER    Run = 69
DOCKED: USER    DPF = ligand_dock.biased.dpf
DOCKED: USER  
DOCKED: USER    Estimated Free Energy of Binding    =   -9.90 kcal/mol  [=(1)+(2)+(3)-(4)]
DOCKED: USER    Estimated Inhibition Constant, Ki   =   55.25 nM (nanomolar)  [Temperature = 298.15 K]
DOCKED: USER    
DOCKED: USER    (1) Final Intermolecular Energy     =  -11.99 kcal/mol
DOCKED: USER        vdW + Hbond + desolv Energy     =  -11.99 kcal/mol
DOCKED: USER        Electrostatic Energy            =   +0.00 kcal/mol
DOCKED: USER    (2) Final Total Internal Energy     =   -2.30 kcal/mol
DOCKED: USER    (3) Torsional Free Energy           =   +2.09 kcal/mol
DOCKED: USER    (4) Unbound System's Energy  [=(2)] =   -2.30 kcal/mol
DOCKED: USER    
DOCKED: USER    
DOCKED: USER    NEWDPF move ligand.dum.pdbqt
DOCKED: USER    NEWDPF about 0.576000 -0.005000 0.140000
DOCKED: USER    NEWDPF tran0 37.324442 18.009929 119.492048
DOCKED: USER    NEWDPF quaternion0 -0.032277 -0.438136 -0.893024 0.097485
DOCKED: USER    NEWDPF axisangle0 -0.032432 -0.440233 -0.897298 168.811314
DOCKED: USER    NEWDPF quat0 -0.032432 -0.440233 -0.897298 168.811314
DOCKED: USER    NEWDPF dihe0 144.62 15.15 0.80 153.79 -105.75 -122.74 149.00 
DOCKED: USER  keepresnum = 1 
DOCKED: USER  
DOCKED: REMARK  Name = 
DOCKED: REMARK  8 active torsions:
DOCKED: REMARK  status: ('A' for Active; 'I' for Inactive)
DOCKED: REMARK    1  A    between atoms: C_2  and  C_3
DOCKED: REMARK    2  A    between atoms: C_4  and  C_5
DOCKED: REMARK    3  A    between atoms: C_8  and  C_9
DOCKED: REMARK    4  A    between atoms: C_9  and  N_10
DOCKED: REMARK    5  A    between atoms: N_10  and  C_11
DOCKED: REMARK    6  A    between atoms: C_11  and  C_12
DOCKED: REMARK    7  A    between atoms: C_12  and  C_13
DOCKED: REMARK    8  A    between atoms: C_14  and  C_22
DOCKED: REMARK                            x       y       z     vdW  Elec       q    Type
DOCKED: REMARK                         _______ _______ _______ _____ _____    ______ ____
DOCKED: USER                              x       y       z     vdW  Elec       q    Type
DOCKED: USER                           _______ _______ _______ _____ _____    ______ ____
DOCKED: ROOT
DOCKED: ATOM      1  N   UNL     1      38.045  18.032 119.795 -0.05 -0.00    +0.000 N 
DOCKED: ATOM      2  H   UNL     1      37.562  18.153 120.685 +0.00 -0.00    +0.000 HD
DOCKED: ATOM      3  H   UNL     1      38.223  18.928 119.342 +0.00 -0.00    +0.000 HD
DOCKED: ENDROOT
DOCKED: BRANCH   1   4
DOCKED: ATOM      4  C   UNL     1      37.191  17.240 118.900 -0.10 -0.00    +0.000 C 
DOCKED: BRANCH   4   8
DOCKED: ATOM      5  C   UNL     1      37.293  13.065 120.024 -0.42 -0.00    +0.000 A 
DOCKED: ATOM      6  C   UNL     1      36.715  14.023 120.880 +0.06 -0.00    +0.000 A 
DOCKED: ATOM      7  C   UNL     1      36.695  15.374 120.519 -0.09 -0.00    +0.000 A 
DOCKED: ATOM      8  C   UNL     1      37.251  15.793 119.302 -0.17 -0.00    +0.000 A 
DOCKED: ATOM      9  C   UNL     1      37.797  14.837 118.433 -0.22 -0.00    +0.000 A 
DOCKED: ATOM     10  C   UNL     1      37.818  13.487 118.791 -0.25 -0.00    +0.000 A 
DOCKED: ATOM     11  CM  UNL     1      37.262  14.430 119.658 +0.00 -0.00    +0.000 AC
DOCKED: BRANCH   5  12
DOCKED: ATOM     12  C   UNL     1      36.960  11.114 121.538 -0.51 -0.00    +0.000 C 
DOCKED: ATOM     13  C   UNL     1      37.331  11.618 120.352 -0.31 -0.00    +0.000 C 
DOCKED: BRANCH  11  14
DOCKED: ATOM     14  O   UNL     1      37.054   8.847 120.909 -2.71 -0.00    +0.000 OA
DOCKED: ATOM     15  C   UNL     1      37.002   9.673 121.859 -0.59 -0.00    +0.000 C 
DOCKED: ATOM     16  N   UNL     1      36.958   9.185 123.207 -0.63 -0.00    +0.000 N 
DOCKED: ATOM     17  O   UNL     1      37.104   7.862 123.454 -2.63 -0.00    +0.000 OA
DOCKED: ATOM     18  H   UNL     1      36.820   9.813 123.952 -0.44 -0.00    +0.000 HD
DOCKED: ENDBRANCH  11  14
DOCKED: ENDBRANCH   5  12
DOCKED: ENDBRANCH   4   8
DOCKED: ENDBRANCH   1   4
DOCKED: BRANCH   1  18
DOCKED: ATOM     19  C   UNL     1      39.343  17.388 120.045 -0.08 -0.00    +0.000 C 
DOCKED: BRANCH  18  19
DOCKED: ATOM     20  C   UNL     1      39.775  17.483 121.517 -0.12 -0.00    +0.000 C 
DOCKED: BRANCH  19  20
DOCKED: ATOM     21  C   UNL     1      38.901  16.614 122.376 -0.20 -0.00    +0.000 A 
DOCKED: ATOM     22  C   UNL     1      39.116  15.282 122.731 -0.31 -0.00    +0.000 A 
DOCKED: ATOM     23  N   UNL     1      38.079  14.807 123.461 -0.34 -0.00    +0.000 N 
DOCKED: ATOM     24  C   UNL     1      37.200  15.820 123.552 -0.28 -0.00    +0.000 A 
DOCKED: ATOM     25  C   UNL     1      37.662  16.935 122.898 -0.20 -0.00    +0.000 A 
DOCKED: ATOM     26  C   UNL     1      36.911  18.110 122.834 -0.15 -0.00    +0.000 A 
DOCKED: ATOM     27  C   UNL     1      35.658  18.125 123.472 -0.24 -0.00    +0.000 A 
DOCKED: ATOM     28  C   UNL     1      35.186  16.979 124.150 -0.36 -0.00    +0.000 A 
DOCKED: ATOM     29  C   UNL     1      35.961  15.806 124.192 -0.34 -0.00    +0.000 A 
DOCKED: ATOM     30  C   UNL     1      40.322  14.470 122.381 -0.28 -0.00    +0.000 C 
DOCKED: ATOM     31  H   UNL     1      37.988  13.905 123.845 -0.04 -0.00    +0.000 HD
DOCKED: ATOM     32  CM  UNL     1      38.188  15.856 123.018 +0.00 -0.00    +0.000 AC
DOCKED: ATOM     33  CM  UNL     1      36.430  16.963 123.517 -0.01 -0.00    +0.000 AC
DOCKED: ENDBRANCH  19  20
DOCKED: ENDBRANCH  18  19
DOCKED: ENDBRANCH   1  18
DOCKED: TORSDOF 7DOCKED: TER
DOCKED: ENDMDL
________________________________________________________________________________


	BEGINNING GENETIC ALGORITHM DOCKING 70 of 100
Run: 70 Seed: 707598981 1689542195 [ Run 70 of 100 GA/GALS ]
Beginning LAMARCKIAN GENETIC ALGORITHM (LGA), with a maximum of 2500000 energy evaluations.

Final-Value: -14.797


	FINAL GENETIC ALGORITHM DOCKED STATE
	_______________________________________________


Detailed state:  trans 38.075 17.806 122.041 quatxyzw -0.668783 0.738931 0.076021 0.030510 center 0.576 -0.005 0.140 ntor 7 117.3845 -179.1543 -174.7235 154.4881 -162.2583 -0.1970 -157.2984
State:	 38.075  17.806 122.041  -0.669  0.739  0.076 176.503    117.38 -179.15 -174.72  154.49 -162.26   -0.20 -157.30

DOCKED: MODEL       70
DOCKED: USER    Run = 70
DOCKED: USER    DPF = ligand_dock.biased.dpf
DOCKED: USER  
DOCKED: USER    Estimated Free Energy of Binding    =  -10.86 kcal/mol  [=(1)+(2)+(3)-(4)]
DOCKED: USER    Estimated Inhibition Constant, Ki   =   10.91 nM (nanomolar)  [Temperature = 298.15 K]
DOCKED: USER    
DOCKED: USER    (1) Final Intermolecular Energy     =  -12.95 kcal/mol
DOCKED: USER        vdW + Hbond + desolv Energy     =  -12.95 kcal/mol
DOCKED: USER        Electrostatic Energy            =   +0.00 kcal/mol
DOCKED: USER    (2) Final Total Internal Energy     =   -1.85 kcal/mol
DOCKED: USER    (3) Torsional Free Energy           =   +2.09 kcal/mol
DOCKED: USER    (4) Unbound System's Energy  [=(2)] =   -1.85 kcal/mol
DOCKED: USER    
DOCKED: USER    
DOCKED: USER    NEWDPF move ligand.dum.pdbqt
DOCKED: USER    NEWDPF about 0.576000 -0.005000 0.140000
DOCKED: USER    NEWDPF tran0 38.074900 17.806073 122.040700
DOCKED: USER    NEWDPF quaternion0 -0.668783 0.738931 0.076021 0.030510
DOCKED: USER    NEWDPF axisangle0 -0.669095 0.739275 0.076057 176.503322
DOCKED: USER    NEWDPF quat0 -0.669095 0.739275 0.076057 176.503322
DOCKED: USER    NEWDPF dihe0 117.38 -179.15 -174.72 154.49 -162.26 -0.20 -157.30 
DOCKED: USER  keepresnum = 1 
DOCKED: USER  
DOCKED: REMARK  Name = 
DOCKED: REMARK  8 active torsions:
DOCKED: REMARK  status: ('A' for Active; 'I' for Inactive)
DOCKED: REMARK    1  A    between atoms: C_2  and  C_3
DOCKED: REMARK    2  A    between atoms: C_4  and  C_5
DOCKED: REMARK    3  A    between atoms: C_8  and  C_9
DOCKED: REMARK    4  A    between atoms: C_9  and  N_10
DOCKED: REMARK    5  A    between atoms: N_10  and  C_11
DOCKED: REMARK    6  A    between atoms: C_11  and  C_12
DOCKED: REMARK    7  A    between atoms: C_12  and  C_13
DOCKED: REMARK    8  A    between atoms: C_14  and  C_22
DOCKED: REMARK                            x       y       z     vdW  Elec       q    Type
DOCKED: REMARK                         _______ _______ _______ _____ _____    ______ ____
DOCKED: USER                              x       y       z     vdW  Elec       q    Type
DOCKED: USER                           _______ _______ _______ _____ _____    ______ ____
DOCKED: ROOT
DOCKED: ATOM      1  N   UNL     1      37.984  18.543 121.797 -0.07 -0.00    +0.000 N 
DOCKED: ATOM      2  H   UNL     1      37.163  18.181 121.314 +0.00 -0.00    +0.000 HD
DOCKED: ATOM      3  H   UNL     1      38.821  18.470 121.219 +0.00 -0.00    +0.000 HD
DOCKED: ENDROOT
DOCKED: BRANCH   1   4
DOCKED: ATOM      4  C   UNL     1      38.208  17.746 123.010 -0.18 -0.00    +0.000 C 
DOCKED: BRANCH   4   8
DOCKED: ATOM      5  C   UNL     1      37.910  13.525 122.114 -0.41 -0.00    +0.000 A 
DOCKED: ATOM      6  C   UNL     1      38.968  14.296 121.590 -0.33 -0.00    +0.000 A 
DOCKED: ATOM      7  C   UNL     1      39.054  15.663 121.872 -0.26 -0.00    +0.000 A 
DOCKED: ATOM      8  C   UNL     1      38.089  16.285 122.677 -0.23 -0.00    +0.000 A 
DOCKED: ATOM      9  C   UNL     1      37.054  15.514 123.227 -0.34 -0.00    +0.000 A 
DOCKED: ATOM     10  C   UNL     1      36.967  14.148 122.947 -0.44 -0.00    +0.000 A 
DOCKED: ATOM     11  CM  UNL     1      38.007  14.905 122.405 +0.00 -0.00    +0.000 AC
DOCKED: BRANCH   5  12
DOCKED: ATOM     12  C   UNL     1      37.074  11.237 122.640 -0.59 -0.00    +0.000 C 
DOCKED: ATOM     13  C   UNL     1      37.777  12.069 121.857 +0.05 -0.00    +0.000 C 
DOCKED: BRANCH  11  14
DOCKED: ATOM     14  O   UNL     1      36.685   9.409 121.207 -2.45 -0.00    +0.000 OA
DOCKED: ATOM     15  C   UNL     1      36.946   9.789 122.380 -0.62 -0.00    +0.000 C 
DOCKED: ATOM     16  N   UNL     1      37.083   8.808 123.416 -0.62 -0.00    +0.000 N 
DOCKED: ATOM     17  O   UNL     1      37.062   7.490 123.110 -2.41 -0.00    +0.000 OA
DOCKED: ATOM     18  H   UNL     1      37.192   9.094 124.352 -0.55 -0.00    +0.000 HD
DOCKED: ENDBRANCH  11  14
DOCKED: ENDBRANCH   5  12
DOCKED: ENDBRANCH   4   8
DOCKED: ENDBRANCH   1   4
DOCKED: BRANCH   1  18
DOCKED: ATOM     19  C   UNL     1      37.768  19.967 122.096 -0.09 -0.00    +0.000 C 
DOCKED: BRANCH  18  19
DOCKED: ATOM     20  C   UNL     1      36.307  20.278 122.457 -0.10 -0.00    +0.000 C 
DOCKED: BRANCH  19  20
DOCKED: ATOM     21  C   UNL     1      35.552  19.008 122.728 -0.18 -0.00    +0.000 A 
DOCKED: ATOM     22  C   UNL     1      34.941  18.170 121.794 -0.29 -0.00    +0.000 A 
DOCKED: ATOM     23  N   UNL     1      34.296  17.153 122.414 -0.39 -0.00    +0.000 N 
DOCKED: ATOM     24  C   UNL     1      34.475  17.353 123.731 -0.39 -0.00    +0.000 A 
DOCKED: ATOM     25  C   UNL     1      35.230  18.477 123.962 -0.25 -0.00    +0.000 A 
DOCKED: ATOM     26  C   UNL     1      35.531  18.904 125.256 -0.21 -0.00    +0.000 A 
DOCKED: ATOM     27  C   UNL     1      35.043  18.139 126.331 -0.19 -0.00    +0.000 A 
DOCKED: ATOM     28  C   UNL     1      34.272  16.979 126.092 -0.28 -0.00    +0.000 A 
DOCKED: ATOM     29  C   UNL     1      33.978  16.576 124.777 -0.34 -0.00    +0.000 A 
DOCKED: ATOM     30  C   UNL     1      34.987  18.338 120.309 -0.26 -0.00    +0.000 C 
DOCKED: ATOM     31  H   UNL     1      33.797  16.419 121.987 -0.03 -0.00    +0.000 HD
DOCKED: ATOM     32  CM  UNL     1      34.879  18.004 122.909 -0.02 -0.00    +0.000 AC
DOCKED: ATOM     33  CM  UNL     1      34.755  17.738 125.026 -0.47 -0.00    +0.000 AC
DOCKED: ENDBRANCH  19  20
DOCKED: ENDBRANCH  18  19
DOCKED: ENDBRANCH   1  18
DOCKED: TORSDOF 7DOCKED: TER
DOCKED: ENDMDL
________________________________________________________________________________


	BEGINNING GENETIC ALGORITHM DOCKING 71 of 100
Run: 71 Seed: 1857352395 410427768 [ Run 71 of 100 GA/GALS ]
Beginning LAMARCKIAN GENETIC ALGORITHM (LGA), with a maximum of 2500000 energy evaluations.

Final-Value: -15.156


	FINAL GENETIC ALGORITHM DOCKED STATE
	_______________________________________________


Detailed state:  trans 37.109 17.410 124.508 quatxyzw -0.392488 0.482569 -0.564471 -0.542635 center 0.576 -0.005 0.140 ntor 7 173.6339 -42.4177 168.6985 -126.0669 179.6583 -19.5317 135.0375
State:	 37.109  17.410 124.508  -0.467  0.575 -0.672 -114.274    173.63  -42.42  168.70 -126.07  179.66  -19.53  135.04

DOCKED: MODEL       71
DOCKED: USER    Run = 71
DOCKED: USER    DPF = ligand_dock.biased.dpf
DOCKED: USER  
DOCKED: USER    Estimated Free Energy of Binding    =  -11.33 kcal/mol  [=(1)+(2)+(3)-(4)]
DOCKED: USER    Estimated Inhibition Constant, Ki   =    4.96 nM (nanomolar)  [Temperature = 298.15 K]
DOCKED: USER    
DOCKED: USER    (1) Final Intermolecular Energy     =  -13.42 kcal/mol
DOCKED: USER        vdW + Hbond + desolv Energy     =  -13.42 kcal/mol
DOCKED: USER        Electrostatic Energy            =   +0.00 kcal/mol
DOCKED: USER    (2) Final Total Internal Energy     =   -1.74 kcal/mol
DOCKED: USER    (3) Torsional Free Energy           =   +2.09 kcal/mol
DOCKED: USER    (4) Unbound System's Energy  [=(2)] =   -1.74 kcal/mol
DOCKED: USER    
DOCKED: USER    
DOCKED: USER    NEWDPF move ligand.dum.pdbqt
DOCKED: USER    NEWDPF about 0.576000 -0.005000 0.140000
DOCKED: USER    NEWDPF tran0 37.109105 17.410284 124.508134
DOCKED: USER    NEWDPF quaternion0 -0.392488 0.482569 -0.564471 -0.542635
DOCKED: USER    NEWDPF axisangle0 -0.467265 0.574509 -0.672015 -114.273659
DOCKED: USER    NEWDPF quat0 -0.467265 0.574509 -0.672015 -114.273659
DOCKED: USER    NEWDPF dihe0 173.63 -42.42 168.70 -126.07 179.66 -19.53 135.04 
DOCKED: USER  keepresnum = 1 
DOCKED: USER  
DOCKED: REMARK  Name = 
DOCKED: REMARK  8 active torsions:
DOCKED: REMARK  status: ('A' for Active; 'I' for Inactive)
DOCKED: REMARK    1  A    between atoms: C_2  and  C_3
DOCKED: REMARK    2  A    between atoms: C_4  and  C_5
DOCKED: REMARK    3  A    between atoms: C_8  and  C_9
DOCKED: REMARK    4  A    between atoms: C_9  and  N_10
DOCKED: REMARK    5  A    between atoms: N_10  and  C_11
DOCKED: REMARK    6  A    between atoms: C_11  and  C_12
DOCKED: REMARK    7  A    between atoms: C_12  and  C_13
DOCKED: REMARK    8  A    between atoms: C_14  and  C_22
DOCKED: REMARK                            x       y       z     vdW  Elec       q    Type
DOCKED: REMARK                         _______ _______ _______ _____ _____    ______ ____
DOCKED: USER                              x       y       z     vdW  Elec       q    Type
DOCKED: USER                           _______ _______ _______ _____ _____    ______ ____
DOCKED: ROOT
DOCKED: ATOM      1  N   UNL     1      37.506  18.083 124.517 -0.20 -0.00    +0.000 N 
DOCKED: ATOM      2  H   UNL     1      38.174  17.586 123.929 -0.01 -0.00    +0.000 HD
DOCKED: ATOM      3  H   UNL     1      37.718  17.962 125.508 -0.02 -0.00    +0.000 HD
DOCKED: ENDROOT
DOCKED: BRANCH   1   4
DOCKED: ATOM      4  C   UNL     1      36.165  17.536 124.276 -0.28 -0.00    +0.000 C 
DOCKED: BRANCH   4   8
DOCKED: ATOM      5  C   UNL     1      36.461  13.453 122.880 -0.47 -0.00    +0.000 A 
DOCKED: ATOM      6  C   UNL     1      35.371  13.862 123.675 -0.32 -0.00    +0.000 A 
DOCKED: ATOM      7  C   UNL     1      35.285  15.179 124.134 -0.49 -0.00    +0.000 A 
DOCKED: ATOM      8  C   UNL     1      36.283  16.111 123.813 -0.34 -0.00    +0.000 A 
DOCKED: ATOM      9  C   UNL     1      37.351  15.717 122.994 -0.31 -0.00    +0.000 A 
DOCKED: ATOM     10  C   UNL     1      37.439  14.401 122.533 -0.40 -0.00    +0.000 A 
DOCKED: ATOM     11  CM  UNL     1      36.365  14.787 123.338 +0.00 -0.00    +0.000 AC
DOCKED: BRANCH   5  12
DOCKED: ATOM     12  C   UNL     1      36.770  10.993 123.135 -0.68 -0.00    +0.000 C 
DOCKED: ATOM     13  C   UNL     1      36.596  12.071 122.355 -0.61 -0.00    +0.000 C 
DOCKED: BRANCH  11  14
DOCKED: ATOM     14  O   UNL     1      37.055   9.466 121.366 -2.38 -0.00    +0.000 OA
DOCKED: ATOM     15  C   UNL     1      36.906   9.621 122.608 -0.65 -0.00    +0.000 C 
DOCKED: ATOM     16  N   UNL     1      36.847   8.464 123.452 -0.67 -0.00    +0.000 N 
DOCKED: ATOM     17  O   UNL     1      37.081   7.235 122.937 -2.08 -0.00    +0.000 OA
DOCKED: ATOM     18  H   UNL     1      36.635   8.565 124.408 -0.36 -0.00    +0.000 HD
DOCKED: ENDBRANCH  11  14
DOCKED: ENDBRANCH   5  12
DOCKED: ENDBRANCH   4   8
DOCKED: ENDBRANCH   1   4
DOCKED: BRANCH   1  18
DOCKED: ATOM     19  C   UNL     1      37.587  19.520 124.214 -0.12 -0.00    +0.000 C 
DOCKED: BRANCH  18  19
DOCKED: ATOM     20  C   UNL     1      39.000  19.955 123.791 -0.07 -0.00    +0.000 C 
DOCKED: BRANCH  19  20
DOCKED: ATOM     21  C   UNL     1      39.959  18.805 123.911 -0.15 -0.00    +0.000 A 
DOCKED: ATOM     22  C   UNL     1      40.874  18.567 124.938 -0.27 -0.00    +0.000 A 
DOCKED: ATOM     23  N   UNL     1      41.619  17.468 124.670 -0.33 -0.00    +0.000 N 
DOCKED: ATOM     24  C   UNL     1      41.199  17.022 123.473 -0.32 -0.00    +0.000 A 
DOCKED: ATOM     25  C   UNL     1      40.193  17.814 122.976 -0.17 -0.00    +0.000 A 
DOCKED: ATOM     26  C   UNL     1      39.610  17.564 121.733 -0.10 -0.00    +0.000 A 
DOCKED: ATOM     27  C   UNL     1      40.079  16.460 120.998 -0.16 -0.00    +0.000 A 
DOCKED: ATOM     28  C   UNL     1      41.109  15.642 121.513 -0.29 -0.00    +0.000 A 
DOCKED: ATOM     29  C   UNL     1      41.683  15.922 122.766 -0.42 -0.00    +0.000 A 
DOCKED: ATOM     30  C   UNL     1      41.024  19.386 126.180 -0.24 -0.00    +0.000 C 
DOCKED: ATOM     31  H   UNL     1      42.324  17.077 125.235 -0.54 -0.00    +0.000 HD
DOCKED: ATOM     32  CM  UNL     1      40.796  17.920 124.015 +0.00 -0.00    +0.000 AC
DOCKED: ATOM     33  CM  UNL     1      40.645  16.737 122.243 +0.00 -0.00    +0.000 AC
DOCKED: ENDBRANCH  19  20
DOCKED: ENDBRANCH  18  19
DOCKED: ENDBRANCH   1  18
DOCKED: TORSDOF 7DOCKED: TER
DOCKED: ENDMDL
________________________________________________________________________________


	BEGINNING GENETIC ALGORITHM DOCKING 72 of 100
Run: 72 Seed: 1994552514 539833126 [ Run 72 of 100 GA/GALS ]
Beginning LAMARCKIAN GENETIC ALGORITHM (LGA), with a maximum of 2500000 energy evaluations.

Final-Value: -14.570


	FINAL GENETIC ALGORITHM DOCKED STATE
	_______________________________________________


Detailed state:  trans 36.733 17.607 123.608 quatxyzw 0.132295 0.238137 0.009114 0.962136 center 0.576 -0.005 0.140 ntor 7 156.7841 -169.9772 152.9907 -142.6242 -44.1786 110.7978 -123.6317
State:	 36.733  17.607 123.608   0.485  0.874  0.033 31.634    156.78 -169.98  152.99 -142.62  -44.18  110.80 -123.63

DOCKED: MODEL       72
DOCKED: USER    Run = 72
DOCKED: USER    DPF = ligand_dock.biased.dpf
DOCKED: USER  
DOCKED: USER    Estimated Free Energy of Binding    =  -10.98 kcal/mol  [=(1)+(2)+(3)-(4)]
DOCKED: USER    Estimated Inhibition Constant, Ki   =    8.98 nM (nanomolar)  [Temperature = 298.15 K]
DOCKED: USER    
DOCKED: USER    (1) Final Intermolecular Energy     =  -13.07 kcal/mol
DOCKED: USER        vdW + Hbond + desolv Energy     =  -13.07 kcal/mol
DOCKED: USER        Electrostatic Energy            =   +0.00 kcal/mol
DOCKED: USER    (2) Final Total Internal Energy     =   -1.50 kcal/mol
DOCKED: USER    (3) Torsional Free Energy           =   +2.09 kcal/mol
DOCKED: USER    (4) Unbound System's Energy  [=(2)] =   -1.50 kcal/mol
DOCKED: USER    
DOCKED: USER    
DOCKED: USER    NEWDPF move ligand.dum.pdbqt
DOCKED: USER    NEWDPF about 0.576000 -0.005000 0.140000
DOCKED: USER    NEWDPF tran0 36.732911 17.606620 123.607684
DOCKED: USER    NEWDPF quaternion0 0.132295 0.238137 0.009114 0.962136
DOCKED: USER    NEWDPF axisangle0 0.485360 0.873675 0.033437 31.634497
DOCKED: USER    NEWDPF quat0 0.485360 0.873675 0.033437 31.634497
DOCKED: USER    NEWDPF dihe0 156.78 -169.98 152.99 -142.62 -44.18 110.80 -123.63 
DOCKED: USER  keepresnum = 1 
DOCKED: USER  
DOCKED: REMARK  Name = 
DOCKED: REMARK  8 active torsions:
DOCKED: REMARK  status: ('A' for Active; 'I' for Inactive)
DOCKED: REMARK    1  A    between atoms: C_2  and  C_3
DOCKED: REMARK    2  A    between atoms: C_4  and  C_5
DOCKED: REMARK    3  A    between atoms: C_8  and  C_9
DOCKED: REMARK    4  A    between atoms: C_9  and  N_10
DOCKED: REMARK    5  A    between atoms: N_10  and  C_11
DOCKED: REMARK    6  A    between atoms: C_11  and  C_12
DOCKED: REMARK    7  A    between atoms: C_12  and  C_13
DOCKED: REMARK    8  A    between atoms: C_14  and  C_22
DOCKED: REMARK                            x       y       z     vdW  Elec       q    Type
DOCKED: REMARK                         _______ _______ _______ _____ _____    ______ ____
DOCKED: USER                              x       y       z     vdW  Elec       q    Type
DOCKED: USER                           _______ _______ _______ _____ _____    ______ ____
DOCKED: ROOT
DOCKED: ATOM      1  N   UNL     1      35.975  17.770 123.511 -0.23 -0.00    +0.000 N 
DOCKED: ATOM      2  H   UNL     1      36.189  18.615 124.041 +0.00 -0.00    +0.000 HD
DOCKED: ATOM      3  H   UNL     1      35.716  16.999 124.127 -0.01 -0.00    +0.000 HD
DOCKED: ENDROOT
DOCKED: BRANCH   1   4
DOCKED: ATOM      4  C   UNL     1      37.173  17.364 122.766 -0.21 -0.00    +0.000 C 
DOCKED: BRANCH   4   8
DOCKED: ATOM      5  C   UNL     1      37.020  13.134 121.879 -0.43 -0.00    +0.000 A 
DOCKED: ATOM      6  C   UNL     1      37.309  14.069 120.864 -0.31 -0.00    +0.000 A 
DOCKED: ATOM      7  C   UNL     1      37.345  15.436 121.152 -0.22 -0.00    +0.000 A 
DOCKED: ATOM      8  C   UNL     1      37.093  15.896 122.452 -0.26 -0.00    +0.000 A 
DOCKED: ATOM      9  C   UNL     1      36.838  14.966 123.471 -0.38 -0.00    +0.000 A 
DOCKED: ATOM     10  C   UNL     1      36.802  13.599 123.186 -0.50 -0.00    +0.000 A 
DOCKED: ATOM     11  CM  UNL     1      37.068  14.517 122.168 +0.00 -0.00    +0.000 AC
DOCKED: BRANCH   5  12
DOCKED: ATOM     12  C   UNL     1      36.954  10.751 122.609 -0.60 -0.00    +0.000 C 
DOCKED: ATOM     13  C   UNL     1      36.980  11.671 121.631 -0.56 -0.00    +0.000 C 
DOCKED: BRANCH  11  14
DOCKED: ATOM     14  O   UNL     1      36.782   8.896 121.169 -2.64 -0.00    +0.000 OA
DOCKED: ATOM     15  C   UNL     1      36.916   9.297 122.356 -0.67 -0.00    +0.000 C 
DOCKED: ATOM     16  N   UNL     1      36.999   8.332 123.413 -0.70 -0.00    +0.000 N 
DOCKED: ATOM     17  O   UNL     1      37.066   7.012 123.123 -1.97 -0.00    +0.000 OA
DOCKED: ATOM     18  H   UNL     1      37.007   8.631 124.351 -0.49 -0.00    +0.000 HD
DOCKED: ENDBRANCH  11  14
DOCKED: ENDBRANCH   5  12
DOCKED: ENDBRANCH   4   8
DOCKED: ENDBRANCH   1   4
DOCKED: BRANCH   1  18
DOCKED: ATOM     19  C   UNL     1      34.832  18.043 122.628 -0.34 -0.00    +0.000 C 
DOCKED: BRANCH  18  19
DOCKED: ATOM     20  C   UNL     1      35.189  19.001 121.480 -0.18 -0.00    +0.000 C 
DOCKED: BRANCH  19  20
DOCKED: ATOM     21  C   UNL     1      34.706  18.451 120.169 -0.25 -0.00    +0.000 A 
DOCKED: ATOM     22  C   UNL     1      35.480  18.069 119.072 -0.14 -0.00    +0.000 A 
DOCKED: ATOM     23  N   UNL     1      34.692  17.685 118.040 -0.14 -0.00    +0.000 N 
DOCKED: ATOM     24  C   UNL     1      33.427  17.841 118.466 -0.15 -0.00    +0.000 A 
DOCKED: ATOM     25  C   UNL     1      33.394  18.312 119.755 -0.28 -0.00    +0.000 A 
DOCKED: ATOM     26  C   UNL     1      32.189  18.577 120.408 -0.42 -0.00    +0.000 A 
DOCKED: ATOM     27  C   UNL     1      30.995  18.336 119.707 -0.44 -0.00    +0.000 A 
DOCKED: ATOM     28  C   UNL     1      31.029  17.846 118.382 -0.28 -0.00    +0.000 A 
DOCKED: ATOM     29  C   UNL     1      32.258  17.594 117.747 -0.17 -0.00    +0.000 A 
DOCKED: ATOM     30  C   UNL     1      36.975  18.061 119.020 -0.08 -0.00    +0.000 C 
DOCKED: ATOM     31  H   UNL     1      34.986  17.359 117.159 +0.00 -0.00    +0.000 HD
DOCKED: ATOM     32  CM  UNL     1      34.351  18.059 119.066 +0.00 -0.00    +0.000 AC
DOCKED: ATOM     33  CM  UNL     1      32.215  18.084 119.078 +0.00 -0.00    +0.000 AC
DOCKED: ENDBRANCH  19  20
DOCKED: ENDBRANCH  18  19
DOCKED: ENDBRANCH   1  18
DOCKED: TORSDOF 7DOCKED: TER
DOCKED: ENDMDL
________________________________________________________________________________


	BEGINNING GENETIC ALGORITHM DOCKING 73 of 100
Run: 73 Seed: 1632976349 1000723473 [ Run 73 of 100 GA/GALS ]
Beginning LAMARCKIAN GENETIC ALGORITHM (LGA), with a maximum of 2500000 energy evaluations.

Final-Value: -15.119


	FINAL GENETIC ALGORITHM DOCKED STATE
	_______________________________________________


Detailed state:  trans 35.418 17.300 122.174 quatxyzw 0.419146 -0.775606 -0.109660 -0.459049 center 0.576 -0.005 0.140 ntor 7 -23.6044 158.4056 -172.0963 -5.7903 149.8481 37.0102 36.9575
State:	 35.418  17.300 122.174   0.472 -0.873 -0.123 -125.348    -23.60  158.41 -172.10   -5.79  149.85   37.01   36.96

DOCKED: MODEL       73
DOCKED: USER    Run = 73
DOCKED: USER    DPF = ligand_dock.biased.dpf
DOCKED: USER  
DOCKED: USER    Estimated Free Energy of Binding    =  -10.82 kcal/mol  [=(1)+(2)+(3)-(4)]
DOCKED: USER    Estimated Inhibition Constant, Ki   =   11.64 nM (nanomolar)  [Temperature = 298.15 K]
DOCKED: USER    
DOCKED: USER    (1) Final Intermolecular Energy     =  -12.91 kcal/mol
DOCKED: USER        vdW + Hbond + desolv Energy     =  -12.91 kcal/mol
DOCKED: USER        Electrostatic Energy            =   +0.00 kcal/mol
DOCKED: USER    (2) Final Total Internal Energy     =   -2.21 kcal/mol
DOCKED: USER    (3) Torsional Free Energy           =   +2.09 kcal/mol
DOCKED: USER    (4) Unbound System's Energy  [=(2)] =   -2.21 kcal/mol
DOCKED: USER    
DOCKED: USER    
DOCKED: USER    NEWDPF move ligand.dum.pdbqt
DOCKED: USER    NEWDPF about 0.576000 -0.005000 0.140000
DOCKED: USER    NEWDPF tran0 35.417683 17.299674 122.174183
DOCKED: USER    NEWDPF quaternion0 0.419146 -0.775606 -0.109660 -0.459049
DOCKED: USER    NEWDPF axisangle0 0.471793 -0.873027 -0.123434 -125.348426
DOCKED: USER    NEWDPF quat0 0.471793 -0.873027 -0.123434 -125.348426
DOCKED: USER    NEWDPF dihe0 -23.60 158.41 -172.10 -5.79 149.85 37.01 36.96 
DOCKED: USER  keepresnum = 1 
DOCKED: USER  
DOCKED: REMARK  Name = 
DOCKED: REMARK  8 active torsions:
DOCKED: REMARK  status: ('A' for Active; 'I' for Inactive)
DOCKED: REMARK    1  A    between atoms: C_2  and  C_3
DOCKED: REMARK    2  A    between atoms: C_4  and  C_5
DOCKED: REMARK    3  A    between atoms: C_8  and  C_9
DOCKED: REMARK    4  A    between atoms: C_9  and  N_10
DOCKED: REMARK    5  A    between atoms: N_10  and  C_11
DOCKED: REMARK    6  A    between atoms: C_11  and  C_12
DOCKED: REMARK    7  A    between atoms: C_12  and  C_13
DOCKED: REMARK    8  A    between atoms: C_14  and  C_22
DOCKED: REMARK                            x       y       z     vdW  Elec       q    Type
DOCKED: REMARK                         _______ _______ _______ _____ _____    ______ ____
DOCKED: USER                              x       y       z     vdW  Elec       q    Type
DOCKED: USER                           _______ _______ _______ _____ _____    ______ ____
DOCKED: ROOT
DOCKED: ATOM      1  N   UNL     1      35.266  17.842 121.632 -0.27 -0.00    +0.000 N 
DOCKED: ATOM      2  H   UNL     1      34.314  17.802 121.996 -0.02 -0.00    +0.000 HD
DOCKED: ATOM      3  H   UNL     1      35.411  17.159 120.888 -0.01 -0.00    +0.000 HD
DOCKED: ENDROOT
DOCKED: BRANCH   1   4
DOCKED: ATOM      4  C   UNL     1      36.201  17.524 122.719 -0.25 -0.00    +0.000 C 
DOCKED: BRANCH   4   8
DOCKED: ATOM      5  C   UNL     1      36.481  13.222 123.064 -0.52 -0.00    +0.000 A 
DOCKED: ATOM      6  C   UNL     1      35.556  13.945 123.844 -0.47 -0.00    +0.000 A 
DOCKED: ATOM      7  C   UNL     1      35.476  15.337 123.738 -0.46 -0.00    +0.000 A 
DOCKED: ATOM      8  C   UNL     1      36.318  16.032 122.858 -0.31 -0.00    +0.000 A 
DOCKED: ATOM      9  C   UNL     1      37.216  15.313 122.056 -0.28 -0.00    +0.000 A 
DOCKED: ATOM     10  C   UNL     1      37.297  13.922 122.159 -0.41 -0.00    +0.000 A 
DOCKED: ATOM     11  CM  UNL     1      36.391  14.629 122.953 +0.00 -0.00    +0.000 AC
DOCKED: BRANCH   5  12
DOCKED: ATOM     12  C   UNL     1      36.710  10.959 122.044 -0.62 -0.00    +0.000 C 
DOCKED: ATOM     13  C   UNL     1      36.600  11.744 123.127 -0.69 -0.00    +0.000 C 
DOCKED: BRANCH  11  14
DOCKED: ATOM     14  O   UNL     1      36.791   8.832 121.038 -2.63 -0.00    +0.000 OA
DOCKED: ATOM     15  C   UNL     1      36.825   9.489 122.113 -0.67 -0.00    +0.000 C 
DOCKED: ATOM     16  N   UNL     1      36.947   8.786 123.356 -0.64 -0.00    +0.000 N 
DOCKED: ATOM     17  O   UNL     1      37.155   7.449 123.362 -2.44 -0.00    +0.000 OA
DOCKED: ATOM     18  H   UNL     1      36.879   9.277 124.206 -0.54 -0.00    +0.000 HD
DOCKED: ENDBRANCH  11  14
DOCKED: ENDBRANCH   5  12
DOCKED: ENDBRANCH   4   8
DOCKED: ENDBRANCH   1   4
DOCKED: BRANCH   1  18
DOCKED: ATOM     19  C   UNL     1      35.500  19.179 121.066 -0.15 -0.00    +0.000 C 
DOCKED: BRANCH  18  19
DOCKED: ATOM     20  C   UNL     1      36.079  19.123 119.642 -0.14 -0.00    +0.000 C 
DOCKED: BRANCH  19  20
DOCKED: ATOM     21  C   UNL     1      36.995  17.942 119.495 -0.08 -0.00    +0.000 A 
DOCKED: ATOM     22  C   UNL     1      38.332  17.853 119.886 -0.04 -0.00    +0.000 A 
DOCKED: ATOM     23  N   UNL     1      38.856  16.656 119.531 -0.10 -0.00    +0.000 N 
DOCKED: ATOM     24  C   UNL     1      37.869  15.996 118.900 -0.14 -0.00    +0.000 A 
DOCKED: ATOM     25  C   UNL     1      36.722  16.749 118.853 -0.12 -0.00    +0.000 A 
DOCKED: ATOM     26  C   UNL     1      35.565  16.284 118.226 -0.13 -0.00    +0.000 A 
DOCKED: ATOM     27  C   UNL     1      35.602  15.004 117.644 -0.23 -0.00    +0.000 A 
DOCKED: ATOM     28  C   UNL     1      36.781  14.227 117.699 -0.32 -0.00    +0.000 A 
DOCKED: ATOM     29  C   UNL     1      37.934  14.724 118.331 -0.22 -0.00    +0.000 A 
DOCKED: ATOM     30  C   UNL     1      39.102  18.911 120.610 -0.03 -0.00    +0.000 C 
DOCKED: ATOM     31  H   UNL     1      39.771  16.335 119.699 -0.00 -0.00    +0.000 HD
DOCKED: ATOM     32  CM  UNL     1      37.790  17.027 119.340 +0.00 -0.00    +0.000 AC
DOCKED: ATOM     33  CM  UNL     1      36.745  15.497 118.276 +0.00 -0.00    +0.000 AC
DOCKED: ENDBRANCH  19  20
DOCKED: ENDBRANCH  18  19
DOCKED: ENDBRANCH   1  18
DOCKED: TORSDOF 7DOCKED: TER
DOCKED: ENDMDL
________________________________________________________________________________


	BEGINNING GENETIC ALGORITHM DOCKING 74 of 100
Run: 74 Seed: 1251640448 1087692184 [ Run 74 of 100 GA/GALS ]
Beginning LAMARCKIAN GENETIC ALGORITHM (LGA), with a maximum of 2500000 energy evaluations.

Final-Value: -15.022


	FINAL GENETIC ALGORITHM DOCKED STATE
	_______________________________________________


Detailed state:  trans 36.491 17.656 123.626 quatxyzw 0.199548 -0.176216 0.712694 0.648996 center 0.576 -0.005 0.140 ntor 7 0.0004 170.5633 177.2122 150.9049 -177.3354 -13.5596 -176.2374
State:	 36.491  17.656 123.626   0.262 -0.232  0.937 99.068      0.00  170.56  177.21  150.90 -177.34  -13.56 -176.24

DOCKED: MODEL       74
DOCKED: USER    Run = 74
DOCKED: USER    DPF = ligand_dock.biased.dpf
DOCKED: USER  
DOCKED: USER    Estimated Free Energy of Binding    =  -10.84 kcal/mol  [=(1)+(2)+(3)-(4)]
DOCKED: USER    Estimated Inhibition Constant, Ki   =   11.38 nM (nanomolar)  [Temperature = 298.15 K]
DOCKED: USER    
DOCKED: USER    (1) Final Intermolecular Energy     =  -12.93 kcal/mol
DOCKED: USER        vdW + Hbond + desolv Energy     =  -12.93 kcal/mol
DOCKED: USER        Electrostatic Energy            =   +0.00 kcal/mol
DOCKED: USER    (2) Final Total Internal Energy     =   -2.10 kcal/mol
DOCKED: USER    (3) Torsional Free Energy           =   +2.09 kcal/mol
DOCKED: USER    (4) Unbound System's Energy  [=(2)] =   -2.10 kcal/mol
DOCKED: USER    
DOCKED: USER    
DOCKED: USER    NEWDPF move ligand.dum.pdbqt
DOCKED: USER    NEWDPF about 0.576000 -0.005000 0.140000
DOCKED: USER    NEWDPF tran0 36.490573 17.656012 123.625541
DOCKED: USER    NEWDPF quaternion0 0.199548 -0.176216 0.712694 0.648996
DOCKED: USER    NEWDPF axisangle0 0.262290 -0.231622 0.936779 99.068180
DOCKED: USER    NEWDPF quat0 0.262290 -0.231622 0.936779 99.068180
DOCKED: USER    NEWDPF dihe0 0.00 170.56 177.21 150.90 -177.34 -13.56 -176.24 
DOCKED: USER  keepresnum = 1 
DOCKED: USER  
DOCKED: REMARK  Name = 
DOCKED: REMARK  8 active torsions:
DOCKED: REMARK  status: ('A' for Active; 'I' for Inactive)
DOCKED: REMARK    1  A    between atoms: C_2  and  C_3
DOCKED: REMARK    2  A    between atoms: C_4  and  C_5
DOCKED: REMARK    3  A    between atoms: C_8  and  C_9
DOCKED: REMARK    4  A    between atoms: C_9  and  N_10
DOCKED: REMARK    5  A    between atoms: N_10  and  C_11
DOCKED: REMARK    6  A    between atoms: C_11  and  C_12
DOCKED: REMARK    7  A    between atoms: C_12  and  C_13
DOCKED: REMARK    8  A    between atoms: C_14  and  C_22
DOCKED: REMARK                            x       y       z     vdW  Elec       q    Type
DOCKED: REMARK                         _______ _______ _______ _____ _____    ______ ____
DOCKED: USER                              x       y       z     vdW  Elec       q    Type
DOCKED: USER                           _______ _______ _______ _____ _____    ______ ____
DOCKED: ROOT
DOCKED: ATOM      1  N   UNL     1      36.806  18.353 123.787 -0.17 -0.00    +0.000 N 
DOCKED: ATOM      2  H   UNL     1      37.661  17.820 123.947 -0.01 -0.00    +0.000 HD
DOCKED: ATOM      3  H   UNL     1      36.247  18.425 124.637 -0.00 -0.00    +0.000 HD
DOCKED: ENDROOT
DOCKED: BRANCH   1   4
DOCKED: ATOM      4  C   UNL     1      35.999  17.656 122.778 -0.26 -0.00    +0.000 C 
DOCKED: BRANCH   4   8
DOCKED: ATOM      5  C   UNL     1      36.532  13.377 123.115 -0.51 -0.00    +0.000 A 
DOCKED: ATOM      6  C   UNL     1      35.953  14.112 124.169 -0.42 -0.00    +0.000 A 
DOCKED: ATOM      7  C   UNL     1      35.793  15.497 124.061 -0.40 -0.00    +0.000 A 
DOCKED: ATOM      8  C   UNL     1      36.209  16.173 122.905 -0.30 -0.00    +0.000 A 
DOCKED: ATOM      9  C   UNL     1      36.755  15.440 121.841 -0.23 -0.00    +0.000 A 
DOCKED: ATOM     10  C   UNL     1      36.914  14.056 121.946 -0.31 -0.00    +0.000 A 
DOCKED: ATOM     11  CM  UNL     1      36.359  14.776 123.006 +0.00 -0.00    +0.000 AC
DOCKED: BRANCH   5  12
DOCKED: ATOM     12  C   UNL     1      36.654  11.106 122.094 -0.63 -0.00    +0.000 C 
DOCKED: ATOM     13  C   UNL     1      36.714  11.905 123.171 -0.68 -0.00    +0.000 C 
DOCKED: BRANCH  11  14
DOCKED: ATOM     14  O   UNL     1      37.077   9.021 121.088 -2.70 -0.00    +0.000 OA
DOCKED: ATOM     15  C   UNL     1      36.834   9.642 122.156 -0.66 -0.00    +0.000 C 
DOCKED: ATOM     16  N   UNL     1      36.714   8.905 123.380 -0.60 -0.00    +0.000 N 
DOCKED: ATOM     17  O   UNL     1      36.991   7.581 123.404 -2.54 -0.00    +0.000 OA
DOCKED: ATOM     18  H   UNL     1      36.430   9.364 124.203 -0.39 -0.00    +0.000 HD
DOCKED: ENDBRANCH  11  14
DOCKED: ENDBRANCH   5  12
DOCKED: ENDBRANCH   4   8
DOCKED: ENDBRANCH   1   4
DOCKED: BRANCH   1  18
DOCKED: ATOM     19  C   UNL     1      37.169  19.715 123.370 -0.13 -0.00    +0.000 C 
DOCKED: BRANCH  18  19
DOCKED: ATOM     20  C   UNL     1      38.627  19.818 122.895 -0.06 -0.00    +0.000 C 
DOCKED: BRANCH  19  20
DOCKED: ATOM     21  C   UNL     1      39.314  18.490 123.022 -0.11 -0.00    +0.000 A 
DOCKED: ATOM     22  C   UNL     1      40.057  18.019 124.106 -0.23 -0.00    +0.000 A 
DOCKED: ATOM     23  N   UNL     1      40.584  16.802 123.833 -0.24 -0.00    +0.000 N 
DOCKED: ATOM     24  C   UNL     1      40.199  16.507 122.579 -0.26 -0.00    +0.000 A 
DOCKED: ATOM     25  C   UNL     1      39.430  17.514 122.049 -0.12 -0.00    +0.000 A 
DOCKED: ATOM     26  C   UNL     1      38.931  17.447 120.748 -0.07 -0.00    +0.000 A 
DOCKED: ATOM     27  C   UNL     1      39.232  16.304 119.987 -0.13 -0.00    +0.000 A 
DOCKED: ATOM     28  C   UNL     1      40.019  15.266 120.534 -0.15 -0.00    +0.000 A 
DOCKED: ATOM     29  C   UNL     1      40.514  15.363 121.847 -0.34 -0.00    +0.000 A 
DOCKED: ATOM     30  C   UNL     1      40.251  18.732 125.406 -0.27 -0.00    +0.000 C 
DOCKED: ATOM     31  H   UNL     1      41.136  16.247 124.430 +0.00 +0.00    +0.000 HD
DOCKED: ATOM     32  CM  UNL     1      39.938  17.445 123.141 +0.00 -0.00    +0.000 AC
DOCKED: ATOM     33  CM  UNL     1      39.720  16.400 121.290 +0.00 -0.00    +0.000 AC
DOCKED: ENDBRANCH  19  20
DOCKED: ENDBRANCH  18  19
DOCKED: ENDBRANCH   1  18
DOCKED: TORSDOF 7DOCKED: TER
DOCKED: ENDMDL
________________________________________________________________________________


	BEGINNING GENETIC ALGORITHM DOCKING 75 of 100
Run: 75 Seed: 938231319 918465741 [ Run 75 of 100 GA/GALS ]
Beginning LAMARCKIAN GENETIC ALGORITHM (LGA), with a maximum of 2500000 energy evaluations.

Final-Value: -16.061


	FINAL GENETIC ALGORITHM DOCKED STATE
	_______________________________________________


Detailed state:  trans 37.764 17.417 123.698 quatxyzw 0.047270 -0.142094 0.531910 0.833455 center 0.576 -0.005 0.140 ntor 7 -37.5183 176.6085 166.5427 133.2588 -155.0373 30.9758 3.2056
State:	 37.764  17.417 123.698   0.086 -0.257  0.963 67.089    -37.52  176.61  166.54  133.26 -155.04   30.98    3.21

DOCKED: MODEL       75
DOCKED: USER    Run = 75
DOCKED: USER    DPF = ligand_dock.biased.dpf
DOCKED: USER  
DOCKED: USER    Estimated Free Energy of Binding    =  -12.20 kcal/mol  [=(1)+(2)+(3)-(4)]
DOCKED: USER    Estimated Inhibition Constant, Ki   =    1.13 nM (nanomolar)  [Temperature = 298.15 K]
DOCKED: USER    
DOCKED: USER    (1) Final Intermolecular Energy     =  -14.29 kcal/mol
DOCKED: USER        vdW + Hbond + desolv Energy     =  -14.29 kcal/mol
DOCKED: USER        Electrostatic Energy            =   +0.00 kcal/mol
DOCKED: USER    (2) Final Total Internal Energy     =   -1.77 kcal/mol
DOCKED: USER    (3) Torsional Free Energy           =   +2.09 kcal/mol
DOCKED: USER    (4) Unbound System's Energy  [=(2)] =   -1.77 kcal/mol
DOCKED: USER    
DOCKED: USER    
DOCKED: USER    NEWDPF move ligand.dum.pdbqt
DOCKED: USER    NEWDPF about 0.576000 -0.005000 0.140000
DOCKED: USER    NEWDPF tran0 37.764321 17.417065 123.697762
DOCKED: USER    NEWDPF quaternion0 0.047270 -0.142094 0.531910 0.833455
DOCKED: USER    NEWDPF axisangle0 0.085544 -0.257142 0.962580 67.089428
DOCKED: USER    NEWDPF quat0 0.085544 -0.257142 0.962580 67.089428
DOCKED: USER    NEWDPF dihe0 -37.52 176.61 166.54 133.26 -155.04 30.98 3.21 
DOCKED: USER  keepresnum = 1 
DOCKED: USER  
DOCKED: REMARK  Name = 
DOCKED: REMARK  8 active torsions:
DOCKED: REMARK  status: ('A' for Active; 'I' for Inactive)
DOCKED: REMARK    1  A    between atoms: C_2  and  C_3
DOCKED: REMARK    2  A    between atoms: C_4  and  C_5
DOCKED: REMARK    3  A    between atoms: C_8  and  C_9
DOCKED: REMARK    4  A    between atoms: C_9  and  N_10
DOCKED: REMARK    5  A    between atoms: N_10  and  C_11
DOCKED: REMARK    6  A    between atoms: C_11  and  C_12
DOCKED: REMARK    7  A    between atoms: C_12  and  C_13
DOCKED: REMARK    8  A    between atoms: C_14  and  C_22
DOCKED: REMARK                            x       y       z     vdW  Elec       q    Type
DOCKED: REMARK                         _______ _______ _______ _____ _____    ______ ____
DOCKED: USER                              x       y       z     vdW  Elec       q    Type
DOCKED: USER                           _______ _______ _______ _____ _____    ______ ____
DOCKED: ROOT
DOCKED: ATOM      1  N   UNL     1      37.679  18.085 124.094 -0.19 -0.00    +0.000 N 
DOCKED: ATOM      2  H   UNL     1      38.640  17.920 124.392 -0.01 -0.00    +0.000 HD
DOCKED: ATOM      3  H   UNL     1      37.011  17.641 124.725 -0.01 -0.00    +0.000 HD
DOCKED: ENDROOT
DOCKED: BRANCH   1   4
DOCKED: ATOM      4  C   UNL     1      37.490  17.501 122.761 -0.19 -0.00    +0.000 C 
DOCKED: BRANCH   4   8
DOCKED: ATOM      5  C   UNL     1      37.004  13.214 123.064 -0.52 -0.00    +0.000 A 
DOCKED: ATOM      6  C   UNL     1      36.304  14.078 123.930 -0.41 -0.00    +0.000 A 
DOCKED: ATOM      7  C   UNL     1      36.472  15.463 123.837 -0.35 -0.00    +0.000 A 
DOCKED: ATOM      8  C   UNL     1      37.342  16.010 122.884 -0.28 -0.00    +0.000 A 
DOCKED: ATOM      9  C   UNL     1      38.015  15.155 121.998 -0.30 -0.00    +0.000 A 
DOCKED: ATOM     10  C   UNL     1      37.847  13.772 122.089 -0.42 -0.00    +0.000 A 
DOCKED: ATOM     11  CM  UNL     1      37.164  14.616 122.967 +0.00 -0.00    +0.000 AC
DOCKED: BRANCH   5  12
DOCKED: ATOM     12  C   UNL     1      37.067  10.935 122.058 -0.54 -0.00    +0.000 C 
DOCKED: ATOM     13  C   UNL     1      36.854  11.738 123.111 -0.67 -0.00    +0.000 C 
DOCKED: BRANCH  11  14
DOCKED: ATOM     14  O   UNL     1      36.741   8.842 121.030 -2.63 -0.00    +0.000 OA
DOCKED: ATOM     15  C   UNL     1      36.913   9.467 122.110 -0.65 -0.00    +0.000 C 
DOCKED: ATOM     16  N   UNL     1      36.927   8.737 123.344 -0.65 -0.00    +0.000 N 
DOCKED: ATOM     17  O   UNL     1      36.888   7.384 123.332 -2.33 -0.00    +0.000 OA
DOCKED: ATOM     18  H   UNL     1      36.965   9.221 124.200 -0.56 -0.00    +0.000 HD
DOCKED: ENDBRANCH  11  14
DOCKED: ENDBRANCH   5  12
DOCKED: ENDBRANCH   4   8
DOCKED: ENDBRANCH   1   4
DOCKED: BRANCH   1  18
DOCKED: ATOM     19  C   UNL     1      37.420  19.532 124.113 -0.13 -0.00    +0.000 C 
DOCKED: BRANCH  18  19
DOCKED: ATOM     20  C   UNL     1      35.919  19.864 124.084 -0.19 -0.00    +0.000 C 
DOCKED: BRANCH  19  20
DOCKED: ATOM     21  C   UNL     1      35.113  18.682 124.541 -0.25 -0.00    +0.000 A 
DOCKED: ATOM     22  C   UNL     1      34.390  17.791 123.747 -0.35 -0.00    +0.000 A 
DOCKED: ATOM     23  N   UNL     1      33.732  16.891 124.515 -0.36 -0.00    +0.000 N 
DOCKED: ATOM     24  C   UNL     1      34.015  17.217 125.788 -0.37 -0.00    +0.000 A 
DOCKED: ATOM     25  C   UNL     1      34.848  18.307 125.844 -0.26 -0.00    +0.000 A 
DOCKED: ATOM     26  C   UNL     1      35.264  18.849 127.061 -0.15 -0.00    +0.000 A 
DOCKED: ATOM     27  C   UNL     1      34.809  18.237 128.243 -0.14 -0.00    +0.000 A 
DOCKED: ATOM     28  C   UNL     1      33.957  17.112 128.184 -0.24 -0.00    +0.000 A 
DOCKED: ATOM     29  C   UNL     1      33.548  16.591 126.943 -0.36 -0.00    +0.000 A 
DOCKED: ATOM     30  C   UNL     1      34.340  17.796 122.252 -0.39 -0.00    +0.000 C 
DOCKED: ATOM     31  H   UNL     1      33.162  16.150 124.205 +0.03 -0.00    +0.000 HD
DOCKED: ATOM     32  CM  UNL     1      34.397  17.749 124.875 -0.40 -0.00    +0.000 AC
DOCKED: ATOM     33  CM  UNL     1      34.407  17.719 127.011 -0.03 -0.00    +0.000 AC
DOCKED: ENDBRANCH  19  20
DOCKED: ENDBRANCH  18  19
DOCKED: ENDBRANCH   1  18
DOCKED: TORSDOF 7DOCKED: TER
DOCKED: ENDMDL
________________________________________________________________________________


	BEGINNING GENETIC ALGORITHM DOCKING 76 of 100
Run: 76 Seed: 79011217 261436491 [ Run 76 of 100 GA/GALS ]
Beginning LAMARCKIAN GENETIC ALGORITHM (LGA), with a maximum of 2500000 energy evaluations.

Final-Value: -15.209


	FINAL GENETIC ALGORITHM DOCKED STATE
	_______________________________________________


Detailed state:  trans 35.311 18.274 123.169 quatxyzw 0.366042 0.533863 -0.066573 0.759323 center 0.576 -0.005 0.140 ntor 7 -22.1248 153.4200 -175.4173 37.7252 30.9112 129.4643 177.9629
State:	 35.311  18.274 123.169   0.563  0.820 -0.102 81.191    -22.12  153.42 -175.42   37.73   30.91  129.46  177.96

DOCKED: MODEL       76
DOCKED: USER    Run = 76
DOCKED: USER    DPF = ligand_dock.biased.dpf
DOCKED: USER  
DOCKED: USER    Estimated Free Energy of Binding    =  -12.04 kcal/mol  [=(1)+(2)+(3)-(4)]
DOCKED: USER    Estimated Inhibition Constant, Ki   =    1.49 nM (nanomolar)  [Temperature = 298.15 K]
DOCKED: USER    
DOCKED: USER    (1) Final Intermolecular Energy     =  -14.13 kcal/mol
DOCKED: USER        vdW + Hbond + desolv Energy     =  -14.13 kcal/mol
DOCKED: USER        Electrostatic Energy            =   +0.00 kcal/mol
DOCKED: USER    (2) Final Total Internal Energy     =   -1.08 kcal/mol
DOCKED: USER    (3) Torsional Free Energy           =   +2.09 kcal/mol
DOCKED: USER    (4) Unbound System's Energy  [=(2)] =   -1.08 kcal/mol
DOCKED: USER    
DOCKED: USER    
DOCKED: USER    NEWDPF move ligand.dum.pdbqt
DOCKED: USER    NEWDPF about 0.576000 -0.005000 0.140000
DOCKED: USER    NEWDPF tran0 35.310782 18.274211 123.168574
DOCKED: USER    NEWDPF quaternion0 0.366042 0.533863 -0.066573 0.759323
DOCKED: USER    NEWDPF axisangle0 0.562524 0.820427 -0.102308 81.190885
DOCKED: USER    NEWDPF quat0 0.562524 0.820427 -0.102308 81.190885
DOCKED: USER    NEWDPF dihe0 -22.12 153.42 -175.42 37.73 30.91 129.46 177.96 
DOCKED: USER  keepresnum = 1 
DOCKED: USER  
DOCKED: REMARK  Name = 
DOCKED: REMARK  8 active torsions:
DOCKED: REMARK  status: ('A' for Active; 'I' for Inactive)
DOCKED: REMARK    1  A    between atoms: C_2  and  C_3
DOCKED: REMARK    2  A    between atoms: C_4  and  C_5
DOCKED: REMARK    3  A    between atoms: C_8  and  C_9
DOCKED: REMARK    4  A    between atoms: C_9  and  N_10
DOCKED: REMARK    5  A    between atoms: N_10  and  C_11
DOCKED: REMARK    6  A    between atoms: C_11  and  C_12
DOCKED: REMARK    7  A    between atoms: C_12  and  C_13
DOCKED: REMARK    8  A    between atoms: C_14  and  C_22
DOCKED: REMARK                            x       y       z     vdW  Elec       q    Type
DOCKED: REMARK                         _______ _______ _______ _____ _____    ______ ____
DOCKED: USER                              x       y       z     vdW  Elec       q    Type
DOCKED: USER                           _______ _______ _______ _____ _____    ______ ____
DOCKED: ROOT
DOCKED: ATOM      1  N   UNL     1      34.784  18.161 122.602 -0.32 -0.00    +0.000 N 
DOCKED: ATOM      2  H   UNL     1      34.694  19.177 122.615 -0.00 -0.00    +0.000 HD
DOCKED: ATOM      3  H   UNL     1      34.145  17.721 123.264 -0.02 -0.00    +0.000 HD
DOCKED: ENDROOT
DOCKED: BRANCH   1   4
DOCKED: ATOM      4  C   UNL     1      36.153  17.803 122.995 -0.25 -0.00    +0.000 C 
DOCKED: BRANCH   4   8
DOCKED: ATOM      5  C   UNL     1      36.451  13.493 123.190 -0.51 -0.00    +0.000 A 
DOCKED: ATOM      6  C   UNL     1      35.397  14.168 123.837 -0.45 -0.00    +0.000 A 
DOCKED: ATOM      7  C   UNL     1      35.310  15.562 123.782 -0.46 -0.00    +0.000 A 
DOCKED: ATOM      8  C   UNL     1      36.272  16.307 123.085 -0.30 -0.00    +0.000 A 
DOCKED: ATOM      9  C   UNL     1      37.304  15.637 122.412 -0.28 -0.00    +0.000 A 
DOCKED: ATOM     10  C   UNL     1      37.392  14.244 122.465 -0.41 -0.00    +0.000 A 
DOCKED: ATOM     11  CM  UNL     1      36.354  14.902 123.128 +0.00 -0.00    +0.000 AC
DOCKED: BRANCH   5  12
DOCKED: ATOM     12  C   UNL     1      36.791  11.275 122.105 -0.61 -0.00    +0.000 C 
DOCKED: ATOM     13  C   UNL     1      36.585  12.015 123.205 -0.68 -0.00    +0.000 C 
DOCKED: BRANCH  11  14
DOCKED: ATOM     14  O   UNL     1      37.010   9.192 121.029 -2.72 -0.00    +0.000 OA
DOCKED: ATOM     15  C   UNL     1      36.921   9.804 122.127 -0.62 -0.00    +0.000 C 
DOCKED: ATOM     16  N   UNL     1      36.923   9.051 123.347 -0.60 -0.00    +0.000 N 
DOCKED: ATOM     17  O   UNL     1      37.150   7.717 123.320 -2.60 -0.00    +0.000 OA
DOCKED: ATOM     18  H   UNL     1      36.758   9.506 124.204 -0.50 -0.00    +0.000 HD
DOCKED: ENDBRANCH  11  14
DOCKED: ENDBRANCH   5  12
DOCKED: ENDBRANCH   4   8
DOCKED: ENDBRANCH   1   4
DOCKED: BRANCH   1  18
DOCKED: ATOM     19  C   UNL     1      34.443  17.674 121.257 -0.30 -0.00    +0.000 C 
DOCKED: BRANCH  18  19
DOCKED: ATOM     20  C   UNL     1      34.337  18.811 120.228 -0.28 -0.00    +0.000 C 
DOCKED: BRANCH  19  20
DOCKED: ATOM     21  C   UNL     1      33.409  18.423 119.113 -0.25 -0.00    +0.000 A 
DOCKED: ATOM     22  C   UNL     1      33.719  17.690 117.966 -0.13 -0.00    +0.000 A 
DOCKED: ATOM     23  N   UNL     1      32.641  17.595 117.153 -0.15 -0.00    +0.000 N 
DOCKED: ATOM     24  C   UNL     1      31.658  18.278 117.763 -0.19 -0.00    +0.000 A 
DOCKED: ATOM     25  C   UNL     1      32.089  18.803 118.957 -0.32 -0.00    +0.000 A 
DOCKED: ATOM     26  C   UNL     1      31.251  19.575 119.762 -0.36 -0.00    +0.000 A 
DOCKED: ATOM     27  C   UNL     1      29.935  19.796 119.320 -0.27 -0.00    +0.000 A 
DOCKED: ATOM     28  C   UNL     1      29.490  19.251 118.094 -0.23 -0.00    +0.000 A 
DOCKED: ATOM     29  C   UNL     1      30.359  18.483 117.299 -0.16 -0.00    +0.000 A 
DOCKED: ATOM     30  C   UNL     1      35.046  17.072 117.659 -0.15 -0.00    +0.000 C 
DOCKED: ATOM     31  H   UNL     1      32.589  17.122 116.290 +0.00 -0.00    +0.000 HD
DOCKED: ATOM     32  CM  UNL     1      32.701  18.139 118.157 +0.00 -0.00    +0.000 AC
DOCKED: ATOM     33  CM  UNL     1      30.797  19.031 118.533 +0.00 -0.00    +0.000 AC
DOCKED: ENDBRANCH  19  20
DOCKED: ENDBRANCH  18  19
DOCKED: ENDBRANCH   1  18
DOCKED: TORSDOF 7DOCKED: TER
DOCKED: ENDMDL
________________________________________________________________________________


	BEGINNING GENETIC ALGORITHM DOCKING 77 of 100
Run: 77 Seed: 1623191671 1118400759 [ Run 77 of 100 GA/GALS ]
Beginning LAMARCKIAN GENETIC ALGORITHM (LGA), with a maximum of 2500000 energy evaluations.

Final-Value: -14.833


	FINAL GENETIC ALGORITHM DOCKED STATE
	_______________________________________________


Detailed state:  trans 37.054 17.411 124.049 quatxyzw 0.442151 -0.365811 0.622355 0.532314 center 0.576 -0.005 0.140 ntor 7 18.6251 -97.2807 173.2333 77.2180 -163.6183 -22.6398 -179.3695
State:	 37.054  17.411 124.049   0.522 -0.432  0.735 115.676     18.63  -97.28  173.23   77.22 -163.62  -22.64 -179.37

DOCKED: MODEL       77
DOCKED: USER    Run = 77
DOCKED: USER    DPF = ligand_dock.biased.dpf
DOCKED: USER  
DOCKED: USER    Estimated Free Energy of Binding    =  -10.55 kcal/mol  [=(1)+(2)+(3)-(4)]
DOCKED: USER    Estimated Inhibition Constant, Ki   =   18.57 nM (nanomolar)  [Temperature = 298.15 K]
DOCKED: USER    
DOCKED: USER    (1) Final Intermolecular Energy     =  -12.64 kcal/mol
DOCKED: USER        vdW + Hbond + desolv Energy     =  -12.64 kcal/mol
DOCKED: USER        Electrostatic Energy            =   +0.00 kcal/mol
DOCKED: USER    (2) Final Total Internal Energy     =   -2.20 kcal/mol
DOCKED: USER    (3) Torsional Free Energy           =   +2.09 kcal/mol
DOCKED: USER    (4) Unbound System's Energy  [=(2)] =   -2.20 kcal/mol
DOCKED: USER    
DOCKED: USER    
DOCKED: USER    NEWDPF move ligand.dum.pdbqt
DOCKED: USER    NEWDPF about 0.576000 -0.005000 0.140000
DOCKED: USER    NEWDPF tran0 37.054120 17.411022 124.048823
DOCKED: USER    NEWDPF quaternion0 0.442151 -0.365811 0.622355 0.532314
DOCKED: USER    NEWDPF axisangle0 0.522300 -0.432121 0.735170 115.676061
DOCKED: USER    NEWDPF quat0 0.522300 -0.432121 0.735170 115.676061
DOCKED: USER    NEWDPF dihe0 18.63 -97.28 173.23 77.22 -163.62 -22.64 -179.37 
DOCKED: USER  keepresnum = 1 
DOCKED: USER  
DOCKED: REMARK  Name = 
DOCKED: REMARK  8 active torsions:
DOCKED: REMARK  status: ('A' for Active; 'I' for Inactive)
DOCKED: REMARK    1  A    between atoms: C_2  and  C_3
DOCKED: REMARK    2  A    between atoms: C_4  and  C_5
DOCKED: REMARK    3  A    between atoms: C_8  and  C_9
DOCKED: REMARK    4  A    between atoms: C_9  and  N_10
DOCKED: REMARK    5  A    between atoms: N_10  and  C_11
DOCKED: REMARK    6  A    between atoms: C_11  and  C_12
DOCKED: REMARK    7  A    between atoms: C_12  and  C_13
DOCKED: REMARK    8  A    between atoms: C_14  and  C_22
DOCKED: REMARK                            x       y       z     vdW  Elec       q    Type
DOCKED: REMARK                         _______ _______ _______ _____ _____    ______ ____
DOCKED: USER                              x       y       z     vdW  Elec       q    Type
DOCKED: USER                           _______ _______ _______ _____ _____    ______ ____
DOCKED: ROOT
DOCKED: ATOM      1  N   UNL     1      37.413  18.095 123.927 -0.18 -0.00    +0.000 N 
DOCKED: ATOM      2  H   UNL     1      38.168  17.522 123.550 -0.00 -0.00    +0.000 HD
DOCKED: ATOM      3  H   UNL     1      37.517  18.235 124.932 -0.01 -0.00    +0.000 HD
DOCKED: ENDROOT
DOCKED: BRANCH   1   4
DOCKED: ATOM      4  C   UNL     1      36.138  17.403 123.702 -0.29 -0.00    +0.000 C 
DOCKED: BRANCH   4   8
DOCKED: ATOM      5  C   UNL     1      36.867  13.155 123.340 -0.54 -0.00    +0.000 A 
DOCKED: ATOM      6  C   UNL     1      37.940  14.068 123.346 -0.32 -0.00    +0.000 A 
DOCKED: ATOM      7  C   UNL     1      37.700  15.442 123.451 -0.27 -0.00    +0.000 A 
DOCKED: ATOM      8  C   UNL     1      36.389  15.928 123.549 -0.34 -0.00    +0.000 A 
DOCKED: ATOM      9  C   UNL     1      35.320  15.020 123.577 -0.45 -0.00    +0.000 A 
DOCKED: ATOM     10  C   UNL     1      35.558  13.648 123.473 -0.41 -0.00    +0.000 A 
DOCKED: ATOM     11  CM  UNL     1      36.629  14.544 123.456 +0.00 -0.00    +0.000 AC
DOCKED: BRANCH   5  12
DOCKED: ATOM     12  C   UNL     1      36.567  10.933 122.251 -0.65 -0.00    +0.000 C 
DOCKED: ATOM     13  C   UNL     1      37.065  11.687 123.243 -0.66 -0.00    +0.000 C 
DOCKED: BRANCH  11  14
DOCKED: ATOM     14  O   UNL     1      36.899   8.953 121.021 -2.67 -0.00    +0.000 OA
DOCKED: ATOM     15  C   UNL     1      36.766   9.472 122.161 -0.69 -0.00    +0.000 C 
DOCKED: ATOM     16  N   UNL     1      36.784   8.628 123.319 -0.66 -0.00    +0.000 N 
DOCKED: ATOM     17  O   UNL     1      37.074   7.312 123.194 -2.32 -0.00    +0.000 OA
DOCKED: ATOM     18  H   UNL     1      36.586   9.006 124.206 -0.43 -0.00    +0.000 HD
DOCKED: ENDBRANCH  11  14
DOCKED: ENDBRANCH   5  12
DOCKED: ENDBRANCH   4   8
DOCKED: ENDBRANCH   1   4
DOCKED: BRANCH   1  18
DOCKED: ATOM     19  C   UNL     1      37.454  19.416 123.283 -0.12 -0.00    +0.000 C 
DOCKED: BRANCH  18  19
DOCKED: ATOM     20  C   UNL     1      38.349  19.434 122.032 -0.06 -0.00    +0.000 C 
DOCKED: BRANCH  19  20
DOCKED: ATOM     21  C   UNL     1      38.713  18.035 121.629 -0.07 -0.00    +0.000 A 
DOCKED: ATOM     22  C   UNL     1      39.879  17.336 121.949 -0.13 -0.00    +0.000 A 
DOCKED: ATOM     23  N   UNL     1      39.888  16.121 121.351 -0.20 -0.00    +0.000 N 
DOCKED: ATOM     24  C   UNL     1      38.750  16.053 120.639 -0.16 -0.00    +0.000 A 
DOCKED: ATOM     25  C   UNL     1      38.011  17.202 120.778 -0.09 -0.00    +0.000 A 
DOCKED: ATOM     26  C   UNL     1      36.796  17.377 120.113 -0.12 -0.00    +0.000 A 
DOCKED: ATOM     27  C   UNL     1      36.338  16.329 119.295 -0.15 -0.00    +0.000 A 
DOCKED: ATOM     28  C   UNL     1      37.096  15.145 119.157 -0.22 -0.00    +0.000 A 
DOCKED: ATOM     29  C   UNL     1      38.320  14.999 119.834 -0.21 -0.00    +0.000 A 
DOCKED: ATOM     30  C   UNL     1      40.976  17.830 122.836 -0.22 -0.00    +0.000 C 
DOCKED: ATOM     31  H   UNL     1      40.586  15.430 121.423 -0.01 -0.00    +0.000 HD
DOCKED: ATOM     32  CM  UNL     1      39.075  16.923 121.272 +0.00 -0.00    +0.000 AC
DOCKED: ATOM     33  CM  UNL     1      37.551  16.184 119.969 +0.00 -0.00    +0.000 AC
DOCKED: ENDBRANCH  19  20
DOCKED: ENDBRANCH  18  19
DOCKED: ENDBRANCH   1  18
DOCKED: TORSDOF 7DOCKED: TER
DOCKED: ENDMDL
________________________________________________________________________________


	BEGINNING GENETIC ALGORITHM DOCKING 78 of 100
Run: 78 Seed: 568770446 540750536 [ Run 78 of 100 GA/GALS ]
Beginning LAMARCKIAN GENETIC ALGORITHM (LGA), with a maximum of 2500000 energy evaluations.

Final-Value: -14.258


	FINAL GENETIC ALGORITHM DOCKED STATE
	_______________________________________________


Detailed state:  trans 37.763 17.564 123.706 quatxyzw -0.611479 0.596868 -0.396174 -0.335988 center 0.576 -0.005 0.140 ntor 7 -162.7062 -94.6136 0.0683 -68.4974 -164.4780 -24.1316 -174.1976
State:	 37.763  17.564 123.706  -0.649  0.634 -0.421 -140.735   -162.71  -94.61    0.07  -68.50 -164.48  -24.13 -174.20

DOCKED: MODEL       78
DOCKED: USER    Run = 78
DOCKED: USER    DPF = ligand_dock.biased.dpf
DOCKED: USER  
DOCKED: USER    Estimated Free Energy of Binding    =   -9.73 kcal/mol  [=(1)+(2)+(3)-(4)]
DOCKED: USER    Estimated Inhibition Constant, Ki   =   73.26 nM (nanomolar)  [Temperature = 298.15 K]
DOCKED: USER    
DOCKED: USER    (1) Final Intermolecular Energy     =  -11.82 kcal/mol
DOCKED: USER        vdW + Hbond + desolv Energy     =  -11.82 kcal/mol
DOCKED: USER        Electrostatic Energy            =   +0.00 kcal/mol
DOCKED: USER    (2) Final Total Internal Energy     =   -2.44 kcal/mol
DOCKED: USER    (3) Torsional Free Energy           =   +2.09 kcal/mol
DOCKED: USER    (4) Unbound System's Energy  [=(2)] =   -2.44 kcal/mol
DOCKED: USER    
DOCKED: USER    
DOCKED: USER    NEWDPF move ligand.dum.pdbqt
DOCKED: USER    NEWDPF about 0.576000 -0.005000 0.140000
DOCKED: USER    NEWDPF tran0 37.763290 17.564417 123.705968
DOCKED: USER    NEWDPF quaternion0 -0.611479 0.596868 -0.396174 -0.335988
DOCKED: USER    NEWDPF axisangle0 -0.649221 0.633707 -0.420627 -140.734712
DOCKED: USER    NEWDPF quat0 -0.649221 0.633707 -0.420627 -140.734712
DOCKED: USER    NEWDPF dihe0 -162.71 -94.61 0.07 -68.50 -164.48 -24.13 -174.20 
DOCKED: USER  keepresnum = 1 
DOCKED: USER  
DOCKED: REMARK  Name = 
DOCKED: REMARK  8 active torsions:
DOCKED: REMARK  status: ('A' for Active; 'I' for Inactive)
DOCKED: REMARK    1  A    between atoms: C_2  and  C_3
DOCKED: REMARK    2  A    between atoms: C_4  and  C_5
DOCKED: REMARK    3  A    between atoms: C_8  and  C_9
DOCKED: REMARK    4  A    between atoms: C_9  and  N_10
DOCKED: REMARK    5  A    between atoms: N_10  and  C_11
DOCKED: REMARK    6  A    between atoms: C_11  and  C_12
DOCKED: REMARK    7  A    between atoms: C_12  and  C_13
DOCKED: REMARK    8  A    between atoms: C_14  and  C_22
DOCKED: REMARK                            x       y       z     vdW  Elec       q    Type
DOCKED: REMARK                         _______ _______ _______ _____ _____    ______ ____
DOCKED: USER                              x       y       z     vdW  Elec       q    Type
DOCKED: USER                           _______ _______ _______ _____ _____    ______ ____
DOCKED: ROOT
DOCKED: ATOM      1  N   UNL     1      37.997  18.244 123.399 -0.14 -0.00    +0.000 N 
DOCKED: ATOM      2  H   UNL     1      38.166  17.695 122.556 +0.00 -0.00    +0.000 HD
DOCKED: ATOM      3  H   UNL     1      38.815  18.255 124.009 -0.00 -0.00    +0.000 HD
DOCKED: ENDROOT
DOCKED: BRANCH   1   4
DOCKED: ATOM      4  C   UNL     1      36.890  17.633 124.146 -0.24 -0.00    +0.000 C 
DOCKED: BRANCH   4   8
DOCKED: ATOM      5  C   UNL     1      36.475  13.505 122.925 -0.47 -0.00    +0.000 A 
DOCKED: ATOM      6  C   UNL     1      35.377  14.207 123.462 -0.35 -0.00    +0.000 A 
DOCKED: ATOM      7  C   UNL     1      35.518  15.538 123.867 -0.45 -0.00    +0.000 A 
DOCKED: ATOM      8  C   UNL     1      36.754  16.190 123.746 -0.28 -0.00    +0.000 A 
DOCKED: ATOM      9  C   UNL     1      37.839  15.505 123.181 -0.30 -0.00    +0.000 A 
DOCKED: ATOM     10  C   UNL     1      37.700  14.176 122.775 -0.43 -0.00    +0.000 A 
DOCKED: ATOM     11  CM  UNL     1      36.611  14.854 123.326 +0.00 -0.00    +0.000 AC
DOCKED: BRANCH   5  12
DOCKED: ATOM     12  C   UNL     1      37.072  11.087 123.017 -0.62 -0.00    +0.000 C 
DOCKED: ATOM     13  C   UNL     1      36.378  12.096 122.468 -0.61 -0.00    +0.000 C 
DOCKED: BRANCH  11  14
DOCKED: ATOM     14  O   UNL     1      36.785   9.469 121.331 -2.34 -0.00    +0.000 OA
DOCKED: ATOM     15  C   UNL     1      36.974   9.687 122.557 -0.62 -0.00    +0.000 C 
DOCKED: ATOM     16  N   UNL     1      37.057   8.575 123.458 -0.66 -0.00    +0.000 N 
DOCKED: ATOM     17  O   UNL     1      37.066   7.311 122.976 -2.20 -0.00    +0.000 OA
DOCKED: ATOM     18  H   UNL     1      37.108   8.733 124.429 -0.52 -0.00    +0.000 HD
DOCKED: ENDBRANCH  11  14
DOCKED: ENDBRANCH   5  12
DOCKED: ENDBRANCH   4   8
DOCKED: ENDBRANCH   1   4
DOCKED: BRANCH   1  18
DOCKED: ATOM     19  C   UNL     1      37.710  19.633 123.009 -0.10 -0.00    +0.000 C 
DOCKED: BRANCH  18  19
DOCKED: ATOM     20  C   UNL     1      37.284  19.756 121.537 -0.11 -0.00    +0.000 C 
DOCKED: BRANCH  19  20
DOCKED: ATOM     21  C   UNL     1      37.010  18.398 120.956 -0.11 -0.00    +0.000 A 
DOCKED: ATOM     22  C   UNL     1      35.793  17.715 120.932 -0.20 -0.00    +0.000 A 
DOCKED: ATOM     23  N   UNL     1      35.946  16.485 120.386 -0.16 -0.00    +0.000 N 
DOCKED: ATOM     24  C   UNL     1      37.250  16.376 120.083 -0.14 -0.00    +0.000 A 
DOCKED: ATOM     25  C   UNL     1      37.933  17.518 120.422 -0.07 -0.00    +0.000 A 
DOCKED: ATOM     26  C   UNL     1      39.310  17.635 120.225 -0.05 -0.00    +0.000 A 
DOCKED: ATOM     27  C   UNL     1      39.987  16.542 119.655 -0.11 -0.00    +0.000 A 
DOCKED: ATOM     28  C   UNL     1      39.283  15.369 119.301 -0.10 -0.00    +0.000 A 
DOCKED: ATOM     29  C   UNL     1      37.896  15.277 119.518 -0.20 -0.00    +0.000 A 
DOCKED: ATOM     30  C   UNL     1      34.485  18.247 121.423 -0.33 -0.00    +0.000 C 
DOCKED: ATOM     31  H   UNL     1      35.244  15.810 120.241 +0.11 -0.00    +0.000 HD
DOCKED: ATOM     32  CM  UNL     1      36.759  17.272 120.550 +0.00 -0.00    +0.000 AC
DOCKED: ATOM     33  CM  UNL     1      38.610  16.453 119.867 +0.00 -0.00    +0.000 AC
DOCKED: ENDBRANCH  19  20
DOCKED: ENDBRANCH  18  19
DOCKED: ENDBRANCH   1  18
DOCKED: TORSDOF 7DOCKED: TER
DOCKED: ENDMDL
________________________________________________________________________________


	BEGINNING GENETIC ALGORITHM DOCKING 79 of 100
Run: 79 Seed: 2116334861 561894894 [ Run 79 of 100 GA/GALS ]
Beginning LAMARCKIAN GENETIC ALGORITHM (LGA), with a maximum of 2500000 energy evaluations.

Final-Value: -15.322


	FINAL GENETIC ALGORITHM DOCKED STATE
	_______________________________________________


Detailed state:  trans 37.500 17.717 124.006 quatxyzw 0.222459 -0.327069 0.614518 0.682573 center 0.576 -0.005 0.140 ntor 7 19.9438 82.0902 -16.6519 -149.1462 -162.1192 1.8941 104.4324
State:	 37.500  17.717 124.006   0.304 -0.448  0.841 93.910     19.94   82.09  -16.65 -149.15 -162.12    1.89  104.43

DOCKED: MODEL       79
DOCKED: USER    Run = 79
DOCKED: USER    DPF = ligand_dock.biased.dpf
DOCKED: USER  
DOCKED: USER    Estimated Free Energy of Binding    =  -11.72 kcal/mol  [=(1)+(2)+(3)-(4)]
DOCKED: USER    Estimated Inhibition Constant, Ki   =    2.56 nM (nanomolar)  [Temperature = 298.15 K]
DOCKED: USER    
DOCKED: USER    (1) Final Intermolecular Energy     =  -13.81 kcal/mol
DOCKED: USER        vdW + Hbond + desolv Energy     =  -13.81 kcal/mol
DOCKED: USER        Electrostatic Energy            =   +0.00 kcal/mol
DOCKED: USER    (2) Final Total Internal Energy     =   -1.51 kcal/mol
DOCKED: USER    (3) Torsional Free Energy           =   +2.09 kcal/mol
DOCKED: USER    (4) Unbound System's Energy  [=(2)] =   -1.51 kcal/mol
DOCKED: USER    
DOCKED: USER    
DOCKED: USER    NEWDPF move ligand.dum.pdbqt
DOCKED: USER    NEWDPF about 0.576000 -0.005000 0.140000
DOCKED: USER    NEWDPF tran0 37.499631 17.716545 124.006013
DOCKED: USER    NEWDPF quaternion0 0.222459 -0.327069 0.614518 0.682573
DOCKED: USER    NEWDPF axisangle0 0.304398 -0.447539 0.840863 93.909986
DOCKED: USER    NEWDPF quat0 0.304398 -0.447539 0.840863 93.909986
DOCKED: USER    NEWDPF dihe0 19.94 82.09 -16.65 -149.15 -162.12 1.89 104.43 
DOCKED: USER  keepresnum = 1 
DOCKED: USER  
DOCKED: REMARK  Name = 
DOCKED: REMARK  8 active torsions:
DOCKED: REMARK  status: ('A' for Active; 'I' for Inactive)
DOCKED: REMARK    1  A    between atoms: C_2  and  C_3
DOCKED: REMARK    2  A    between atoms: C_4  and  C_5
DOCKED: REMARK    3  A    between atoms: C_8  and  C_9
DOCKED: REMARK    4  A    between atoms: C_9  and  N_10
DOCKED: REMARK    5  A    between atoms: N_10  and  C_11
DOCKED: REMARK    6  A    between atoms: C_11  and  C_12
DOCKED: REMARK    7  A    between atoms: C_12  and  C_13
DOCKED: REMARK    8  A    between atoms: C_14  and  C_22
DOCKED: REMARK                            x       y       z     vdW  Elec       q    Type
DOCKED: REMARK                         _______ _______ _______ _____ _____    ______ ____
DOCKED: USER                              x       y       z     vdW  Elec       q    Type
DOCKED: USER                           _______ _______ _______ _____ _____    ______ ____
DOCKED: ROOT
DOCKED: ATOM      1  N   UNL     1      37.782  18.402 124.254 -0.17 -0.00    +0.000 N 
DOCKED: ATOM      2  H   UNL     1      38.694  17.983 124.071 -0.01 -0.00    +0.000 HD
DOCKED: ATOM      3  H   UNL     1      37.464  18.206 125.203 -0.01 -0.00    +0.000 HD
DOCKED: ENDROOT
DOCKED: BRANCH   1   4
DOCKED: ATOM      4  C   UNL     1      36.802  17.823 123.326 -0.22 -0.00    +0.000 C 
DOCKED: BRANCH   4   8
DOCKED: ATOM      5  C   UNL     1      37.173  13.515 123.245 -0.49 -0.00    +0.000 A 
DOCKED: ATOM      6  C   UNL     1      35.939  14.122 123.556 -0.49 -0.00    +0.000 A 
DOCKED: ATOM      7  C   UNL     1      35.826  15.516 123.593 -0.42 -0.00    +0.000 A 
DOCKED: ATOM      8  C   UNL     1      36.938  16.326 123.324 -0.28 -0.00    +0.000 A 
DOCKED: ATOM      9  C   UNL     1      38.159  15.725 122.981 -0.29 -0.00    +0.000 A 
DOCKED: ATOM     10  C   UNL     1      38.273  14.334 122.943 -0.39 -0.00    +0.000 A 
DOCKED: ATOM     11  CM  UNL     1      37.052  14.923 123.273 +0.00 -0.00    +0.000 AC
DOCKED: BRANCH   5  12
DOCKED: ATOM     12  C   UNL     1      36.655  11.248 122.347 -0.64 -0.00    +0.000 C 
DOCKED: ATOM     13  C   UNL     1      37.346  12.042 123.180 -0.55 -0.00    +0.000 C 
DOCKED: BRANCH  11  14
DOCKED: ATOM     14  O   UNL     1      36.753   9.213 121.168 -2.64 -0.00    +0.000 OA
DOCKED: ATOM     15  C   UNL     1      36.831   9.783 122.289 -0.65 -0.00    +0.000 C 
DOCKED: ATOM     16  N   UNL     1      37.058   8.989 123.461 -0.58 -0.00    +0.000 N 
DOCKED: ATOM     17  O   UNL     1      37.317   7.666 123.344 -2.52 -0.00    +0.000 OA
DOCKED: ATOM     18  H   UNL     1      37.026   9.408 124.351 -0.50 -0.00    +0.000 HD
DOCKED: ENDBRANCH  11  14
DOCKED: ENDBRANCH   5  12
DOCKED: ENDBRANCH   4   8
DOCKED: ENDBRANCH   1   4
DOCKED: BRANCH   1  18
DOCKED: ATOM     19  C   UNL     1      37.895  19.861 124.110 -0.10 -0.00    +0.000 C 
DOCKED: BRANCH  18  19
DOCKED: ATOM     20  C   UNL     1      38.873  20.479 125.122 -0.07 -0.00    +0.000 C 
DOCKED: BRANCH  19  20
DOCKED: ATOM     21  C   UNL     1      39.702  19.408 125.770 -0.15 -0.00    +0.000 A 
DOCKED: ATOM     22  C   UNL     1      40.754  18.688 125.201 -0.26 -0.00    +0.000 A 
DOCKED: ATOM     23  N   UNL     1      41.219  17.756 126.066 -0.36 -0.00    +0.000 N 
DOCKED: ATOM     24  C   UNL     1      40.458  17.865 127.168 -0.34 -0.00    +0.000 A 
DOCKED: ATOM     25  C   UNL     1      39.518  18.855 127.024 -0.21 -0.00    +0.000 A 
DOCKED: ATOM     26  C   UNL     1      38.594  19.140 128.029 -0.15 -0.00    +0.000 A 
DOCKED: ATOM     27  C   UNL     1      38.656  18.384 129.213 -0.20 -0.00    +0.000 A 
DOCKED: ATOM     28  C   UNL     1      39.627  17.368 129.363 -0.35 -0.00    +0.000 A 
DOCKED: ATOM     29  C   UNL     1      40.542  17.098 128.330 -0.32 -0.00    +0.000 A 
DOCKED: ATOM     30  C   UNL     1      41.319  18.905 123.833 -0.20 -0.00    +0.000 C 
DOCKED: ATOM     31  H   UNL     1      41.963  17.127 125.917 -0.25 -0.00    +0.000 HD
DOCKED: ATOM     32  CM  UNL     1      40.359  18.490 126.240 +0.00 -0.00    +0.000 AC
DOCKED: ATOM     33  CM  UNL     1      39.566  18.119 128.188 +0.00 -0.00    +0.000 AC
DOCKED: ENDBRANCH  19  20
DOCKED: ENDBRANCH  18  19
DOCKED: ENDBRANCH   1  18
DOCKED: TORSDOF 7DOCKED: TER
DOCKED: ENDMDL
________________________________________________________________________________


	BEGINNING GENETIC ALGORITHM DOCKING 80 of 100
Run: 80 Seed: 1513773365 58097421 [ Run 80 of 100 GA/GALS ]
Beginning LAMARCKIAN GENETIC ALGORITHM (LGA), with a maximum of 2500000 energy evaluations.

Final-Value: -14.326


	FINAL GENETIC ALGORITHM DOCKED STATE
	_______________________________________________


Detailed state:  trans 36.632 17.605 121.711 quatxyzw -0.807930 0.482863 -0.319164 -0.110573 center 0.576 -0.005 0.140 ntor 7 -36.0573 -180.0000 165.5131 -77.7772 -19.8463 -27.0172 -176.9752
State:	 36.632  17.605 121.711  -0.813  0.486 -0.321 -167.303    -36.06 -180.00  165.51  -77.78  -19.85  -27.02 -176.98

DOCKED: MODEL       80
DOCKED: USER    Run = 80
DOCKED: USER    DPF = ligand_dock.biased.dpf
DOCKED: USER  
DOCKED: USER    Estimated Free Energy of Binding    =  -11.23 kcal/mol  [=(1)+(2)+(3)-(4)]
DOCKED: USER    Estimated Inhibition Constant, Ki   =    5.89 nM (nanomolar)  [Temperature = 298.15 K]
DOCKED: USER    
DOCKED: USER    (1) Final Intermolecular Energy     =  -13.32 kcal/mol
DOCKED: USER        vdW + Hbond + desolv Energy     =  -13.32 kcal/mol
DOCKED: USER        Electrostatic Energy            =   +0.00 kcal/mol
DOCKED: USER    (2) Final Total Internal Energy     =   -1.01 kcal/mol
DOCKED: USER    (3) Torsional Free Energy           =   +2.09 kcal/mol
DOCKED: USER    (4) Unbound System's Energy  [=(2)] =   -1.01 kcal/mol
DOCKED: USER    
DOCKED: USER    
DOCKED: USER    NEWDPF move ligand.dum.pdbqt
DOCKED: USER    NEWDPF about 0.576000 -0.005000 0.140000
DOCKED: USER    NEWDPF tran0 36.632383 17.604759 121.710752
DOCKED: USER    NEWDPF quaternion0 -0.807930 0.482863 -0.319164 -0.110573
DOCKED: USER    NEWDPF axisangle0 -0.812915 0.485842 -0.321134 -167.303260
DOCKED: USER    NEWDPF quat0 -0.812915 0.485842 -0.321134 -167.303260
DOCKED: USER    NEWDPF dihe0 -36.06 -180.00 165.51 -77.78 -19.85 -27.02 -176.98 
DOCKED: USER  keepresnum = 1 
DOCKED: USER  
DOCKED: REMARK  Name = 
DOCKED: REMARK  8 active torsions:
DOCKED: REMARK  status: ('A' for Active; 'I' for Inactive)
DOCKED: REMARK    1  A    between atoms: C_2  and  C_3
DOCKED: REMARK    2  A    between atoms: C_4  and  C_5
DOCKED: REMARK    3  A    between atoms: C_8  and  C_9
DOCKED: REMARK    4  A    between atoms: C_9  and  N_10
DOCKED: REMARK    5  A    between atoms: N_10  and  C_11
DOCKED: REMARK    6  A    between atoms: C_11  and  C_12
DOCKED: REMARK    7  A    between atoms: C_12  and  C_13
DOCKED: REMARK    8  A    between atoms: C_14  and  C_22
DOCKED: REMARK                            x       y       z     vdW  Elec       q    Type
DOCKED: REMARK                         _______ _______ _______ _____ _____    ______ ____
DOCKED: USER                              x       y       z     vdW  Elec       q    Type
DOCKED: USER                           _______ _______ _______ _____ _____    ______ ____
DOCKED: ROOT
DOCKED: ATOM      1  N   UNL     1      36.503  18.107 121.126 -0.14 -0.00    +0.000 N 
DOCKED: ATOM      2  H   UNL     1      36.518  17.275 120.536 +0.00 -0.00    +0.000 HD
DOCKED: ATOM      3  H   UNL     1      37.437  18.501 121.239 +0.00 -0.00    +0.000 HD
DOCKED: ENDROOT
DOCKED: BRANCH   1   4
DOCKED: ATOM      4  C   UNL     1      36.011  17.733 122.458 -0.25 -0.00    +0.000 C 
DOCKED: BRANCH   4   8
DOCKED: ATOM      5  C   UNL     1      36.338  13.448 122.943 -0.47 -0.00    +0.000 A 
DOCKED: ATOM      6  C   UNL     1      35.540  14.209 123.820 -0.49 -0.00    +0.000 A 
DOCKED: ATOM      7  C   UNL     1      35.445  15.596 123.668 -0.44 -0.00    +0.000 A 
DOCKED: ATOM      8  C   UNL     1      36.147  16.247 122.643 -0.28 -0.00    +0.000 A 
DOCKED: ATOM      9  C   UNL     1      36.915  15.489 121.748 -0.23 -0.00    +0.000 A 
DOCKED: ATOM     10  C   UNL     1      37.010  14.103 121.898 -0.33 -0.00    +0.000 A 
DOCKED: ATOM     11  CM  UNL     1      36.232  14.849 122.786 +0.00 -0.00    +0.000 AC
DOCKED: BRANCH   5  12
DOCKED: ATOM     12  C   UNL     1      36.827  11.180 122.032 -0.60 -0.00    +0.000 C 
DOCKED: ATOM     13  C   UNL     1      36.464  11.973 123.052 -0.68 -0.00    +0.000 C 
DOCKED: BRANCH  11  14
DOCKED: ATOM     14  O   UNL     1      36.927   9.024 121.091 -2.68 -0.00    +0.000 OA
DOCKED: ATOM     15  C   UNL     1      36.949   9.713 122.146 -0.62 -0.00    +0.000 C 
DOCKED: ATOM     16  N   UNL     1      37.062   9.048 123.411 -0.59 -0.00    +0.000 N 
DOCKED: ATOM     17  O   UNL     1      37.276   7.712 123.458 -2.64 -0.00    +0.000 OA
DOCKED: ATOM     18  H   UNL     1      36.984   9.564 124.245 -0.54 -0.00    +0.000 HD
DOCKED: ENDBRANCH  11  14
DOCKED: ENDBRANCH   5  12
DOCKED: ENDBRANCH   4   8
DOCKED: ENDBRANCH   1   4
DOCKED: BRANCH   1  18
DOCKED: ATOM     19  C   UNL     1      35.660  19.126 120.483 -0.18 -0.00    +0.000 C 
DOCKED: BRANCH  18  19
DOCKED: ATOM     20  C   UNL     1      34.755  18.538 119.388 -0.23 -0.00    +0.000 C 
DOCKED: BRANCH  19  20
DOCKED: ATOM     21  C   UNL     1      33.552  19.411 119.179 -0.22 -0.00    +0.000 A 
DOCKED: ATOM     22  C   UNL     1      32.247  19.174 119.614 -0.35 -0.00    +0.000 A 
DOCKED: ATOM     23  N   UNL     1      31.413  20.149 119.180 -0.33 -0.00    +0.000 N 
DOCKED: ATOM     24  C   UNL     1      32.174  20.988 118.456 -0.17 -0.00    +0.000 A 
DOCKED: ATOM     25  C   UNL     1      33.481  20.568 118.426 -0.13 -0.00    +0.000 A 
DOCKED: ATOM     26  C   UNL     1      34.459  21.266 117.716 -0.10 -0.00    +0.000 A 
DOCKED: ATOM     27  C   UNL     1      34.068  22.429 117.029 -0.07 -0.00    +0.000 A 
DOCKED: ATOM     28  C   UNL     1      32.724  22.864 117.065 -0.08 -0.00    +0.000 A 
DOCKED: ATOM     29  C   UNL     1      31.758  22.137 117.784 -0.14 -0.00    +0.000 A 
DOCKED: ATOM     30  C   UNL     1      31.804  18.021 120.457 -0.30 -0.00    +0.000 C 
DOCKED: ATOM     31  H   UNL     1      30.448  20.227 119.358 -0.03 -0.00    +0.000 HD
DOCKED: ATOM     32  CM  UNL     1      32.536  20.061 118.978 +0.00 -0.00    +0.000 AC
DOCKED: ATOM     33  CM  UNL     1      33.111  21.709 117.746 +0.00 -0.00    +0.000 AC
DOCKED: ENDBRANCH  19  20
DOCKED: ENDBRANCH  18  19
DOCKED: ENDBRANCH   1  18
DOCKED: TORSDOF 7DOCKED: TER
DOCKED: ENDMDL
________________________________________________________________________________


	BEGINNING GENETIC ALGORITHM DOCKING 81 of 100
Run: 81 Seed: 138609499 292003827 [ Run 81 of 100 GA/GALS ]
Beginning LAMARCKIAN GENETIC ALGORITHM (LGA), with a maximum of 2500000 energy evaluations.

Final-Value: -15.351


	FINAL GENETIC ALGORITHM DOCKED STATE
	_______________________________________________


Detailed state:  trans 35.549 17.526 123.414 quatxyzw -0.557454 0.410355 0.520155 0.500292 center 0.576 -0.005 0.140 ntor 7 -52.4620 -164.5907 -166.3067 52.2026 89.4120 -12.2078 -160.8165
State:	 35.549  17.526 123.414  -0.644  0.474  0.601 119.961    -52.46 -164.59 -166.31   52.20   89.41  -12.21 -160.82

DOCKED: MODEL       81
DOCKED: USER    Run = 81
DOCKED: USER    DPF = ligand_dock.biased.dpf
DOCKED: USER  
DOCKED: USER    Estimated Free Energy of Binding    =  -12.03 kcal/mol  [=(1)+(2)+(3)-(4)]
DOCKED: USER    Estimated Inhibition Constant, Ki   =    1.52 nM (nanomolar)  [Temperature = 298.15 K]
DOCKED: USER    
DOCKED: USER    (1) Final Intermolecular Energy     =  -14.12 kcal/mol
DOCKED: USER        vdW + Hbond + desolv Energy     =  -14.12 kcal/mol
DOCKED: USER        Electrostatic Energy            =   +0.00 kcal/mol
DOCKED: USER    (2) Final Total Internal Energy     =   -1.23 kcal/mol
DOCKED: USER    (3) Torsional Free Energy           =   +2.09 kcal/mol
DOCKED: USER    (4) Unbound System's Energy  [=(2)] =   -1.23 kcal/mol
DOCKED: USER    
DOCKED: USER    
DOCKED: USER    NEWDPF move ligand.dum.pdbqt
DOCKED: USER    NEWDPF about 0.576000 -0.005000 0.140000
DOCKED: USER    NEWDPF tran0 35.548815 17.526038 123.413933
DOCKED: USER    NEWDPF quaternion0 -0.557454 0.410355 0.520155 0.500292
DOCKED: USER    NEWDPF axisangle0 -0.643818 0.473929 0.600740 119.961298
DOCKED: USER    NEWDPF quat0 -0.643818 0.473929 0.600740 119.961298
DOCKED: USER    NEWDPF dihe0 -52.46 -164.59 -166.31 52.20 89.41 -12.21 -160.82 
DOCKED: USER  keepresnum = 1 
DOCKED: USER  
DOCKED: REMARK  Name = 
DOCKED: REMARK  8 active torsions:
DOCKED: REMARK  status: ('A' for Active; 'I' for Inactive)
DOCKED: REMARK    1  A    between atoms: C_2  and  C_3
DOCKED: REMARK    2  A    between atoms: C_4  and  C_5
DOCKED: REMARK    3  A    between atoms: C_8  and  C_9
DOCKED: REMARK    4  A    between atoms: C_9  and  N_10
DOCKED: REMARK    5  A    between atoms: N_10  and  C_11
DOCKED: REMARK    6  A    between atoms: C_11  and  C_12
DOCKED: REMARK    7  A    between atoms: C_12  and  C_13
DOCKED: REMARK    8  A    between atoms: C_14  and  C_22
DOCKED: REMARK                            x       y       z     vdW  Elec       q    Type
DOCKED: REMARK                         _______ _______ _______ _____ _____    ______ ____
DOCKED: USER                              x       y       z     vdW  Elec       q    Type
DOCKED: USER                           _______ _______ _______ _____ _____    ______ ____
DOCKED: ROOT
DOCKED: ATOM      1  N   UNL     1      35.167  18.160 123.666 -0.28 -0.00    +0.000 N 
DOCKED: ATOM      2  H   UNL     1      34.702  17.509 124.299 -0.01 -0.00    +0.000 HD
DOCKED: ATOM      3  H   UNL     1      34.672  18.233 122.776 -0.01 -0.00    +0.000 HD
DOCKED: ENDROOT
DOCKED: BRANCH   1   4
DOCKED: ATOM      4  C   UNL     1      36.519  17.661 123.386 -0.24 -0.00    +0.000 C 
DOCKED: BRANCH   4   8
DOCKED: ATOM      5  C   UNL     1      36.417  13.338 123.275 -0.53 -0.00    +0.000 A 
DOCKED: ATOM      6  C   UNL     1      35.595  14.052 124.171 -0.39 -0.00    +0.000 A 
DOCKED: ATOM      7  C   UNL     1      35.639  15.449 124.212 -0.42 -0.00    +0.000 A 
DOCKED: ATOM      8  C   UNL     1      36.504  16.158 123.366 -0.32 -0.00    +0.000 A 
DOCKED: ATOM      9  C   UNL     1      37.299  15.453 122.451 -0.30 -0.00    +0.000 A 
DOCKED: ATOM     10  C   UNL     1      37.255  14.058 122.407 -0.41 -0.00    +0.000 A 
DOCKED: ATOM     11  CM  UNL     1      36.452  14.752 123.313 +0.00 -0.00    +0.000 AC
DOCKED: BRANCH   5  12
DOCKED: ATOM     12  C   UNL     1      37.067  11.165 122.243 -0.56 -0.00    +0.000 C 
DOCKED: ATOM     13  C   UNL     1      36.402  11.857 123.181 -0.69 -0.00    +0.000 C 
DOCKED: BRANCH  11  14
DOCKED: ATOM     14  O   UNL     1      37.062   9.158 121.011 -2.73 -0.00    +0.000 OA
DOCKED: ATOM     15  C   UNL     1      37.046   9.691 122.153 -0.60 -0.00    +0.000 C 
DOCKED: ATOM     16  N   UNL     1      36.980   8.852 123.313 -0.64 -0.00    +0.000 N 
DOCKED: ATOM     17  O   UNL     1      37.069   7.508 123.184 -2.44 -0.00    +0.000 OA
DOCKED: ATOM     18  H   UNL     1      36.870   9.254 124.205 -0.53 -0.00    +0.000 HD
DOCKED: ENDBRANCH  11  14
DOCKED: ENDBRANCH   5  12
DOCKED: ENDBRANCH   4   8
DOCKED: ENDBRANCH   1   4
DOCKED: BRANCH   1  18
DOCKED: ATOM     19  C   UNL     1      35.179  19.494 124.284 -0.13 -0.00    +0.000 C 
DOCKED: BRANCH  18  19
DOCKED: ATOM     20  C   UNL     1      35.285  19.433 125.816 -0.20 -0.00    +0.000 C 
DOCKED: BRANCH  19  20
DOCKED: ATOM     21  C   UNL     1      33.920  19.502 126.438 -0.20 -0.00    +0.000 A 
DOCKED: ATOM     22  C   UNL     1      33.108  20.628 126.581 -0.17 -0.00    +0.000 A 
DOCKED: ATOM     23  N   UNL     1      31.974  20.319 127.253 -0.22 -0.00    +0.000 N 
DOCKED: ATOM     24  C   UNL     1      32.070  19.013 127.556 -0.21 -0.00    +0.000 A 
DOCKED: ATOM     25  C   UNL     1      33.245  18.482 127.082 -0.25 -0.00    +0.000 A 
DOCKED: ATOM     26  C   UNL     1      33.582  17.144 127.294 -0.35 -0.00    +0.000 A 
DOCKED: ATOM     27  C   UNL     1      32.672  16.342 128.006 -0.40 -0.00    +0.000 A 
DOCKED: ATOM     28  C   UNL     1      31.461  16.888 128.488 -0.41 -0.00    +0.000 A 
DOCKED: ATOM     29  C   UNL     1      31.151  18.242 128.266 -0.27 -0.00    +0.000 A 
DOCKED: ATOM     30  C   UNL     1      33.416  21.997 126.062 -0.19 -0.00    +0.000 C 
DOCKED: ATOM     31  H   UNL     1      31.232  20.927 127.475 -0.00 -0.00    +0.000 HD
DOCKED: ATOM     32  CM  UNL     1      32.835  19.613 126.991 +0.00 -0.00    +0.000 AC
DOCKED: ATOM     33  CM  UNL     1      32.364  17.685 127.782 +0.00 -0.00    +0.000 AC
DOCKED: ENDBRANCH  19  20
DOCKED: ENDBRANCH  18  19
DOCKED: ENDBRANCH   1  18
DOCKED: TORSDOF 7DOCKED: TER
DOCKED: ENDMDL
________________________________________________________________________________


	BEGINNING GENETIC ALGORITHM DOCKING 82 of 100
Run: 82 Seed: 43972517 64643666 [ Run 82 of 100 GA/GALS ]
Beginning LAMARCKIAN GENETIC ALGORITHM (LGA), with a maximum of 2500000 energy evaluations.

Final-Value: -15.270


	FINAL GENETIC ALGORITHM DOCKED STATE
	_______________________________________________


Detailed state:  trans 38.293 17.634 122.183 quatxyzw 0.697126 -0.715002 0.009783 -0.051875 center 0.576 -0.005 0.140 ntor 7 -21.5841 -26.9490 157.6765 151.2159 -143.8819 -12.2171 -173.5821
State:	 38.293  17.634 122.183   0.698 -0.716  0.010 -174.053    -21.58  -26.95  157.68  151.22 -143.88  -12.22 -173.58

DOCKED: MODEL       82
DOCKED: USER    Run = 82
DOCKED: USER    DPF = ligand_dock.biased.dpf
DOCKED: USER  
DOCKED: USER    Estimated Free Energy of Binding    =  -11.11 kcal/mol  [=(1)+(2)+(3)-(4)]
DOCKED: USER    Estimated Inhibition Constant, Ki   =    7.22 nM (nanomolar)  [Temperature = 298.15 K]
DOCKED: USER    
DOCKED: USER    (1) Final Intermolecular Energy     =  -13.20 kcal/mol
DOCKED: USER        vdW + Hbond + desolv Energy     =  -13.20 kcal/mol
DOCKED: USER        Electrostatic Energy            =   +0.00 kcal/mol
DOCKED: USER    (2) Final Total Internal Energy     =   -2.08 kcal/mol
DOCKED: USER    (3) Torsional Free Energy           =   +2.09 kcal/mol
DOCKED: USER    (4) Unbound System's Energy  [=(2)] =   -2.08 kcal/mol
DOCKED: USER    
DOCKED: USER    
DOCKED: USER    NEWDPF move ligand.dum.pdbqt
DOCKED: USER    NEWDPF about 0.576000 -0.005000 0.140000
DOCKED: USER    NEWDPF tran0 38.292733 17.634204 122.182534
DOCKED: USER    NEWDPF quaternion0 0.697126 -0.715002 0.009783 -0.051875
DOCKED: USER    NEWDPF axisangle0 0.698066 -0.715966 0.009797 -174.052930
DOCKED: USER    NEWDPF quat0 0.698066 -0.715966 0.009797 -174.052930
DOCKED: USER    NEWDPF dihe0 -21.58 -26.95 157.68 151.22 -143.88 -12.22 -173.58 
DOCKED: USER  keepresnum = 1 
DOCKED: USER  
DOCKED: REMARK  Name = 
DOCKED: REMARK  8 active torsions:
DOCKED: REMARK  status: ('A' for Active; 'I' for Inactive)
DOCKED: REMARK    1  A    between atoms: C_2  and  C_3
DOCKED: REMARK    2  A    between atoms: C_4  and  C_5
DOCKED: REMARK    3  A    between atoms: C_8  and  C_9
DOCKED: REMARK    4  A    between atoms: C_9  and  N_10
DOCKED: REMARK    5  A    between atoms: N_10  and  C_11
DOCKED: REMARK    6  A    between atoms: C_11  and  C_12
DOCKED: REMARK    7  A    between atoms: C_12  and  C_13
DOCKED: REMARK    8  A    between atoms: C_14  and  C_22
DOCKED: REMARK                            x       y       z     vdW  Elec       q    Type
DOCKED: REMARK                         _______ _______ _______ _____ _____    ______ ____
DOCKED: USER                              x       y       z     vdW  Elec       q    Type
DOCKED: USER                           _______ _______ _______ _____ _____    ______ ____
DOCKED: ROOT
DOCKED: ATOM      1  N   UNL     1      38.170  18.317 121.823 -0.07 -0.00    +0.000 N 
DOCKED: ATOM      2  H   UNL     1      37.426  17.817 121.337 +0.00 -0.00    +0.000 HD
DOCKED: ATOM      3  H   UNL     1      39.059  18.234 121.331 +0.00 -0.00    +0.000 HD
DOCKED: ENDROOT
DOCKED: BRANCH   1   4
DOCKED: ATOM      4  C   UNL     1      38.340  17.728 123.157 -0.19 -0.00    +0.000 C 
DOCKED: BRANCH   4   8
DOCKED: ATOM      5  C   UNL     1      37.613  13.466 123.025 -0.48 -0.00    +0.000 A 
DOCKED: ATOM      6  C   UNL     1      38.689  14.032 122.312 -0.32 -0.00    +0.000 A 
DOCKED: ATOM      7  C   UNL     1      38.914  15.412 122.347 -0.31 -0.00    +0.000 A 
DOCKED: ATOM      8  C   UNL     1      38.071  16.250 123.089 -0.26 -0.00    +0.000 A 
DOCKED: ATOM      9  C   UNL     1      37.019  15.687 123.827 -0.23 -0.00    +0.000 A 
DOCKED: ATOM     10  C   UNL     1      36.793  14.309 123.794 -0.35 -0.00    +0.000 A 
DOCKED: ATOM     11  CM  UNL     1      37.850  14.860 123.066 +0.00 -0.00    +0.000 AC
DOCKED: BRANCH   5  12
DOCKED: ATOM     12  C   UNL     1      37.264  11.259 121.921 -0.34 -0.00    +0.000 C 
DOCKED: ATOM     13  C   UNL     1      37.335  12.008 123.032 -0.54 -0.00    +0.000 C 
DOCKED: BRANCH  11  14
DOCKED: ATOM     14  O   UNL     1      36.847   9.213 120.833 -2.64 +0.00    +0.000 OA
DOCKED: ATOM     15  C   UNL     1      36.986   9.809 121.934 -0.59 -0.00    +0.000 C 
DOCKED: ATOM     16  N   UNL     1      36.842   9.066 123.152 -0.65 -0.00    +0.000 N 
DOCKED: ATOM     17  O   UNL     1      36.692   7.722 123.112 -2.32 -0.00    +0.000 OA
DOCKED: ATOM     18  H   UNL     1      36.852   9.535 124.017 -0.49 -0.00    +0.000 HD
DOCKED: ENDBRANCH  11  14
DOCKED: ENDBRANCH   5  12
DOCKED: ENDBRANCH   4   8
DOCKED: ENDBRANCH   1   4
DOCKED: BRANCH   1  18
DOCKED: ATOM     19  C   UNL     1      37.820  19.744 121.882 -0.08 -0.00    +0.000 C 
DOCKED: BRANCH  18  19
DOCKED: ATOM     20  C   UNL     1      36.317  19.992 121.673 -0.05 -0.00    +0.000 C 
DOCKED: BRANCH  19  20
DOCKED: ATOM     21  C   UNL     1      35.516  18.842 122.212 -0.20 -0.00    +0.000 A 
DOCKED: ATOM     22  C   UNL     1      34.766  17.916 121.485 -0.30 -0.00    +0.000 A 
DOCKED: ATOM     23  N   UNL     1      34.124  17.063 122.317 -0.40 -0.00    +0.000 N 
DOCKED: ATOM     24  C   UNL     1      34.443  17.453 123.563 -0.38 -0.00    +0.000 A 
DOCKED: ATOM     25  C   UNL     1      35.284  18.538 123.540 -0.24 -0.00    +0.000 A 
DOCKED: ATOM     26  C   UNL     1      35.736  19.139 124.716 -0.20 -0.00    +0.000 A 
DOCKED: ATOM     27  C   UNL     1      35.310  18.593 125.939 -0.21 -0.00    +0.000 A 
DOCKED: ATOM     28  C   UNL     1      34.449  17.473 125.962 -0.31 -0.00    +0.000 A 
DOCKED: ATOM     29  C   UNL     1      34.004  16.891 124.761 -0.36 -0.00    +0.000 A 
DOCKED: ATOM     30  C   UNL     1      34.677  17.844 119.994 -0.22 -0.00    +0.000 C 
DOCKED: ATOM     31  H   UNL     1      33.542  16.310 122.061 -0.03 -0.00    +0.000 HD
DOCKED: ATOM     32  CM  UNL     1      34.804  17.933 122.613 -0.01 -0.00    +0.000 AC
DOCKED: ATOM     33  CM  UNL     1      34.872  18.015 124.747 -0.43 -0.00    +0.000 AC
DOCKED: ENDBRANCH  19  20
DOCKED: ENDBRANCH  18  19
DOCKED: ENDBRANCH   1  18
DOCKED: TORSDOF 7DOCKED: TER
DOCKED: ENDMDL
________________________________________________________________________________


	BEGINNING GENETIC ALGORITHM DOCKING 83 of 100
Run: 83 Seed: 174223557 344100898 [ Run 83 of 100 GA/GALS ]
Beginning LAMARCKIAN GENETIC ALGORITHM (LGA), with a maximum of 2500000 energy evaluations.

Final-Value: -15.404


	FINAL GENETIC ALGORITHM DOCKED STATE
	_______________________________________________


Detailed state:  trans 35.542 17.811 122.674 quatxyzw 0.601457 -0.326129 -0.636048 -0.356837 center 0.576 -0.005 0.140 ntor 7 -40.5476 -163.5196 32.1092 52.4754 87.4005 -43.8273 -166.0139
State:	 35.542  17.811 122.674   0.644 -0.349 -0.681 -138.188    -40.55 -163.52   32.11   52.48   87.40  -43.83 -166.01

DOCKED: MODEL       83
DOCKED: USER    Run = 83
DOCKED: USER    DPF = ligand_dock.biased.dpf
DOCKED: USER  
DOCKED: USER    Estimated Free Energy of Binding    =  -12.05 kcal/mol  [=(1)+(2)+(3)-(4)]
DOCKED: USER    Estimated Inhibition Constant, Ki   =    1.47 nM (nanomolar)  [Temperature = 298.15 K]
DOCKED: USER    
DOCKED: USER    (1) Final Intermolecular Energy     =  -14.14 kcal/mol
DOCKED: USER        vdW + Hbond + desolv Energy     =  -14.14 kcal/mol
DOCKED: USER        Electrostatic Energy            =   +0.00 kcal/mol
DOCKED: USER    (2) Final Total Internal Energy     =   -1.27 kcal/mol
DOCKED: USER    (3) Torsional Free Energy           =   +2.09 kcal/mol
DOCKED: USER    (4) Unbound System's Energy  [=(2)] =   -1.27 kcal/mol
DOCKED: USER    
DOCKED: USER    
DOCKED: USER    NEWDPF move ligand.dum.pdbqt
DOCKED: USER    NEWDPF about 0.576000 -0.005000 0.140000
DOCKED: USER    NEWDPF tran0 35.542378 17.811431 122.673793
DOCKED: USER    NEWDPF quaternion0 0.601457 -0.326129 -0.636048 -0.356837
DOCKED: USER    NEWDPF axisangle0 0.643843 -0.349112 -0.680872 -138.187830
DOCKED: USER    NEWDPF quat0 0.643843 -0.349112 -0.680872 -138.187830
DOCKED: USER    NEWDPF dihe0 -40.55 -163.52 32.11 52.48 87.40 -43.83 -166.01 
DOCKED: USER  keepresnum = 1 
DOCKED: USER  
DOCKED: REMARK  Name = 
DOCKED: REMARK  8 active torsions:
DOCKED: REMARK  status: ('A' for Active; 'I' for Inactive)
DOCKED: REMARK    1  A    between atoms: C_2  and  C_3
DOCKED: REMARK    2  A    between atoms: C_4  and  C_5
DOCKED: REMARK    3  A    between atoms: C_8  and  C_9
DOCKED: REMARK    4  A    between atoms: C_9  and  N_10
DOCKED: REMARK    5  A    between atoms: N_10  and  C_11
DOCKED: REMARK    6  A    between atoms: C_11  and  C_12
DOCKED: REMARK    7  A    between atoms: C_12  and  C_13
DOCKED: REMARK    8  A    between atoms: C_14  and  C_22
DOCKED: REMARK                            x       y       z     vdW  Elec       q    Type
DOCKED: REMARK                         _______ _______ _______ _____ _____    ______ ____
DOCKED: USER                              x       y       z     vdW  Elec       q    Type
DOCKED: USER                           _______ _______ _______ _____ _____    ______ ____
DOCKED: ROOT
DOCKED: ATOM      1  N   UNL     1      35.260  18.343 123.173 -0.26 -0.00    +0.000 N 
DOCKED: ATOM      2  H   UNL     1      34.722  17.562 123.549 -0.01 -0.00    +0.000 HD
DOCKED: ATOM      3  H   UNL     1      34.761  18.810 122.415 -0.02 -0.00    +0.000 HD
DOCKED: ENDROOT
DOCKED: BRANCH   1   4
DOCKED: ATOM      4  C   UNL     1      36.521  17.827 122.626 -0.21 -0.00    +0.000 C 
DOCKED: BRANCH   4   8
DOCKED: ATOM      5  C   UNL     1      36.535  13.516 122.978 -0.49 -0.00    +0.000 A 
DOCKED: ATOM      6  C   UNL     1      35.924  14.314 123.967 -0.46 -0.00    +0.000 A 
DOCKED: ATOM      7  C   UNL     1      35.932  15.708 123.856 -0.40 -0.00    +0.000 A 
DOCKED: ATOM      8  C   UNL     1      36.550  16.330 122.762 -0.27 -0.00    +0.000 A 
DOCKED: ATOM      9  C   UNL     1      37.130  15.538 121.759 -0.24 -0.00    +0.000 A 
DOCKED: ATOM     10  C   UNL     1      37.122  14.145 121.868 -0.35 -0.00    +0.000 A 
DOCKED: ATOM     11  CM  UNL     1      36.532  14.925 122.865 +0.00 -0.00    +0.000 AC
DOCKED: BRANCH   5  12
DOCKED: ATOM     12  C   UNL     1      37.012  11.251 122.054 -0.56 -0.00    +0.000 C 
DOCKED: ATOM     13  C   UNL     1      36.545  12.033 123.040 -0.67 -0.00    +0.000 C 
DOCKED: BRANCH  11  14
DOCKED: ATOM     14  O   UNL     1      37.032   9.126 121.041 -2.72 -0.00    +0.000 OA
DOCKED: ATOM     15  C   UNL     1      37.018   9.775 122.120 -0.60 -0.00    +0.000 C 
DOCKED: ATOM     16  N   UNL     1      36.981   9.063 123.364 -0.60 -0.00    +0.000 N 
DOCKED: ATOM     17  O   UNL     1      37.094   7.714 123.376 -2.65 -0.00    +0.000 OA
DOCKED: ATOM     18  H   UNL     1      36.873   9.555 124.209 -0.53 -0.00    +0.000 HD
DOCKED: ENDBRANCH  11  14
DOCKED: ENDBRANCH   5  12
DOCKED: ENDBRANCH   4   8
DOCKED: ENDBRANCH   1   4
DOCKED: BRANCH   1  18
DOCKED: ATOM     19  C   UNL     1      35.476  19.328 124.243 -0.21 -0.00    +0.000 C 
DOCKED: BRANCH  18  19
DOCKED: ATOM     20  C   UNL     1      35.479  18.688 125.641 -0.24 -0.00    +0.000 C 
DOCKED: BRANCH  19  20
DOCKED: ATOM     21  C   UNL     1      34.128  18.822 126.282 -0.25 -0.00    +0.000 A 
DOCKED: ATOM     22  C   UNL     1      33.308  17.795 126.755 -0.31 -0.00    +0.000 A 
DOCKED: ATOM     23  N   UNL     1      32.132  18.292 127.205 -0.21 -0.00    +0.000 N 
DOCKED: ATOM     24  C   UNL     1      32.191  19.619 127.002 -0.23 -0.00    +0.000 A 
DOCKED: ATOM     25  C   UNL     1      33.388  19.979 126.435 -0.20 -0.00    +0.000 A 
DOCKED: ATOM     26  C   UNL     1      33.675  21.305 126.108 -0.15 -0.00    +0.000 A 
DOCKED: ATOM     27  C   UNL     1      32.696  22.277 126.386 -0.17 -0.00    +0.000 A 
DOCKED: ATOM     28  C   UNL     1      31.467  21.906 126.975 -0.19 -0.00    +0.000 A 
DOCKED: ATOM     29  C   UNL     1      31.203  20.561 127.288 -0.23 -0.00    +0.000 A 
DOCKED: ATOM     30  C   UNL     1      33.659  16.342 126.785 -0.39 -0.00    +0.000 C 
DOCKED: ATOM     31  H   UNL     1      31.386  17.784 127.600 -0.33 -0.00    +0.000 HD
DOCKED: ATOM     32  CM  UNL     1      33.000  18.882 126.751 -0.00 -0.00    +0.000 AC
DOCKED: ATOM     33  CM  UNL     1      32.437  20.942 126.699 +0.00 -0.00    +0.000 AC
DOCKED: ENDBRANCH  19  20
DOCKED: ENDBRANCH  18  19
DOCKED: ENDBRANCH   1  18
DOCKED: TORSDOF 7DOCKED: TER
DOCKED: ENDMDL
________________________________________________________________________________


	BEGINNING GENETIC ALGORITHM DOCKING 84 of 100
Run: 84 Seed: 891478845 1529348098 [ Run 84 of 100 GA/GALS ]
Beginning LAMARCKIAN GENETIC ALGORITHM (LGA), with a maximum of 2500000 energy evaluations.

Final-Value: -14.360


	FINAL GENETIC ALGORITHM DOCKED STATE
	_______________________________________________


Detailed state:  trans 36.544 18.550 122.245 quatxyzw 0.749488 0.425413 -0.042728 0.505436 center 0.576 -0.005 0.140 ntor 7 -22.4527 -179.9080 176.0894 -7.1950 -81.1883 -178.2627 152.6037
State:	 36.544  18.550 122.245   0.869  0.493 -0.050 119.279    -22.45 -179.91  176.09   -7.20  -81.19 -178.26  152.60

DOCKED: MODEL       84
DOCKED: USER    Run = 84
DOCKED: USER    DPF = ligand_dock.biased.dpf
DOCKED: USER  
DOCKED: USER    Estimated Free Energy of Binding    =  -10.49 kcal/mol  [=(1)+(2)+(3)-(4)]
DOCKED: USER    Estimated Inhibition Constant, Ki   =   20.31 nM (nanomolar)  [Temperature = 298.15 K]
DOCKED: USER    
DOCKED: USER    (1) Final Intermolecular Energy     =  -12.58 kcal/mol
DOCKED: USER        vdW + Hbond + desolv Energy     =  -12.58 kcal/mol
DOCKED: USER        Electrostatic Energy            =   +0.00 kcal/mol
DOCKED: USER    (2) Final Total Internal Energy     =   -1.78 kcal/mol
DOCKED: USER    (3) Torsional Free Energy           =   +2.09 kcal/mol
DOCKED: USER    (4) Unbound System's Energy  [=(2)] =   -1.78 kcal/mol
DOCKED: USER    
DOCKED: USER    
DOCKED: USER    NEWDPF move ligand.dum.pdbqt
DOCKED: USER    NEWDPF about 0.576000 -0.005000 0.140000
DOCKED: USER    NEWDPF tran0 36.544063 18.549986 122.245222
DOCKED: USER    NEWDPF quaternion0 0.749488 0.425413 -0.042728 0.505436
DOCKED: USER    NEWDPF axisangle0 0.868605 0.493024 -0.049519 119.279408
DOCKED: USER    NEWDPF quat0 0.868605 0.493024 -0.049519 119.279408
DOCKED: USER    NEWDPF dihe0 -22.45 -179.91 176.09 -7.20 -81.19 -178.26 152.60 
DOCKED: USER  keepresnum = 1 
DOCKED: USER  
DOCKED: REMARK  Name = 
DOCKED: REMARK  8 active torsions:
DOCKED: REMARK  status: ('A' for Active; 'I' for Inactive)
DOCKED: REMARK    1  A    between atoms: C_2  and  C_3
DOCKED: REMARK    2  A    between atoms: C_4  and  C_5
DOCKED: REMARK    3  A    between atoms: C_8  and  C_9
DOCKED: REMARK    4  A    between atoms: C_9  and  N_10
DOCKED: REMARK    5  A    between atoms: N_10  and  C_11
DOCKED: REMARK    6  A    between atoms: C_11  and  C_12
DOCKED: REMARK    7  A    between atoms: C_12  and  C_13
DOCKED: REMARK    8  A    between atoms: C_14  and  C_22
DOCKED: REMARK                            x       y       z     vdW  Elec       q    Type
DOCKED: REMARK                         _______ _______ _______ _____ _____    ______ ____
DOCKED: USER                              x       y       z     vdW  Elec       q    Type
DOCKED: USER                           _______ _______ _______ _____ _____    ______ ____
DOCKED: ROOT
DOCKED: ATOM      1  N   UNL     1      36.015  18.273 121.741 -0.19 -0.00    +0.000 N 
DOCKED: ATOM      2  H   UNL     1      36.448  18.918 121.080 +0.00 -0.00    +0.000 HD
DOCKED: ATOM      3  H   UNL     1      35.262  18.722 122.263 -0.01 -0.00    +0.000 HD
DOCKED: ENDROOT
DOCKED: BRANCH   1   4
DOCKED: ATOM      4  C   UNL     1      37.030  17.835 122.708 -0.18 -0.00    +0.000 C 
DOCKED: BRANCH   4   8
DOCKED: ATOM      5  C   UNL     1      36.806  13.531 123.069 -0.50 -0.00    +0.000 A 
DOCKED: ATOM      6  C   UNL     1      36.106  14.363 123.966 -0.43 -0.00    +0.000 A 
DOCKED: ATOM      7  C   UNL     1      36.190  15.754 123.854 -0.36 -0.00    +0.000 A 
DOCKED: ATOM      8  C   UNL     1      36.974  16.340 122.850 -0.26 -0.00    +0.000 A 
DOCKED: ATOM      9  C   UNL     1      37.645  15.515 121.935 -0.26 -0.00    +0.000 A 
DOCKED: ATOM     10  C   UNL     1      37.561  14.125 122.044 -0.39 -0.00    +0.000 A 
DOCKED: ATOM     11  CM  UNL     1      36.880  14.938 122.953 +0.00 -0.00    +0.000 AC
DOCKED: BRANCH   5  12
DOCKED: ATOM     12  C   UNL     1      37.009  11.247 122.093 -0.57 -0.00    +0.000 C 
DOCKED: ATOM     13  C   UNL     1      36.743  12.050 123.135 -0.67 -0.00    +0.000 C 
DOCKED: BRANCH  11  14
DOCKED: ATOM     14  O   UNL     1      37.102   9.112 121.104 -2.69 -0.00    +0.000 OA
DOCKED: ATOM     15  C   UNL     1      36.942   9.773 122.164 -0.62 -0.00    +0.000 C 
DOCKED: ATOM     16  N   UNL     1      36.675   9.075 123.388 -0.57 -0.00    +0.000 N 
DOCKED: ATOM     17  O   UNL     1      36.728   7.723 123.422 -2.48 -0.00    +0.000 OA
DOCKED: ATOM     18  H   UNL     1      36.453   9.580 124.203 -0.40 -0.00    +0.000 HD
DOCKED: ENDBRANCH  11  14
DOCKED: ENDBRANCH   5  12
DOCKED: ENDBRANCH   4   8
DOCKED: ENDBRANCH   1   4
DOCKED: BRANCH   1  18
DOCKED: ATOM     19  C   UNL     1      35.434  17.148 120.993 -0.21 -0.00    +0.000 C 
DOCKED: BRANCH  18  19
DOCKED: ATOM     20  C   UNL     1      35.340  17.430 119.484 -0.16 -0.00    +0.000 C 
DOCKED: BRANCH  19  20
DOCKED: ATOM     21  C   UNL     1      36.545  16.885 118.774 -0.12 -0.00    +0.000 A 
DOCKED: ATOM     22  C   UNL     1      37.725  17.564 118.461 -0.05 -0.00    +0.000 A 
DOCKED: ATOM     23  N   UNL     1      38.562  16.767 117.756 -0.08 -0.00    +0.000 N 
DOCKED: ATOM     24  C   UNL     1      37.916  15.599 117.600 -0.15 -0.00    +0.000 A 
DOCKED: ATOM     25  C   UNL     1      36.682  15.634 118.200 -0.17 -0.00    +0.000 A 
DOCKED: ATOM     26  C   UNL     1      35.813  14.543 118.153 -0.21 -0.00    +0.000 A 
DOCKED: ATOM     27  C   UNL     1      36.243  13.389 117.474 -0.23 -0.00    +0.000 A 
DOCKED: ATOM     28  C   UNL     1      37.516  13.352 116.862 -0.37 -0.00    +0.000 A 
DOCKED: ATOM     29  C   UNL     1      38.368  14.469 116.920 -0.24 -0.00    +0.000 A 
DOCKED: ATOM     30  C   UNL     1      38.051  18.970 118.851 -0.03 -0.00    +0.000 C 
DOCKED: ATOM     31  H   UNL     1      39.461  16.998 117.424 +0.00 -0.00    +0.000 HD
DOCKED: ATOM     32  CM  UNL     1      37.521  16.499 118.145 +0.00 -0.00    +0.000 AC
DOCKED: ATOM     33  CM  UNL     1      37.089  14.497 117.535 +0.00 -0.00    +0.000 AC
DOCKED: ENDBRANCH  19  20
DOCKED: ENDBRANCH  18  19
DOCKED: ENDBRANCH   1  18
DOCKED: TORSDOF 7DOCKED: TER
DOCKED: ENDMDL
________________________________________________________________________________


	BEGINNING GENETIC ALGORITHM DOCKING 85 of 100
Run: 85 Seed: 1049341192 1720428608 [ Run 85 of 100 GA/GALS ]
Beginning LAMARCKIAN GENETIC ALGORITHM (LGA), with a maximum of 2500000 energy evaluations.

Final-Value: -14.864


	FINAL GENETIC ALGORITHM DOCKED STATE
	_______________________________________________


Detailed state:  trans 37.436 17.826 120.597 quatxyzw -0.357424 0.274221 0.876142 0.171543 center 0.576 -0.005 0.140 ntor 7 175.0129 42.6813 173.2707 21.5278 -180.0000 -67.2296 140.9176
State:	 37.436  17.826 120.597  -0.363  0.278  0.889 160.245    175.01   42.68  173.27   21.53 -180.00  -67.23  140.92

DOCKED: MODEL       85
DOCKED: USER    Run = 85
DOCKED: USER    DPF = ligand_dock.biased.dpf
DOCKED: USER  
DOCKED: USER    Estimated Free Energy of Binding    =  -10.72 kcal/mol  [=(1)+(2)+(3)-(4)]
DOCKED: USER    Estimated Inhibition Constant, Ki   =   13.84 nM (nanomolar)  [Temperature = 298.15 K]
DOCKED: USER    
DOCKED: USER    (1) Final Intermolecular Energy     =  -12.81 kcal/mol
DOCKED: USER        vdW + Hbond + desolv Energy     =  -12.81 kcal/mol
DOCKED: USER        Electrostatic Energy            =   +0.00 kcal/mol
DOCKED: USER    (2) Final Total Internal Energy     =   -2.05 kcal/mol
DOCKED: USER    (3) Torsional Free Energy           =   +2.09 kcal/mol
DOCKED: USER    (4) Unbound System's Energy  [=(2)] =   -2.05 kcal/mol
DOCKED: USER    
DOCKED: USER    
DOCKED: USER    NEWDPF move ligand.dum.pdbqt
DOCKED: USER    NEWDPF about 0.576000 -0.005000 0.140000
DOCKED: USER    NEWDPF tran0 37.435976 17.825602 120.597324
DOCKED: USER    NEWDPF quaternion0 -0.357424 0.274221 0.876142 0.171543
DOCKED: USER    NEWDPF axisangle0 -0.362801 0.278347 0.889325 160.244907
DOCKED: USER    NEWDPF quat0 -0.362801 0.278347 0.889325 160.244907
DOCKED: USER    NEWDPF dihe0 175.01 42.68 173.27 21.53 -180.00 -67.23 140.92 
DOCKED: USER  keepresnum = 1 
DOCKED: USER  
DOCKED: REMARK  Name = 
DOCKED: REMARK  8 active torsions:
DOCKED: REMARK  status: ('A' for Active; 'I' for Inactive)
DOCKED: REMARK    1  A    between atoms: C_2  and  C_3
DOCKED: REMARK    2  A    between atoms: C_4  and  C_5
DOCKED: REMARK    3  A    between atoms: C_8  and  C_9
DOCKED: REMARK    4  A    between atoms: C_9  and  N_10
DOCKED: REMARK    5  A    between atoms: N_10  and  C_11
DOCKED: REMARK    6  A    between atoms: C_11  and  C_12
DOCKED: REMARK    7  A    between atoms: C_12  and  C_13
DOCKED: REMARK    8  A    between atoms: C_14  and  C_22
DOCKED: REMARK                            x       y       z     vdW  Elec       q    Type
DOCKED: REMARK                         _______ _______ _______ _____ _____    ______ ____
DOCKED: USER                              x       y       z     vdW  Elec       q    Type
DOCKED: USER                           _______ _______ _______ _____ _____    ______ ____
DOCKED: ROOT
DOCKED: ATOM      1  N   UNL     1      37.714  18.192 121.229 -0.08 -0.00    +0.000 N 
DOCKED: ATOM      2  H   UNL     1      37.052  17.608 121.740 +0.00 -0.00    +0.000 HD
DOCKED: ATOM      3  H   UNL     1      37.286  19.067 120.928 +0.00 -0.00    +0.000 HD
DOCKED: ENDROOT
DOCKED: BRANCH   1   4
DOCKED: ATOM      4  C   UNL     1      38.149  17.470 120.027 -0.08 -0.00    +0.000 C 
DOCKED: BRANCH   4   8
DOCKED: ATOM      5  C   UNL     1      37.401  13.251 120.615 -0.41 -0.00    +0.000 A 
DOCKED: ATOM      6  C   UNL     1      38.350  13.927 121.408 -0.36 -0.00    +0.000 A 
DOCKED: ATOM      7  C   UNL     1      38.598  15.289 121.207 -0.25 -0.00    +0.000 A 
DOCKED: ATOM      8  C   UNL     1      37.908  15.997 120.213 -0.16 -0.00    +0.000 A 
DOCKED: ATOM      9  C   UNL     1      36.939  15.335 119.445 -0.19 -0.00    +0.000 A 
DOCKED: ATOM     10  C   UNL     1      36.689  13.976 119.645 -0.17 -0.00    +0.000 A 
DOCKED: ATOM     11  CM  UNL     1      37.647  14.630 120.422 +0.00 -0.00    +0.000 AC
DOCKED: BRANCH   5  12
DOCKED: ATOM     12  C   UNL     1      37.359  11.124 121.915 -0.18 -0.00    +0.000 C 
DOCKED: ATOM     13  C   UNL     1      37.089  11.810 120.794 -0.50 -0.00    +0.000 C 
DOCKED: BRANCH  11  14
DOCKED: ATOM     14  O   UNL     1      36.713   9.023 121.071 -2.62 -0.00    +0.000 OA
DOCKED: ATOM     15  C   UNL     1      37.048   9.691 122.086 -0.60 -0.00    +0.000 C 
DOCKED: ATOM     16  N   UNL     1      37.089   9.044 123.364 -0.60 -0.00    +0.000 N 
DOCKED: ATOM     17  O   UNL     1      36.899   7.707 123.454 -2.59 -0.00    +0.000 OA
DOCKED: ATOM     18  H   UNL     1      37.256   9.573 124.177 -0.60 -0.00    +0.000 HD
DOCKED: ENDBRANCH  11  14
DOCKED: ENDBRANCH   5  12
DOCKED: ENDBRANCH   4   8
DOCKED: ENDBRANCH   1   4
DOCKED: BRANCH   1  18
DOCKED: ATOM     19  C   UNL     1      38.837  18.523 122.120 -0.09 -0.00    +0.000 C 
DOCKED: BRANCH  18  19
DOCKED: ATOM     20  C   UNL     1      38.443  18.483 123.605 -0.16 -0.00    +0.000 C 
DOCKED: BRANCH  19  20
DOCKED: ATOM     21  C   UNL     1      36.972  18.214 123.750 -0.17 -0.00    +0.000 A 
DOCKED: ATOM     22  C   UNL     1      35.953  19.151 123.928 -0.19 -0.00    +0.000 A 
DOCKED: ATOM     23  N   UNL     1      34.758  18.533 124.089 -0.28 -0.00    +0.000 N 
DOCKED: ATOM     24  C   UNL     1      35.016  17.215 124.035 -0.36 -0.00    +0.000 A 
DOCKED: ATOM     25  C   UNL     1      36.355  16.981 123.836 -0.27 -0.00    +0.000 A 
DOCKED: ATOM     26  C   UNL     1      36.870  15.686 123.769 -0.28 -0.00    +0.000 A 
DOCKED: ATOM     27  C   UNL     1      35.971  14.613 123.902 -0.46 -0.00    +0.000 A 
DOCKED: ATOM     28  C   UNL     1      34.593  14.854 124.101 -0.43 -0.00    +0.000 A 
DOCKED: ATOM     29  C   UNL     1      34.102  16.170 124.171 -0.45 -0.00    +0.000 A 
DOCKED: ATOM     30  C   UNL     1      36.123  20.636 123.932 -0.16 -0.00    +0.000 C 
DOCKED: ATOM     31  H   UNL     1      33.881  18.961 124.218 -0.02 -0.00    +0.000 HD
DOCKED: ATOM     32  CM  UNL     1      35.777  18.035 123.933 -0.12 -0.00    +0.000 AC
DOCKED: ATOM     33  CM  UNL     1      35.485  15.919 123.969 -0.02 -0.00    +0.000 AC
DOCKED: ENDBRANCH  19  20
DOCKED: ENDBRANCH  18  19
DOCKED: ENDBRANCH   1  18
DOCKED: TORSDOF 7DOCKED: TER
DOCKED: ENDMDL
________________________________________________________________________________


	BEGINNING GENETIC ALGORITHM DOCKING 86 of 100
Run: 86 Seed: 862416046 1244477477 [ Run 86 of 100 GA/GALS ]
Beginning LAMARCKIAN GENETIC ALGORITHM (LGA), with a maximum of 2500000 energy evaluations.

Final-Value: -14.972


	FINAL GENETIC ALGORITHM DOCKED STATE
	_______________________________________________


Detailed state:  trans 36.379 18.242 122.837 quatxyzw 0.627211 0.469223 -0.013227 0.621499 center 0.576 -0.005 0.140 ntor 7 -74.0948 -168.8542 -179.8846 21.9210 -65.5191 161.8627 176.4063
State:	 36.379  18.242 122.837   0.801  0.599 -0.017 103.149    -74.09 -168.85 -179.88   21.92  -65.52  161.86  176.41

DOCKED: MODEL       86
DOCKED: USER    Run = 86
DOCKED: USER    DPF = ligand_dock.biased.dpf
DOCKED: USER  
DOCKED: USER    Estimated Free Energy of Binding    =  -11.05 kcal/mol  [=(1)+(2)+(3)-(4)]
DOCKED: USER    Estimated Inhibition Constant, Ki   =    7.93 nM (nanomolar)  [Temperature = 298.15 K]
DOCKED: USER    
DOCKED: USER    (1) Final Intermolecular Energy     =  -13.14 kcal/mol
DOCKED: USER        vdW + Hbond + desolv Energy     =  -13.14 kcal/mol
DOCKED: USER        Electrostatic Energy            =   +0.00 kcal/mol
DOCKED: USER    (2) Final Total Internal Energy     =   -1.83 kcal/mol
DOCKED: USER    (3) Torsional Free Energy           =   +2.09 kcal/mol
DOCKED: USER    (4) Unbound System's Energy  [=(2)] =   -1.83 kcal/mol
DOCKED: USER    
DOCKED: USER    
DOCKED: USER    NEWDPF move ligand.dum.pdbqt
DOCKED: USER    NEWDPF about 0.576000 -0.005000 0.140000
DOCKED: USER    NEWDPF tran0 36.378921 18.242238 122.837440
DOCKED: USER    NEWDPF quaternion0 0.627211 0.469223 -0.013227 0.621499
DOCKED: USER    NEWDPF axisangle0 0.800612 0.598946 -0.016884 103.148597
DOCKED: USER    NEWDPF quat0 0.800612 0.598946 -0.016884 103.148597
DOCKED: USER    NEWDPF dihe0 -74.09 -168.85 -179.88 21.92 -65.52 161.86 176.41 
DOCKED: USER  keepresnum = 1 
DOCKED: USER  
DOCKED: REMARK  Name = 
DOCKED: REMARK  8 active torsions:
DOCKED: REMARK  status: ('A' for Active; 'I' for Inactive)
DOCKED: REMARK    1  A    between atoms: C_2  and  C_3
DOCKED: REMARK    2  A    between atoms: C_4  and  C_5
DOCKED: REMARK    3  A    between atoms: C_8  and  C_9
DOCKED: REMARK    4  A    between atoms: C_9  and  N_10
DOCKED: REMARK    5  A    between atoms: N_10  and  C_11
DOCKED: REMARK    6  A    between atoms: C_11  and  C_12
DOCKED: REMARK    7  A    between atoms: C_12  and  C_13
DOCKED: REMARK    8  A    between atoms: C_14  and  C_22
DOCKED: REMARK                            x       y       z     vdW  Elec       q    Type
DOCKED: REMARK                         _______ _______ _______ _____ _____    ______ ____
DOCKED: USER                              x       y       z     vdW  Elec       q    Type
DOCKED: USER                           _______ _______ _______ _____ _____    ______ ____
DOCKED: ROOT
DOCKED: ATOM      1  N   UNL     1      35.868  18.074 122.270 -0.21 -0.00    +0.000 N 
DOCKED: ATOM      2  H   UNL     1      36.189  18.947 121.853 -0.00 -0.00    +0.000 HD
DOCKED: ATOM      3  H   UNL     1      35.087  18.230 122.908 -0.01 -0.00    +0.000 HD
DOCKED: ENDROOT
DOCKED: BRANCH   1   4
DOCKED: ATOM      4  C   UNL     1      36.969  17.487 123.045 -0.22 -0.00    +0.000 C 
DOCKED: BRANCH   4   8
DOCKED: ATOM      5  C   UNL     1      36.473  13.191 123.095 -0.53 -0.00    +0.000 A 
DOCKED: ATOM      6  C   UNL     1      35.531  14.028 123.726 -0.45 -0.00    +0.000 A 
DOCKED: ATOM      7  C   UNL     1      35.700  15.416 123.718 -0.44 -0.00    +0.000 A 
DOCKED: ATOM      8  C   UNL     1      36.811  15.993 123.086 -0.30 -0.00    +0.000 A 
DOCKED: ATOM      9  C   UNL     1      37.733  15.165 122.428 -0.32 -0.00    +0.000 A 
DOCKED: ATOM     10  C   UNL     1      37.564  13.778 122.434 -0.44 -0.00    +0.000 A 
DOCKED: ATOM     11  CM  UNL     1      36.636  14.595 123.081 +0.00 -0.00    +0.000 AC
DOCKED: BRANCH   5  12
DOCKED: ATOM     12  C   UNL     1      37.085  10.914 122.288 -0.53 -0.00    +0.000 C 
DOCKED: ATOM     13  C   UNL     1      36.336  11.713 123.063 -0.69 -0.00    +0.000 C 
DOCKED: BRANCH  11  14
DOCKED: ATOM     14  O   UNL     1      36.692   8.887 121.157 -2.62 -0.00    +0.000 OA
DOCKED: ATOM     15  C   UNL     1      36.942   9.444 122.258 -0.65 -0.00    +0.000 C 
DOCKED: ATOM     16  N   UNL     1      37.051   8.638 123.439 -0.65 -0.00    +0.000 N 
DOCKED: ATOM     17  O   UNL     1      37.017   7.289 123.345 -2.31 -0.00    +0.000 OA
DOCKED: ATOM     18  H   UNL     1      37.150   9.068 124.319 -0.55 -0.00    +0.000 HD
DOCKED: ENDBRANCH  11  14
DOCKED: ENDBRANCH   5  12
DOCKED: ENDBRANCH   4   8
DOCKED: ENDBRANCH   1   4
DOCKED: BRANCH   1  18
DOCKED: ATOM     19  C   UNL     1      35.401  17.182 121.199 -0.23 -0.00    +0.000 C 
DOCKED: BRANCH  18  19
DOCKED: ATOM     20  C   UNL     1      35.754  17.709 119.798 -0.18 -0.00    +0.000 C 
DOCKED: BRANCH  19  20
DOCKED: ATOM     21  C   UNL     1      36.809  16.848 119.165 -0.12 -0.00    +0.000 A 
DOCKED: ATOM     22  C   UNL     1      38.194  16.998 119.257 -0.08 -0.00    +0.000 A 
DOCKED: ATOM     23  N   UNL     1      38.827  16.073 118.497 -0.13 -0.00    +0.000 N 
DOCKED: ATOM     24  C   UNL     1      37.856  15.353 117.909 -0.17 -0.00    +0.000 A 
DOCKED: ATOM     25  C   UNL     1      36.613  15.799 118.286 -0.17 -0.00    +0.000 A 
DOCKED: ATOM     26  C   UNL     1      35.445  15.222 117.786 -0.16 -0.00    +0.000 A 
DOCKED: ATOM     27  C   UNL     1      35.575  14.153 116.882 -0.32 -0.00    +0.000 A 
DOCKED: ATOM     28  C   UNL     1      36.854  13.691 116.499 -0.33 -0.00    +0.000 A 
DOCKED: ATOM     29  C   UNL     1      38.015  14.296 117.014 -0.27 -0.00    +0.000 A 
DOCKED: ATOM     30  C   UNL     1      38.907  18.020 120.083 -0.05 -0.00    +0.000 C 
DOCKED: ATOM     31  H   UNL     1      39.799  15.954 118.396 -0.02 -0.00    +0.000 HD
DOCKED: ATOM     32  CM  UNL     1      37.698  16.210 118.619 +0.00 -0.00    +0.000 AC
DOCKED: ATOM     33  CM  UNL     1      36.726  14.752 117.396 +0.00 -0.00    +0.000 AC
DOCKED: ENDBRANCH  19  20
DOCKED: ENDBRANCH  18  19
DOCKED: ENDBRANCH   1  18
DOCKED: TORSDOF 7DOCKED: TER
DOCKED: ENDMDL
________________________________________________________________________________


	BEGINNING GENETIC ALGORITHM DOCKING 87 of 100
Run: 87 Seed: 1198358795 464048549 [ Run 87 of 100 GA/GALS ]
Beginning LAMARCKIAN GENETIC ALGORITHM (LGA), with a maximum of 2500000 energy evaluations.

Final-Value: -14.703


	FINAL GENETIC ALGORITHM DOCKED STATE
	_______________________________________________


Detailed state:  trans 37.346 17.049 118.342 quatxyzw -0.270686 0.919852 -0.009992 0.283729 center 0.576 -0.005 0.140 ntor 7 144.9436 -106.4542 174.5677 63.6372 148.7423 49.3428 56.0932
State:	 37.346  17.049 118.342  -0.282  0.959 -0.010 147.034    144.94 -106.45  174.57   63.64  148.74   49.34   56.09

DOCKED: MODEL       87
DOCKED: USER    Run = 87
DOCKED: USER    DPF = ligand_dock.biased.dpf
DOCKED: USER  
DOCKED: USER    Estimated Free Energy of Binding    =  -10.49 kcal/mol  [=(1)+(2)+(3)-(4)]
DOCKED: USER    Estimated Inhibition Constant, Ki   =   20.28 nM (nanomolar)  [Temperature = 298.15 K]
DOCKED: USER    
DOCKED: USER    (1) Final Intermolecular Energy     =  -12.58 kcal/mol
DOCKED: USER        vdW + Hbond + desolv Energy     =  -12.58 kcal/mol
DOCKED: USER        Electrostatic Energy            =   +0.00 kcal/mol
DOCKED: USER    (2) Final Total Internal Energy     =   -2.12 kcal/mol
DOCKED: USER    (3) Torsional Free Energy           =   +2.09 kcal/mol
DOCKED: USER    (4) Unbound System's Energy  [=(2)] =   -2.12 kcal/mol
DOCKED: USER    
DOCKED: USER    
DOCKED: USER    NEWDPF move ligand.dum.pdbqt
DOCKED: USER    NEWDPF about 0.576000 -0.005000 0.140000
DOCKED: USER    NEWDPF tran0 37.346160 17.049123 118.341795
DOCKED: USER    NEWDPF quaternion0 -0.270686 0.919852 -0.009992 0.283729
DOCKED: USER    NEWDPF axisangle0 -0.282287 0.959273 -0.010420 147.034169
DOCKED: USER    NEWDPF quat0 -0.282287 0.959273 -0.010420 147.034169
DOCKED: USER    NEWDPF dihe0 144.94 -106.45 174.57 63.64 148.74 49.34 56.09 
DOCKED: USER  keepresnum = 1 
DOCKED: USER  
DOCKED: REMARK  Name = 
DOCKED: REMARK  8 active torsions:
DOCKED: REMARK  status: ('A' for Active; 'I' for Inactive)
DOCKED: REMARK    1  A    between atoms: C_2  and  C_3
DOCKED: REMARK    2  A    between atoms: C_4  and  C_5
DOCKED: REMARK    3  A    between atoms: C_8  and  C_9
DOCKED: REMARK    4  A    between atoms: C_9  and  N_10
DOCKED: REMARK    5  A    between atoms: N_10  and  C_11
DOCKED: REMARK    6  A    between atoms: C_11  and  C_12
DOCKED: REMARK    7  A    between atoms: C_12  and  C_13
DOCKED: REMARK    8  A    between atoms: C_14  and  C_22
DOCKED: REMARK                            x       y       z     vdW  Elec       q    Type
DOCKED: REMARK                         _______ _______ _______ _____ _____    ______ ____
DOCKED: USER                              x       y       z     vdW  Elec       q    Type
DOCKED: USER                           _______ _______ _______ _____ _____    ______ ____
DOCKED: ROOT
DOCKED: ATOM      1  N   UNL     1      37.618  17.449 117.728 -0.05 -0.00    +0.000 N 
DOCKED: ATOM      2  H   UNL     1      36.643  17.715 117.591 +0.00 -0.00    +0.000 HD
DOCKED: ATOM      3  H   UNL     1      37.839  16.579 117.242 +0.00 -0.00    +0.000 HD
DOCKED: ENDROOT
DOCKED: BRANCH   1   4
DOCKED: ATOM      4  C   UNL     1      37.853  17.232 119.161 -0.08 -0.00    +0.000 C 
DOCKED: BRANCH   4   8
DOCKED: ATOM      5  C   UNL     1      37.508  13.007 120.021 -0.42 -0.00    +0.000 A 
DOCKED: ATOM      6  C   UNL     1      36.868  13.564 118.895 -0.37 -0.00    +0.000 A 
DOCKED: ATOM      7  C   UNL     1      36.972  14.932 118.626 -0.23 -0.00    +0.000 A 
DOCKED: ATOM      8  C   UNL     1      37.711  15.769 119.475 -0.16 -0.00    +0.000 A 
DOCKED: ATOM      9  C   UNL     1      38.376  15.213 120.578 -0.22 -0.00    +0.000 A 
DOCKED: ATOM     10  C   UNL     1      38.275  13.846 120.847 -0.35 -0.00    +0.000 A 
DOCKED: ATOM     11  CM  UNL     1      37.619  14.389 119.741 +0.00 -0.00    +0.000 AC
DOCKED: BRANCH   5  12
DOCKED: ATOM     12  C   UNL     1      37.098  11.085 121.553 -0.49 -0.00    +0.000 C 
DOCKED: ATOM     13  C   UNL     1      37.441  11.561 120.346 -0.40 -0.00    +0.000 C 
DOCKED: BRANCH  11  14
DOCKED: ATOM     14  O   UNL     1      36.968   8.821 120.920 -2.66 -0.00    +0.000 OA
DOCKED: ATOM     15  C   UNL     1      37.035   9.644 121.871 -0.59 -0.00    +0.000 C 
DOCKED: ATOM     16  N   UNL     1      37.021   9.156 123.219 -0.63 -0.00    +0.000 N 
DOCKED: ATOM     17  O   UNL     1      37.068   7.824 123.458 -2.66 -0.00    +0.000 OA
DOCKED: ATOM     18  H   UNL     1      36.976   9.790 123.970 -0.47 -0.00    +0.000 HD
DOCKED: ENDBRANCH  11  14
DOCKED: ENDBRANCH   5  12
DOCKED: ENDBRANCH   4   8
DOCKED: ENDBRANCH   1   4
DOCKED: BRANCH   1  18
DOCKED: ATOM     19  C   UNL     1      38.479  18.504 117.173 -0.02 -0.00    +0.000 C 
DOCKED: BRANCH  18  19
DOCKED: ATOM     20  C   UNL     1      39.222  18.053 115.905 -0.04 -0.00    +0.000 C 
DOCKED: BRANCH  19  20
DOCKED: ATOM     21  C   UNL     1      39.602  16.604 116.008 -0.11 -0.00    +0.000 A 
DOCKED: ATOM     22  C   UNL     1      40.819  16.076 116.441 -0.21 -0.00    +0.000 A 
DOCKED: ATOM     23  N   UNL     1      40.820  14.726 116.333 -0.29 -0.00    +0.000 N 
DOCKED: ATOM     24  C   UNL     1      39.624  14.397 115.816 -0.33 -0.00    +0.000 A 
DOCKED: ATOM     25  C   UNL     1      38.856  15.515 115.598 -0.19 -0.00    +0.000 A 
DOCKED: ATOM     26  C   UNL     1      37.579  15.430 115.043 -0.15 -0.00    +0.000 A 
DOCKED: ATOM     27  C   UNL     1      37.088  14.153 114.717 -0.28 -0.00    +0.000 A 
DOCKED: ATOM     28  C   UNL     1      37.876  13.003 114.947 -0.41 -0.00    +0.000 A 
DOCKED: ATOM     29  C   UNL     1      39.163  13.120 115.502 -0.46 -0.00    +0.000 A 
DOCKED: ATOM     30  C   UNL     1      41.975  16.865 116.969 -0.15 -0.00    +0.000 C 
DOCKED: ATOM     31  H   UNL     1      41.548  14.111 116.582 -0.15 -0.00    +0.000 HD
DOCKED: ATOM     32  CM  UNL     1      39.973  15.440 116.049 +0.00 -0.00    +0.000 AC
DOCKED: ATOM     33  CM  UNL     1      38.363  14.270 115.270 +0.00 -0.00    +0.000 AC
DOCKED: ENDBRANCH  19  20
DOCKED: ENDBRANCH  18  19
DOCKED: ENDBRANCH   1  18
DOCKED: TORSDOF 7DOCKED: TER
DOCKED: ENDMDL
________________________________________________________________________________


	BEGINNING GENETIC ALGORITHM DOCKING 88 of 100
Run: 88 Seed: 514175179 1324359855 [ Run 88 of 100 GA/GALS ]
Beginning LAMARCKIAN GENETIC ALGORITHM (LGA), with a maximum of 2500000 energy evaluations.

Final-Value: -15.112


	FINAL GENETIC ALGORITHM DOCKED STATE
	_______________________________________________


Detailed state:  trans 35.023 18.089 122.563 quatxyzw 0.239278 0.807883 0.057425 0.535513 center 0.576 -0.005 0.140 ntor 7 -28.0699 -179.5818 -177.4628 -25.3940 97.4172 120.0286 133.2148
State:	 35.023  18.089 122.563   0.283  0.957  0.068 115.243    -28.07 -179.58 -177.46  -25.39   97.42  120.03  133.21

DOCKED: MODEL       88
DOCKED: USER    Run = 88
DOCKED: USER    DPF = ligand_dock.biased.dpf
DOCKED: USER  
DOCKED: USER    Estimated Free Energy of Binding    =  -11.92 kcal/mol  [=(1)+(2)+(3)-(4)]
DOCKED: USER    Estimated Inhibition Constant, Ki   =    1.82 nM (nanomolar)  [Temperature = 298.15 K]
DOCKED: USER    
DOCKED: USER    (1) Final Intermolecular Energy     =  -14.01 kcal/mol
DOCKED: USER        vdW + Hbond + desolv Energy     =  -14.01 kcal/mol
DOCKED: USER        Electrostatic Energy            =   +0.00 kcal/mol
DOCKED: USER    (2) Final Total Internal Energy     =   -1.10 kcal/mol
DOCKED: USER    (3) Torsional Free Energy           =   +2.09 kcal/mol
DOCKED: USER    (4) Unbound System's Energy  [=(2)] =   -1.10 kcal/mol
DOCKED: USER    
DOCKED: USER    
DOCKED: USER    NEWDPF move ligand.dum.pdbqt
DOCKED: USER    NEWDPF about 0.576000 -0.005000 0.140000
DOCKED: USER    NEWDPF tran0 35.023462 18.088880 122.563215
DOCKED: USER    NEWDPF quaternion0 0.239278 0.807883 0.057425 0.535513
DOCKED: USER    NEWDPF axisangle0 0.283328 0.956609 0.067997 115.242577
DOCKED: USER    NEWDPF quat0 0.283328 0.956609 0.067997 115.242577
DOCKED: USER    NEWDPF dihe0 -28.07 -179.58 -177.46 -25.39 97.42 120.03 133.21 
DOCKED: USER  keepresnum = 1 
DOCKED: USER  
DOCKED: REMARK  Name = 
DOCKED: REMARK  8 active torsions:
DOCKED: REMARK  status: ('A' for Active; 'I' for Inactive)
DOCKED: REMARK    1  A    between atoms: C_2  and  C_3
DOCKED: REMARK    2  A    between atoms: C_4  and  C_5
DOCKED: REMARK    3  A    between atoms: C_8  and  C_9
DOCKED: REMARK    4  A    between atoms: C_9  and  N_10
DOCKED: REMARK    5  A    between atoms: N_10  and  C_11
DOCKED: REMARK    6  A    between atoms: C_11  and  C_12
DOCKED: REMARK    7  A    between atoms: C_12  and  C_13
DOCKED: REMARK    8  A    between atoms: C_14  and  C_22
DOCKED: REMARK                            x       y       z     vdW  Elec       q    Type
DOCKED: REMARK                         _______ _______ _______ _____ _____    ______ ____
DOCKED: USER                              x       y       z     vdW  Elec       q    Type
DOCKED: USER                           _______ _______ _______ _____ _____    ______ ____
DOCKED: ROOT
DOCKED: ATOM      1  N   UNL     1      35.042  18.072 121.782 -0.29 -0.00    +0.000 N 
DOCKED: ATOM      2  H   UNL     1      34.730  19.040 121.849 -0.02 -0.00    +0.000 HD
DOCKED: ATOM      3  H   UNL     1      34.254  17.425 121.763 -0.03 -0.00    +0.000 HD
DOCKED: ENDROOT
DOCKED: BRANCH   1   4
DOCKED: ATOM      4  C   UNL     1      35.853  17.754 122.965 -0.27 -0.00    +0.000 C 
DOCKED: BRANCH   4   8
DOCKED: ATOM      5  C   UNL     1      36.319  13.461 123.195 -0.51 -0.00    +0.000 A 
DOCKED: ATOM      6  C   UNL     1      35.561  14.152 124.162 -0.42 -0.00    +0.000 A 
DOCKED: ATOM      7  C   UNL     1      35.422  15.542 124.091 -0.45 -0.00    +0.000 A 
DOCKED: ATOM      8  C   UNL     1      36.038  16.265 123.060 -0.32 -0.00    +0.000 A 
DOCKED: ATOM      9  C   UNL     1      36.765  15.577 122.078 -0.25 -0.00    +0.000 A 
DOCKED: ATOM     10  C   UNL     1      36.904  14.189 122.146 -0.34 -0.00    +0.000 A 
DOCKED: ATOM     11  CM  UNL     1      36.168  14.864 123.121 +0.00 -0.00    +0.000 AC
DOCKED: BRANCH   5  12
DOCKED: ATOM     12  C   UNL     1      36.812  11.259 122.135 -0.61 -0.00    +0.000 C 
DOCKED: ATOM     13  C   UNL     1      36.489  11.986 123.216 -0.68 -0.00    +0.000 C 
DOCKED: BRANCH  11  14
DOCKED: ATOM     14  O   UNL     1      37.065   9.178 121.064 -2.73 -0.00    +0.000 OA
DOCKED: ATOM     15  C   UNL     1      36.977   9.792 122.161 -0.61 -0.00    +0.000 C 
DOCKED: ATOM     16  N   UNL     1      37.014   9.046 123.384 -0.60 -0.00    +0.000 N 
DOCKED: ATOM     17  O   UNL     1      37.273   7.717 123.360 -2.58 -0.00    +0.000 OA
DOCKED: ATOM     18  H   UNL     1      36.851   9.500 124.241 -0.50 -0.00    +0.000 HD
DOCKED: ENDBRANCH  11  14
DOCKED: ENDBRANCH   5  12
DOCKED: ENDBRANCH   4   8
DOCKED: ENDBRANCH   1   4
DOCKED: BRANCH   1  18
DOCKED: ATOM     19  C   UNL     1      35.792  17.902 120.529 -0.21 -0.00    +0.000 C 
DOCKED: BRANCH  18  19
DOCKED: ATOM     20  C   UNL     1      35.254  18.790 119.395 -0.19 -0.00    +0.000 C 
DOCKED: BRANCH  19  20
DOCKED: ATOM     21  C   UNL     1      34.139  18.094 118.669 -0.18 -0.00    +0.000 A 
DOCKED: ATOM     22  C   UNL     1      34.249  17.208 117.595 -0.12 -0.00    +0.000 A 
DOCKED: ATOM     23  N   UNL     1      33.024  16.834 117.157 -0.17 -0.00    +0.000 N 
DOCKED: ATOM     24  C   UNL     1      32.140  17.490 117.928 -0.16 -0.00    +0.000 A 
DOCKED: ATOM     25  C   UNL     1      32.781  18.273 118.856 -0.26 -0.00    +0.000 A 
DOCKED: ATOM     26  C   UNL     1      32.073  19.070 119.758 -0.38 -0.00    +0.000 A 
DOCKED: ATOM     27  C   UNL     1      30.669  19.043 119.696 -0.41 -0.00    +0.000 A 
DOCKED: ATOM     28  C   UNL     1      30.010  18.233 118.744 -0.35 -0.00    +0.000 A 
DOCKED: ATOM     29  C   UNL     1      30.749  17.445 117.844 -0.24 -0.00    +0.000 A 
DOCKED: ATOM     30  C   UNL     1      35.528  16.714 117.000 -0.13 -0.00    +0.000 C 
DOCKED: ATOM     31  H   UNL     1      32.822  16.209 116.423 -0.00 -0.00    +0.000 HD
DOCKED: ATOM     32  CM  UNL     1      33.259  17.556 118.012 +0.00 -0.00    +0.000 AC
DOCKED: ATOM     33  CM  UNL     1      31.404  18.259 118.805 +0.00 -0.00    +0.000 AC
DOCKED: ENDBRANCH  19  20
DOCKED: ENDBRANCH  18  19
DOCKED: ENDBRANCH   1  18
DOCKED: TORSDOF 7DOCKED: TER
DOCKED: ENDMDL
________________________________________________________________________________


	BEGINNING GENETIC ALGORITHM DOCKING 89 of 100
Run: 89 Seed: 1314484143 1404102800 [ Run 89 of 100 GA/GALS ]
Beginning LAMARCKIAN GENETIC ALGORITHM (LGA), with a maximum of 2500000 energy evaluations.

Final-Value: -15.760


	FINAL GENETIC ALGORITHM DOCKED STATE
	_______________________________________________


Detailed state:  trans 37.551 17.933 121.487 quatxyzw -0.193272 0.702610 0.016838 -0.684618 center 0.576 -0.005 0.140 ntor 7 -5.3669 -4.9044 0.8483 -17.5706 -121.6451 90.3529 37.5999
State:	 37.551  17.933 121.487  -0.265  0.964  0.023 -93.589     -5.37   -4.90    0.85  -17.57 -121.65   90.35   37.60

DOCKED: MODEL       89
DOCKED: USER    Run = 89
DOCKED: USER    DPF = ligand_dock.biased.dpf
DOCKED: USER  
DOCKED: USER    Estimated Free Energy of Binding    =  -11.79 kcal/mol  [=(1)+(2)+(3)-(4)]
DOCKED: USER    Estimated Inhibition Constant, Ki   =    2.28 nM (nanomolar)  [Temperature = 298.15 K]
DOCKED: USER    
DOCKED: USER    (1) Final Intermolecular Energy     =  -13.88 kcal/mol
DOCKED: USER        vdW + Hbond + desolv Energy     =  -13.88 kcal/mol
DOCKED: USER        Electrostatic Energy            =   +0.00 kcal/mol
DOCKED: USER    (2) Final Total Internal Energy     =   -1.88 kcal/mol
DOCKED: USER    (3) Torsional Free Energy           =   +2.09 kcal/mol
DOCKED: USER    (4) Unbound System's Energy  [=(2)] =   -1.88 kcal/mol
DOCKED: USER    
DOCKED: USER    
DOCKED: USER    NEWDPF move ligand.dum.pdbqt
DOCKED: USER    NEWDPF about 0.576000 -0.005000 0.140000
DOCKED: USER    NEWDPF tran0 37.550623 17.933061 121.487227
DOCKED: USER    NEWDPF quaternion0 -0.193272 0.702610 0.016838 -0.684618
DOCKED: USER    NEWDPF axisangle0 -0.265154 0.963929 0.023101 -93.588920
DOCKED: USER    NEWDPF quat0 -0.265154 0.963929 0.023101 -93.588920
DOCKED: USER    NEWDPF dihe0 -5.37 -4.90 0.85 -17.57 -121.65 90.35 37.60 
DOCKED: USER  keepresnum = 1 
DOCKED: USER  
DOCKED: REMARK  Name = 
DOCKED: REMARK  8 active torsions:
DOCKED: REMARK  status: ('A' for Active; 'I' for Inactive)
DOCKED: REMARK    1  A    between atoms: C_2  and  C_3
DOCKED: REMARK    2  A    between atoms: C_4  and  C_5
DOCKED: REMARK    3  A    between atoms: C_8  and  C_9
DOCKED: REMARK    4  A    between atoms: C_9  and  N_10
DOCKED: REMARK    5  A    between atoms: N_10  and  C_11
DOCKED: REMARK    6  A    between atoms: C_11  and  C_12
DOCKED: REMARK    7  A    between atoms: C_12  and  C_13
DOCKED: REMARK    8  A    between atoms: C_14  and  C_22
DOCKED: REMARK                            x       y       z     vdW  Elec       q    Type
DOCKED: REMARK                         _______ _______ _______ _____ _____    ______ ____
DOCKED: USER                              x       y       z     vdW  Elec       q    Type
DOCKED: USER                           _______ _______ _______ _____ _____    ______ ____
DOCKED: ROOT
DOCKED: ATOM      1  N   UNL     1      37.799  18.309 122.126 -0.09 -0.00    +0.000 N 
DOCKED: ATOM      2  H   UNL     1      38.145  19.004 121.464 +0.00 -0.00    +0.000 HD
DOCKED: ATOM      3  H   UNL     1      38.493  17.583 122.301 +0.00 -0.00    +0.000 HD
DOCKED: ENDROOT
DOCKED: BRANCH   1   4
DOCKED: ATOM      4  C   UNL     1      36.611  17.664 121.554 -0.18 -0.00    +0.000 C 
DOCKED: BRANCH   4   8
DOCKED: ATOM      5  C   UNL     1      36.909  13.403 122.234 -0.43 -0.00    +0.000 A 
DOCKED: ATOM      6  C   UNL     1      37.153  13.943 120.955 -0.30 -0.00    +0.000 A 
DOCKED: ATOM      7  C   UNL     1      37.044  15.320 120.736 -0.20 -0.00    +0.000 A 
DOCKED: ATOM      8  C   UNL     1      36.687  16.180 121.784 -0.21 -0.00    +0.000 A 
DOCKED: ATOM      9  C   UNL     1      36.477  15.650 123.066 -0.34 -0.00    +0.000 A 
DOCKED: ATOM     10  C   UNL     1      36.587  14.275 123.287 -0.45 -0.00    +0.000 A 
DOCKED: ATOM     11  CM  UNL     1      36.809  14.796 122.011 +0.00 -0.00    +0.000 AC
DOCKED: BRANCH   5  12
DOCKED: ATOM     12  C   UNL     1      36.830  10.992 121.607 -0.52 -0.00    +0.000 C 
DOCKED: ATOM     13  C   UNL     1      37.022  11.952 122.525 -0.61 -0.00    +0.000 C 
DOCKED: BRANCH  11  14
DOCKED: ATOM     14  O   UNL     1      36.959   8.738 120.939 -2.57 -0.00    +0.000 OA
DOCKED: ATOM     15  C   UNL     1      36.943   9.549 121.903 -0.62 -0.00    +0.000 C 
DOCKED: ATOM     16  N   UNL     1      37.005   9.043 123.243 -0.63 -0.00    +0.000 N 
DOCKED: ATOM     17  O   UNL     1      37.213   7.724 123.460 -2.66 -0.00    +0.000 OA
DOCKED: ATOM     18  H   UNL     1      36.897   9.657 124.005 -0.49 -0.00    +0.000 HD
DOCKED: ENDBRANCH  11  14
DOCKED: ENDBRANCH   5  12
DOCKED: ENDBRANCH   4   8
DOCKED: ENDBRANCH   1   4
DOCKED: BRANCH   1  18
DOCKED: ATOM     19  C   UNL     1      37.512  18.975 123.405 -0.13 -0.00    +0.000 C 
DOCKED: BRANCH  18  19
DOCKED: ATOM     20  C   UNL     1      38.172  18.266 124.599 -0.20 -0.00    +0.000 C 
DOCKED: BRANCH  19  20
DOCKED: ATOM     21  C   UNL     1      39.646  18.108 124.365 -0.22 -0.00    +0.000 A 
DOCKED: ATOM     22  C   UNL     1      40.664  18.988 124.738 -0.20 -0.00    +0.000 A 
DOCKED: ATOM     23  N   UNL     1      41.865  18.544 124.298 -0.17 -0.00    +0.000 N 
DOCKED: ATOM     24  C   UNL     1      41.615  17.403 123.633 -0.31 -0.00    +0.000 A 
DOCKED: ATOM     25  C   UNL     1      40.274  17.108 123.646 -0.22 -0.00    +0.000 A 
DOCKED: ATOM     26  C   UNL     1      39.765  15.981 122.999 -0.20 -0.00    +0.000 A 
DOCKED: ATOM     27  C   UNL     1      40.674  15.140 122.332 -0.43 -0.00    +0.000 A 
DOCKED: ATOM     28  C   UNL     1      42.054  15.442 122.324 -0.44 -0.00    +0.000 A 
DOCKED: ATOM     29  C   UNL     1      42.538  16.588 122.979 -0.39 -0.00    +0.000 A 
DOCKED: ATOM     30  C   UNL     1      40.484  20.246 125.525 -0.12 -0.00    +0.000 C 
DOCKED: ATOM     31  H   UNL     1      42.742  18.971 124.436 -0.56 -0.00    +0.000 HD
DOCKED: ATOM     32  CM  UNL     1      40.847  18.047 124.141 +0.00 -0.00    +0.000 AC
DOCKED: ATOM     33  CM  UNL     1      41.153  16.276 122.985 +0.00 -0.00    +0.000 AC
DOCKED: ENDBRANCH  19  20
DOCKED: ENDBRANCH  18  19
DOCKED: ENDBRANCH   1  18
DOCKED: TORSDOF 7DOCKED: TER
DOCKED: ENDMDL
________________________________________________________________________________


	BEGINNING GENETIC ALGORITHM DOCKING 90 of 100
Run: 90 Seed: 39562193 311853673 [ Run 90 of 100 GA/GALS ]
Beginning LAMARCKIAN GENETIC ALGORITHM (LGA), with a maximum of 2500000 energy evaluations.

Final-Value: -14.306


	FINAL GENETIC ALGORITHM DOCKED STATE
	_______________________________________________


Detailed state:  trans 37.057 17.265 124.559 quatxyzw -0.455833 0.320356 -0.681677 -0.474242 center 0.576 -0.005 0.140 ntor 7 139.1659 -179.3104 -177.9630 41.9712 101.2399 -49.4357 -165.7104
State:	 37.057  17.265 124.559  -0.518  0.364 -0.774 -123.380    139.17 -179.31 -177.96   41.97  101.24  -49.44 -165.71

DOCKED: MODEL       90
DOCKED: USER    Run = 90
DOCKED: USER    DPF = ligand_dock.biased.dpf
DOCKED: USER  
DOCKED: USER    Estimated Free Energy of Binding    =  -10.72 kcal/mol  [=(1)+(2)+(3)-(4)]
DOCKED: USER    Estimated Inhibition Constant, Ki   =   13.98 nM (nanomolar)  [Temperature = 298.15 K]
DOCKED: USER    
DOCKED: USER    (1) Final Intermolecular Energy     =  -12.80 kcal/mol
DOCKED: USER        vdW + Hbond + desolv Energy     =  -12.80 kcal/mol
DOCKED: USER        Electrostatic Energy            =   +0.00 kcal/mol
DOCKED: USER    (2) Final Total Internal Energy     =   -1.50 kcal/mol
DOCKED: USER    (3) Torsional Free Energy           =   +2.09 kcal/mol
DOCKED: USER    (4) Unbound System's Energy  [=(2)] =   -1.50 kcal/mol
DOCKED: USER    
DOCKED: USER    
DOCKED: USER    NEWDPF move ligand.dum.pdbqt
DOCKED: USER    NEWDPF about 0.576000 -0.005000 0.140000
DOCKED: USER    NEWDPF tran0 37.057110 17.264554 124.558817
DOCKED: USER    NEWDPF quaternion0 -0.455833 0.320356 -0.681677 -0.474242
DOCKED: USER    NEWDPF axisangle0 -0.517760 0.363877 -0.774285 -123.380027
DOCKED: USER    NEWDPF quat0 -0.517760 0.363877 -0.774285 -123.380027
DOCKED: USER    NEWDPF dihe0 139.17 -179.31 -177.96 41.97 101.24 -49.44 -165.71 
DOCKED: USER  keepresnum = 1 
DOCKED: USER  
DOCKED: REMARK  Name = 
DOCKED: REMARK  8 active torsions:
DOCKED: REMARK  status: ('A' for Active; 'I' for Inactive)
DOCKED: REMARK    1  A    between atoms: C_2  and  C_3
DOCKED: REMARK    2  A    between atoms: C_4  and  C_5
DOCKED: REMARK    3  A    between atoms: C_8  and  C_9
DOCKED: REMARK    4  A    between atoms: C_9  and  N_10
DOCKED: REMARK    5  A    between atoms: N_10  and  C_11
DOCKED: REMARK    6  A    between atoms: C_11  and  C_12
DOCKED: REMARK    7  A    between atoms: C_12  and  C_13
DOCKED: REMARK    8  A    between atoms: C_14  and  C_22
DOCKED: REMARK                            x       y       z     vdW  Elec       q    Type
DOCKED: REMARK                         _______ _______ _______ _____ _____    ______ ____
DOCKED: USER                              x       y       z     vdW  Elec       q    Type
DOCKED: USER                           _______ _______ _______ _____ _____    ______ ____
DOCKED: ROOT
DOCKED: ATOM      1  N   UNL     1      37.479  17.887 124.344 -0.21 -0.00    +0.000 N 
DOCKED: ATOM      2  H   UNL     1      38.192  17.200 124.103 -0.02 -0.00    +0.000 HD
DOCKED: ATOM      3  H   UNL     1      37.560  18.184 125.317 -0.01 -0.00    +0.000 HD
DOCKED: ENDROOT
DOCKED: BRANCH   1   4
DOCKED: ATOM      4  C   UNL     1      36.156  17.273 124.174 -0.30 -0.00    +0.000 C 
DOCKED: BRANCH   4   8
DOCKED: ATOM      5  C   UNL     1      36.678  13.257 122.655 -0.49 -0.00    +0.000 A 
DOCKED: ATOM      6  C   UNL     1      37.401  14.333 122.101 -0.37 -0.00    +0.000 A 
DOCKED: ATOM      7  C   UNL     1      37.221  15.631 122.587 -0.29 -0.00    +0.000 A 
DOCKED: ATOM      8  C   UNL     1      36.317  15.881 123.628 -0.35 -0.00    +0.000 A 
DOCKED: ATOM      9  C   UNL     1      35.620  14.809 124.204 -0.46 -0.00    +0.000 A 
DOCKED: ATOM     10  C   UNL     1      35.799  13.511 123.722 -0.48 -0.00    +0.000 A 
DOCKED: ATOM     11  CM  UNL     1      36.506  14.571 123.150 +0.00 -0.00    +0.000 AC
DOCKED: BRANCH   5  12
DOCKED: ATOM     12  C   UNL     1      36.521  10.785 122.927 -0.69 -0.00    +0.000 C 
DOCKED: ATOM     13  C   UNL     1      36.839  11.858 122.187 -0.60 -0.00    +0.000 C 
DOCKED: BRANCH  11  14
DOCKED: ATOM     14  O   UNL     1      36.693   9.177 121.215 -2.62 -0.00    +0.000 OA
DOCKED: ATOM     15  C   UNL     1      36.686   9.394 122.456 -0.72 -0.00    +0.000 C 
DOCKED: ATOM     16  N   UNL     1      36.809   8.288 123.359 -0.70 -0.00    +0.000 N 
DOCKED: ATOM     17  O   UNL     1      37.063   7.048 122.880 -1.87 -0.00    +0.000 OA
DOCKED: ATOM     18  H   UNL     1      36.709   8.431 124.327 -0.38 -0.00    +0.000 HD
DOCKED: ENDBRANCH  11  14
DOCKED: ENDBRANCH   5  12
DOCKED: ENDBRANCH   4   8
DOCKED: ENDBRANCH   1   4
DOCKED: BRANCH   1  18
DOCKED: ATOM     19  C   UNL     1      37.658  19.074 123.496 -0.13 -0.00    +0.000 C 
DOCKED: BRANCH  18  19
DOCKED: ATOM     20  C   UNL     1      38.305  18.738 122.142 -0.08 -0.00    +0.000 C 
DOCKED: BRANCH  19  20
DOCKED: ATOM     21  C   UNL     1      39.799  18.666 122.280 -0.07 -0.00    +0.000 A 
DOCKED: ATOM     22  C   UNL     1      40.713  19.716 122.172 -0.04 -0.00    +0.000 A 
DOCKED: ATOM     23  N   UNL     1      41.982  19.259 122.287 -0.08 -0.00    +0.000 N 
DOCKED: ATOM     24  C   UNL     1      41.881  17.928 122.445 -0.18 -0.00    +0.000 A 
DOCKED: ATOM     25  C   UNL     1      40.568  17.528 122.439 -0.17 -0.00    +0.000 A 
DOCKED: ATOM     26  C   UNL     1      40.210  16.185 122.564 -0.29 -0.00    +0.000 A 
DOCKED: ATOM     27  C   UNL     1      41.242  15.241 122.707 -0.48 -0.00    +0.000 A 
DOCKED: ATOM     28  C   UNL     1      42.593  15.653 122.719 -0.38 -0.00    +0.000 A 
DOCKED: ATOM     29  C   UNL     1      42.925  17.013 122.584 -0.33 -0.00    +0.000 A 
DOCKED: ATOM     30  C   UNL     1      40.366  21.156 121.971 -0.01 -0.00    +0.000 C 
DOCKED: ATOM     31  H   UNL     1      42.809  19.792 122.259 +0.00 -0.00    +0.000 HD
DOCKED: ATOM     32  CM  UNL     1      41.021  18.640 122.323 +0.00 -0.00    +0.000 AC
DOCKED: ATOM     33  CM  UNL     1      41.570  16.591 122.577 +0.00 -0.00    +0.000 AC
DOCKED: ENDBRANCH  19  20
DOCKED: ENDBRANCH  18  19
DOCKED: ENDBRANCH   1  18
DOCKED: TORSDOF 7DOCKED: TER
DOCKED: ENDMDL
________________________________________________________________________________


	BEGINNING GENETIC ALGORITHM DOCKING 91 of 100
Run: 91 Seed: 1284623482 1301259631 [ Run 91 of 100 GA/GALS ]
Beginning LAMARCKIAN GENETIC ALGORITHM (LGA), with a maximum of 2500000 energy evaluations.

Final-Value: -15.344


	FINAL GENETIC ALGORITHM DOCKED STATE
	_______________________________________________


Detailed state:  trans 35.122 17.519 123.694 quatxyzw -0.193143 0.067762 0.736837 0.644341 center 0.576 -0.005 0.140 ntor 7 -11.0779 -19.2965 173.0081 -65.5368 126.6650 -23.6759 120.0558
State:	 35.122  17.519 123.694  -0.253  0.089  0.964 99.767    -11.08  -19.30  173.01  -65.54  126.67  -23.68  120.06

DOCKED: MODEL       91
DOCKED: USER    Run = 91
DOCKED: USER    DPF = ligand_dock.biased.dpf
DOCKED: USER  
DOCKED: USER    Estimated Free Energy of Binding    =  -11.89 kcal/mol  [=(1)+(2)+(3)-(4)]
DOCKED: USER    Estimated Inhibition Constant, Ki   =    1.93 nM (nanomolar)  [Temperature = 298.15 K]
DOCKED: USER    
DOCKED: USER    (1) Final Intermolecular Energy     =  -13.98 kcal/mol
DOCKED: USER        vdW + Hbond + desolv Energy     =  -13.98 kcal/mol
DOCKED: USER        Electrostatic Energy            =   +0.00 kcal/mol
DOCKED: USER    (2) Final Total Internal Energy     =   -1.37 kcal/mol
DOCKED: USER    (3) Torsional Free Energy           =   +2.09 kcal/mol
DOCKED: USER    (4) Unbound System's Energy  [=(2)] =   -1.37 kcal/mol
DOCKED: USER    
DOCKED: USER    
DOCKED: USER    NEWDPF move ligand.dum.pdbqt
DOCKED: USER    NEWDPF about 0.576000 -0.005000 0.140000
DOCKED: USER    NEWDPF tran0 35.122031 17.518753 123.693892
DOCKED: USER    NEWDPF quaternion0 -0.193143 0.067762 0.736837 0.644341
DOCKED: USER    NEWDPF axisangle0 -0.252562 0.088608 0.963515 99.767398
DOCKED: USER    NEWDPF quat0 -0.252562 0.088608 0.963515 99.767398
DOCKED: USER    NEWDPF dihe0 -11.08 -19.30 173.01 -65.54 126.67 -23.68 120.06 
DOCKED: USER  keepresnum = 1 
DOCKED: USER  
DOCKED: REMARK  Name = 
DOCKED: REMARK  8 active torsions:
DOCKED: REMARK  status: ('A' for Active; 'I' for Inactive)
DOCKED: REMARK    1  A    between atoms: C_2  and  C_3
DOCKED: REMARK    2  A    between atoms: C_4  and  C_5
DOCKED: REMARK    3  A    between atoms: C_8  and  C_9
DOCKED: REMARK    4  A    between atoms: C_9  and  N_10
DOCKED: REMARK    5  A    between atoms: N_10  and  C_11
DOCKED: REMARK    6  A    between atoms: C_11  and  C_12
DOCKED: REMARK    7  A    between atoms: C_12  and  C_13
DOCKED: REMARK    8  A    between atoms: C_14  and  C_22
DOCKED: REMARK                            x       y       z     vdW  Elec       q    Type
DOCKED: REMARK                         _______ _______ _______ _____ _____    ______ ____
DOCKED: USER                              x       y       z     vdW  Elec       q    Type
DOCKED: USER                           _______ _______ _______ _____ _____    ______ ____
DOCKED: ROOT
DOCKED: ATOM      1  N   UNL     1      35.187  18.146 124.156 -0.28 -0.00    +0.000 N 
DOCKED: ATOM      2  H   UNL     1      35.576  17.487 124.831 -0.01 -0.00    +0.000 HD
DOCKED: ATOM      3  H   UNL     1      34.172  18.208 124.238 -0.02 -0.00    +0.000 HD
DOCKED: ENDROOT
DOCKED: BRANCH   1   4
DOCKED: ATOM      4  C   UNL     1      35.498  17.672 122.802 -0.31 -0.00    +0.000 C 
DOCKED: BRANCH   4   8
DOCKED: ATOM      5  C   UNL     1      36.324  13.429 122.952 -0.47 -0.00    +0.000 A 
DOCKED: ATOM      6  C   UNL     1      36.904  14.237 121.953 -0.30 -0.00    +0.000 A 
DOCKED: ATOM      7  C   UNL     1      36.626  15.606 121.900 -0.22 -0.00    +0.000 A 
DOCKED: ATOM      8  C   UNL     1      35.764  16.192 122.838 -0.31 -0.00    +0.000 A 
DOCKED: ATOM      9  C   UNL     1      35.211  15.398 123.854 -0.49 -0.00    +0.000 A 
DOCKED: ATOM     10  C   UNL     1      35.489  14.030 123.909 -0.43 -0.00    +0.000 A 
DOCKED: ATOM     11  CM  UNL     1      36.053  14.815 122.901 +0.00 -0.00    +0.000 AC
DOCKED: BRANCH   5  12
DOCKED: ATOM     12  C   UNL     1      36.653  11.146 122.007 -0.62 -0.00    +0.000 C 
DOCKED: ATOM     13  C   UNL     1      36.595  11.973 123.062 -0.67 -0.00    +0.000 C 
DOCKED: BRANCH  11  14
DOCKED: ATOM     14  O   UNL     1      37.061   9.027 121.066 -2.72 -0.00    +0.000 OA
DOCKED: ATOM     15  C   UNL     1      36.921   9.698 122.123 -0.63 -0.00    +0.000 C 
DOCKED: ATOM     16  N   UNL     1      36.998   9.031 123.389 -0.60 -0.00    +0.000 N 
DOCKED: ATOM     17  O   UNL     1      37.349   7.725 123.447 -2.62 -0.00    +0.000 OA
DOCKED: ATOM     18  H   UNL     1      36.796   9.523 124.217 -0.51 -0.00    +0.000 HD
DOCKED: ENDBRANCH  11  14
DOCKED: ENDBRANCH   5  12
DOCKED: ENDBRANCH   4   8
DOCKED: ENDBRANCH   1   4
DOCKED: BRANCH   1  18
DOCKED: ATOM     19  C   UNL     1      35.743  19.480 124.423 -0.21 -0.00    +0.000 C 
DOCKED: BRANCH  18  19
DOCKED: ATOM     20  C   UNL     1      35.705  19.847 125.916 -0.16 -0.00    +0.000 C 
DOCKED: BRANCH  19  20
DOCKED: ATOM     21  C   UNL     1      34.297  19.785 126.434 -0.17 -0.00    +0.000 A 
DOCKED: ATOM     22  C   UNL     1      33.398  20.843 126.578 -0.16 -0.00    +0.000 A 
DOCKED: ATOM     23  N   UNL     1      32.243  20.418 127.142 -0.21 -0.00    +0.000 N 
DOCKED: ATOM     24  C   UNL     1      32.411  19.105 127.377 -0.21 -0.00    +0.000 A 
DOCKED: ATOM     25  C   UNL     1      33.651  18.684 126.966 -0.23 -0.00    +0.000 A 
DOCKED: ATOM     26  C   UNL     1      34.067  17.362 127.127 -0.26 -0.00    +0.000 A 
DOCKED: ATOM     27  C   UNL     1      33.168  16.458 127.721 -0.39 -0.00    +0.000 A 
DOCKED: ATOM     28  C   UNL     1      31.890  16.890 128.139 -0.38 -0.00    +0.000 A 
DOCKED: ATOM     29  C   UNL     1      31.500  18.231 127.969 -0.23 -0.00    +0.000 A 
DOCKED: ATOM     30  C   UNL     1      33.644  22.259 126.162 -0.18 -0.00    +0.000 C 
DOCKED: ATOM     31  H   UNL     1      31.445  20.959 127.340 -0.00 -0.00    +0.000 HD
DOCKED: ATOM     32  CM  UNL     1      33.169  19.788 126.907 +0.00 -0.00    +0.000 AC
DOCKED: ATOM     33  CM  UNL     1      32.782  17.788 127.550 +0.00 -0.00    +0.000 AC
DOCKED: ENDBRANCH  19  20
DOCKED: ENDBRANCH  18  19
DOCKED: ENDBRANCH   1  18
DOCKED: TORSDOF 7DOCKED: TER
DOCKED: ENDMDL
________________________________________________________________________________


	BEGINNING GENETIC ALGORITHM DOCKING 92 of 100
Run: 92 Seed: 414896876 75232954 [ Run 92 of 100 GA/GALS ]
Beginning LAMARCKIAN GENETIC ALGORITHM (LGA), with a maximum of 2500000 energy evaluations.

Final-Value: -14.980


	FINAL GENETIC ALGORITHM DOCKED STATE
	_______________________________________________


Detailed state:  trans 37.388 17.417 124.494 quatxyzw 0.032367 -0.239566 0.575937 0.780933 center 0.576 -0.005 0.140 ntor 7 -41.5283 164.2806 166.6340 -179.9431 -171.4270 22.2678 -177.1711
State:	 37.388  17.417 124.494   0.052 -0.384  0.922 77.308    -41.53  164.28  166.63 -179.94 -171.43   22.27 -177.17

DOCKED: MODEL       92
DOCKED: USER    Run = 92
DOCKED: USER    DPF = ligand_dock.biased.dpf
DOCKED: USER  
DOCKED: USER    Estimated Free Energy of Binding    =  -11.24 kcal/mol  [=(1)+(2)+(3)-(4)]
DOCKED: USER    Estimated Inhibition Constant, Ki   =    5.72 nM (nanomolar)  [Temperature = 298.15 K]
DOCKED: USER    
DOCKED: USER    (1) Final Intermolecular Energy     =  -13.33 kcal/mol
DOCKED: USER        vdW + Hbond + desolv Energy     =  -13.33 kcal/mol
DOCKED: USER        Electrostatic Energy            =   +0.00 kcal/mol
DOCKED: USER    (2) Final Total Internal Energy     =   -1.65 kcal/mol
DOCKED: USER    (3) Torsional Free Energy           =   +2.09 kcal/mol
DOCKED: USER    (4) Unbound System's Energy  [=(2)] =   -1.65 kcal/mol
DOCKED: USER    
DOCKED: USER    
DOCKED: USER    NEWDPF move ligand.dum.pdbqt
DOCKED: USER    NEWDPF about 0.576000 -0.005000 0.140000
DOCKED: USER    NEWDPF tran0 37.388207 17.416593 124.494424
DOCKED: USER    NEWDPF quaternion0 0.032367 -0.239566 0.575937 0.780933
DOCKED: USER    NEWDPF axisangle0 0.051819 -0.383543 0.922068 77.307772
DOCKED: USER    NEWDPF quat0 0.051819 -0.383543 0.922068 77.307772
DOCKED: USER    NEWDPF dihe0 -41.53 164.28 166.63 -179.94 -171.43 22.27 -177.17 
DOCKED: USER  keepresnum = 1 
DOCKED: USER  
DOCKED: REMARK  Name = 
DOCKED: REMARK  8 active torsions:
DOCKED: REMARK  status: ('A' for Active; 'I' for Inactive)
DOCKED: REMARK    1  A    between atoms: C_2  and  C_3
DOCKED: REMARK    2  A    between atoms: C_4  and  C_5
DOCKED: REMARK    3  A    between atoms: C_8  and  C_9
DOCKED: REMARK    4  A    between atoms: C_9  and  N_10
DOCKED: REMARK    5  A    between atoms: N_10  and  C_11
DOCKED: REMARK    6  A    between atoms: C_11  and  C_12
DOCKED: REMARK    7  A    between atoms: C_12  and  C_13
DOCKED: REMARK    8  A    between atoms: C_14  and  C_22
DOCKED: REMARK                            x       y       z     vdW  Elec       q    Type
DOCKED: REMARK                         _______ _______ _______ _____ _____    ______ ____
DOCKED: USER                              x       y       z     vdW  Elec       q    Type
DOCKED: USER                           _______ _______ _______ _____ _____    ______ ____
DOCKED: ROOT
DOCKED: ATOM      1  N   UNL     1      37.464  18.037 124.964 -0.17 -0.00    +0.000 N 
DOCKED: ATOM      2  H   UNL     1      38.423  17.710 125.082 -0.02 -0.00    +0.000 HD
DOCKED: ATOM      3  H   UNL     1      36.838  17.612 125.649 -0.01 -0.00    +0.000 HD
DOCKED: ENDROOT
DOCKED: BRANCH   1   4
DOCKED: ATOM      4  C   UNL     1      36.994  17.650 123.628 -0.23 -0.00    +0.000 C 
DOCKED: BRANCH   4   8
DOCKED: ATOM      5  C   UNL     1      36.549  13.355 123.366 -0.53 -0.00    +0.000 A 
DOCKED: ATOM      6  C   UNL     1      35.456  14.168 123.726 -0.44 -0.00    +0.000 A 
DOCKED: ATOM      7  C   UNL     1      35.606  15.555 123.822 -0.44 -0.00    +0.000 A 
DOCKED: ATOM      8  C   UNL     1      36.847  16.155 123.563 -0.29 -0.00    +0.000 A 
DOCKED: ATOM      9  C   UNL     1      37.928  15.352 123.172 -0.30 -0.00    +0.000 A 
DOCKED: ATOM     10  C   UNL     1      37.780  13.967 123.075 -0.45 -0.00    +0.000 A 
DOCKED: ATOM     11  CM  UNL     1      36.695  14.759 123.454 +0.00 -0.00    +0.000 AC
DOCKED: BRANCH   5  12
DOCKED: ATOM     12  C   UNL     1      37.067  11.169 122.286 -0.56 -0.00    +0.000 C 
DOCKED: ATOM     13  C   UNL     1      36.443  11.880 123.238 -0.69 -0.00    +0.000 C 
DOCKED: BRANCH  11  14
DOCKED: ATOM     14  O   UNL     1      37.152   9.177 121.034 -2.66 -0.00    +0.000 OA
DOCKED: ATOM     15  C   UNL     1      36.955   9.702 122.162 -0.62 -0.00    +0.000 C 
DOCKED: ATOM     16  N   UNL     1      36.607   8.863 123.271 -0.63 -0.00    +0.000 N 
DOCKED: ATOM     17  O   UNL     1      36.620   7.516 123.132 -2.16 -0.00    +0.000 OA
DOCKED: ATOM     18  H   UNL     1      36.357   9.267 124.133 -0.36 -0.00    +0.000 HD
DOCKED: ENDBRANCH  11  14
DOCKED: ENDBRANCH   5  12
DOCKED: ENDBRANCH   4   8
DOCKED: ENDBRANCH   1   4
DOCKED: BRANCH   1  18
DOCKED: ATOM     19  C   UNL     1      37.432  19.493 125.168 -0.14 -0.00    +0.000 C 
DOCKED: BRANCH  18  19
DOCKED: ATOM     20  C   UNL     1      38.829  20.130 125.091 -0.09 -0.00    +0.000 C 
DOCKED: BRANCH  19  20
DOCKED: ATOM     21  C   UNL     1      39.855  19.098 124.722 -0.16 -0.00    +0.000 A 
DOCKED: ATOM     22  C   UNL     1      40.770  18.470 125.569 -0.30 -0.00    +0.000 A 
DOCKED: ATOM     23  N   UNL     1      41.584  17.646 124.868 -0.31 -0.00    +0.000 N 
DOCKED: ATOM     24  C   UNL     1      41.208  17.763 123.583 -0.27 -0.00    +0.000 A 
DOCKED: ATOM     25  C   UNL     1      40.163  18.643 123.453 -0.14 -0.00    +0.000 A 
DOCKED: ATOM     26  C   UNL     1      39.613  18.948 122.207 -0.05 -0.00    +0.000 A 
DOCKED: ATOM     27  C   UNL     1      40.158  18.316 121.075 -0.05 -0.00    +0.000 A 
DOCKED: ATOM     28  C   UNL     1      41.230  17.406 121.211 -0.11 -0.00    +0.000 A 
DOCKED: ATOM     29  C   UNL     1      41.769  17.123 122.479 -0.26 -0.00    +0.000 A 
DOCKED: ATOM     30  C   UNL     1      40.852  18.651 127.051 -0.35 -0.00    +0.000 C 
DOCKED: ATOM     31  H   UNL     1      42.304  17.078 125.227 -0.53 -0.00    +0.000 HD
DOCKED: ATOM     32  CM  UNL     1      40.744  18.302 124.453 +0.00 -0.00    +0.000 AC
DOCKED: ATOM     33  CM  UNL     1      40.689  18.033 122.334 +0.00 -0.00    +0.000 AC
DOCKED: ENDBRANCH  19  20
DOCKED: ENDBRANCH  18  19
DOCKED: ENDBRANCH   1  18
DOCKED: TORSDOF 7DOCKED: TER
DOCKED: ENDMDL
________________________________________________________________________________


	BEGINNING GENETIC ALGORITHM DOCKING 93 of 100
Run: 93 Seed: 1325976859 1162966145 [ Run 93 of 100 GA/GALS ]
Beginning LAMARCKIAN GENETIC ALGORITHM (LGA), with a maximum of 2500000 energy evaluations.

Final-Value: -16.138


	FINAL GENETIC ALGORITHM DOCKED STATE
	_______________________________________________


Detailed state:  trans 37.267 17.346 124.084 quatxyzw 0.076435 -0.182215 0.657197 0.727357 center 0.576 -0.005 0.140 ntor 7 -19.1343 142.6553 -173.6867 165.0916 157.0938 5.2992 -154.4851
State:	 37.267  17.346 124.084   0.111 -0.266  0.958 86.669    -19.13  142.66 -173.69  165.09  157.09    5.30 -154.49

DOCKED: MODEL       93
DOCKED: USER    Run = 93
DOCKED: USER    DPF = ligand_dock.biased.dpf
DOCKED: USER  
DOCKED: USER    Estimated Free Energy of Binding    =  -12.17 kcal/mol  [=(1)+(2)+(3)-(4)]
DOCKED: USER    Estimated Inhibition Constant, Ki   =    1.20 nM (nanomolar)  [Temperature = 298.15 K]
DOCKED: USER    
DOCKED: USER    (1) Final Intermolecular Energy     =  -14.26 kcal/mol
DOCKED: USER        vdW + Hbond + desolv Energy     =  -14.26 kcal/mol
DOCKED: USER        Electrostatic Energy            =   +0.00 kcal/mol
DOCKED: USER    (2) Final Total Internal Energy     =   -1.88 kcal/mol
DOCKED: USER    (3) Torsional Free Energy           =   +2.09 kcal/mol
DOCKED: USER    (4) Unbound System's Energy  [=(2)] =   -1.88 kcal/mol
DOCKED: USER    
DOCKED: USER    
DOCKED: USER    NEWDPF move ligand.dum.pdbqt
DOCKED: USER    NEWDPF about 0.576000 -0.005000 0.140000
DOCKED: USER    NEWDPF tran0 37.267480 17.346429 124.083920
DOCKED: USER    NEWDPF quaternion0 0.076435 -0.182215 0.657197 0.727357
DOCKED: USER    NEWDPF axisangle0 0.111380 -0.265520 0.957650 86.669483
DOCKED: USER    NEWDPF quat0 0.111380 -0.265520 0.957650 86.669483
DOCKED: USER    NEWDPF dihe0 -19.13 142.66 -173.69 165.09 157.09 5.30 -154.49 
DOCKED: USER  keepresnum = 1 
DOCKED: USER  
DOCKED: REMARK  Name = 
DOCKED: REMARK  8 active torsions:
DOCKED: REMARK  status: ('A' for Active; 'I' for Inactive)
DOCKED: REMARK    1  A    between atoms: C_2  and  C_3
DOCKED: REMARK    2  A    between atoms: C_4  and  C_5
DOCKED: REMARK    3  A    between atoms: C_8  and  C_9
DOCKED: REMARK    4  A    between atoms: C_9  and  N_10
DOCKED: REMARK    5  A    between atoms: N_10  and  C_11
DOCKED: REMARK    6  A    between atoms: C_11  and  C_12
DOCKED: REMARK    7  A    between atoms: C_12  and  C_13
DOCKED: REMARK    8  A    between atoms: C_14  and  C_22
DOCKED: REMARK                            x       y       z     vdW  Elec       q    Type
DOCKED: REMARK                         _______ _______ _______ _____ _____    ______ ____
DOCKED: USER                              x       y       z     vdW  Elec       q    Type
DOCKED: USER                           _______ _______ _______ _____ _____    ______ ____
DOCKED: ROOT
DOCKED: ATOM      1  N   UNL     1      37.442  18.020 124.440 -0.20 -0.00    +0.000 N 
DOCKED: ATOM      2  H   UNL     1      38.334  17.569 124.644 -0.02 -0.00    +0.000 HD
DOCKED: ATOM      3  H   UNL     1      36.752  17.830 125.168 -0.01 -0.00    +0.000 HD
DOCKED: ENDROOT
DOCKED: BRANCH   1   4
DOCKED: ATOM      4  C   UNL     1      36.920  17.483 123.178 -0.23 -0.00    +0.000 C 
DOCKED: BRANCH   4   8
DOCKED: ATOM      5  C   UNL     1      36.876  13.159 123.278 -0.53 -0.00    +0.000 A 
DOCKED: ATOM      6  C   UNL     1      35.880  13.901 123.943 -0.46 -0.00    +0.000 A 
DOCKED: ATOM      7  C   UNL     1      35.903  15.299 123.919 -0.42 -0.00    +0.000 A 
DOCKED: ATOM      8  C   UNL     1      36.921  15.980 123.235 -0.30 -0.00    +0.000 A 
DOCKED: ATOM      9  C   UNL     1      37.895  15.245 122.544 -0.32 -0.00    +0.000 A 
DOCKED: ATOM     10  C   UNL     1      37.872  13.848 122.567 -0.44 -0.00    +0.000 A 
DOCKED: ATOM     11  CM  UNL     1      36.891  14.572 123.247 +0.00 -0.00    +0.000 AC
DOCKED: BRANCH   5  12
DOCKED: ATOM     12  C   UNL     1      36.828  10.942 122.139 -0.60 -0.00    +0.000 C 
DOCKED: ATOM     13  C   UNL     1      36.892  11.675 123.262 -0.68 -0.00    +0.000 C 
DOCKED: BRANCH  11  14
DOCKED: ATOM     14  O   UNL     1      36.731   8.871 121.024 -2.62 -0.00    +0.000 OA
DOCKED: ATOM     15  C   UNL     1      36.843   9.466 122.129 -0.67 -0.00    +0.000 C 
DOCKED: ATOM     16  N   UNL     1      36.951   8.691 123.330 -0.66 -0.00    +0.000 N 
DOCKED: ATOM     17  O   UNL     1      37.065   7.344 123.260 -2.37 -0.00    +0.000 OA
DOCKED: ATOM     18  H   UNL     1      36.943   9.140 124.206 -0.54 -0.00    +0.000 HD
DOCKED: ENDBRANCH  11  14
DOCKED: ENDBRANCH   5  12
DOCKED: ENDBRANCH   4   8
DOCKED: ENDBRANCH   1   4
DOCKED: BRANCH   1  18
DOCKED: ATOM     19  C   UNL     1      37.649  19.475 124.386 -0.13 -0.00    +0.000 C 
DOCKED: BRANCH  18  19
DOCKED: ATOM     20  C   UNL     1      38.975  19.857 123.709 -0.07 -0.00    +0.000 C 
DOCKED: BRANCH  19  20
DOCKED: ATOM     21  C   UNL     1      39.982  18.755 123.870 -0.15 -0.00    +0.000 A 
DOCKED: ATOM     22  C   UNL     1      40.812  18.517 124.967 -0.27 -0.00    +0.000 A 
DOCKED: ATOM     23  N   UNL     1      41.638  17.472 124.725 -0.31 -0.00    +0.000 N 
DOCKED: ATOM     24  C   UNL     1      41.354  17.060 123.478 -0.32 -0.00    +0.000 A 
DOCKED: ATOM     25  C   UNL     1      40.355  17.821 122.921 -0.17 -0.00    +0.000 A 
DOCKED: ATOM     26  C   UNL     1      39.902  17.597 121.620 -0.10 -0.00    +0.000 A 
DOCKED: ATOM     27  C   UNL     1      40.496  16.554 120.888 -0.15 -0.00    +0.000 A 
DOCKED: ATOM     28  C   UNL     1      41.520  15.769 121.463 -0.28 -0.00    +0.000 A 
DOCKED: ATOM     29  C   UNL     1      41.961  16.021 122.774 -0.42 -0.00    +0.000 A 
DOCKED: ATOM     30  C   UNL     1      40.802  19.285 126.250 -0.25 -0.00    +0.000 C 
DOCKED: ATOM     31  H   UNL     1      42.310  17.093 125.337 -0.55 -0.00    +0.000 HD
DOCKED: ATOM     32  CM  UNL     1      40.854  17.910 124.016 +0.00 -0.00    +0.000 AC
DOCKED: ATOM     33  CM  UNL     1      40.931  16.803 122.190 +0.00 -0.00    +0.000 AC
DOCKED: ENDBRANCH  19  20
DOCKED: ENDBRANCH  18  19
DOCKED: ENDBRANCH   1  18
DOCKED: TORSDOF 7DOCKED: TER
DOCKED: ENDMDL
________________________________________________________________________________


	BEGINNING GENETIC ALGORITHM DOCKING 94 of 100
Run: 94 Seed: 732370805 1754578342 [ Run 94 of 100 GA/GALS ]
Beginning LAMARCKIAN GENETIC ALGORITHM (LGA), with a maximum of 2500000 energy evaluations.

Final-Value: -15.380


	FINAL GENETIC ALGORITHM DOCKED STATE
	_______________________________________________


Detailed state:  trans 35.846 18.441 123.274 quatxyzw -0.655583 -0.602534 -0.261758 -0.372352 center 0.576 -0.005 0.140 ntor 7 -18.3554 -54.0977 7.7902 166.5251 -62.1251 -172.3816 158.8805
State:	 35.846  18.441 123.274  -0.706 -0.649 -0.282 -136.278    -18.36  -54.10    7.79  166.53  -62.13 -172.38  158.88

DOCKED: MODEL       94
DOCKED: USER    Run = 94
DOCKED: USER    DPF = ligand_dock.biased.dpf
DOCKED: USER  
DOCKED: USER    Estimated Free Energy of Binding    =  -11.48 kcal/mol  [=(1)+(2)+(3)-(4)]
DOCKED: USER    Estimated Inhibition Constant, Ki   =    3.82 nM (nanomolar)  [Temperature = 298.15 K]
DOCKED: USER    
DOCKED: USER    (1) Final Intermolecular Energy     =  -13.57 kcal/mol
DOCKED: USER        vdW + Hbond + desolv Energy     =  -13.57 kcal/mol
DOCKED: USER        Electrostatic Energy            =   +0.00 kcal/mol
DOCKED: USER    (2) Final Total Internal Energy     =   -1.81 kcal/mol
DOCKED: USER    (3) Torsional Free Energy           =   +2.09 kcal/mol
DOCKED: USER    (4) Unbound System's Energy  [=(2)] =   -1.81 kcal/mol
DOCKED: USER    
DOCKED: USER    
DOCKED: USER    NEWDPF move ligand.dum.pdbqt
DOCKED: USER    NEWDPF about 0.576000 -0.005000 0.140000
DOCKED: USER    NEWDPF tran0 35.846073 18.441306 123.273904
DOCKED: USER    NEWDPF quaternion0 -0.655583 -0.602534 -0.261758 -0.372352
DOCKED: USER    NEWDPF axisangle0 -0.706377 -0.649219 -0.282039 -136.278489
DOCKED: USER    NEWDPF quat0 -0.706377 -0.649219 -0.282039 -136.278489
DOCKED: USER    NEWDPF dihe0 -18.36 -54.10 7.79 166.53 -62.13 -172.38 158.88 
DOCKED: USER  keepresnum = 1 
DOCKED: USER  
DOCKED: REMARK  Name = 
DOCKED: REMARK  8 active torsions:
DOCKED: REMARK  status: ('A' for Active; 'I' for Inactive)
DOCKED: REMARK    1  A    between atoms: C_2  and  C_3
DOCKED: REMARK    2  A    between atoms: C_4  and  C_5
DOCKED: REMARK    3  A    between atoms: C_8  and  C_9
DOCKED: REMARK    4  A    between atoms: C_9  and  N_10
DOCKED: REMARK    5  A    between atoms: N_10  and  C_11
DOCKED: REMARK    6  A    between atoms: C_11  and  C_12
DOCKED: REMARK    7  A    between atoms: C_12  and  C_13
DOCKED: REMARK    8  A    between atoms: C_14  and  C_22
DOCKED: REMARK                            x       y       z     vdW  Elec       q    Type
DOCKED: REMARK                         _______ _______ _______ _____ _____    ______ ____
DOCKED: USER                              x       y       z     vdW  Elec       q    Type
DOCKED: USER                           _______ _______ _______ _____ _____    ______ ____
DOCKED: ROOT
DOCKED: ATOM      1  N   UNL     1      35.836  18.266 122.512 -0.21 -0.00    +0.000 N 
DOCKED: ATOM      2  H   UNL     1      36.530  19.009 122.430 +0.00 -0.00    +0.000 HD
DOCKED: ATOM      3  H   UNL     1      34.887  18.630 122.427 -0.01 -0.00    +0.000 HD
DOCKED: ENDROOT
DOCKED: BRANCH   1   4
DOCKED: ATOM      4  C   UNL     1      35.960  17.648 123.839 -0.29 -0.00    +0.000 C 
DOCKED: BRANCH   4   8
DOCKED: ATOM      5  C   UNL     1      36.468  13.369 123.473 -0.53 -0.00    +0.000 A 
DOCKED: ATOM      6  C   UNL     1      37.557  14.240 123.266 -0.40 -0.00    +0.000 A 
DOCKED: ATOM      7  C   UNL     1      37.386  15.624 123.374 -0.31 -0.00    +0.000 A 
DOCKED: ATOM      8  C   UNL     1      36.130  16.162 123.685 -0.34 -0.00    +0.000 A 
DOCKED: ATOM      9  C   UNL     1      35.052  15.297 123.924 -0.51 -0.00    +0.000 A 
DOCKED: ATOM     10  C   UNL     1      35.221  13.915 123.818 -0.29 -0.00    +0.000 A 
DOCKED: ATOM     11  CM  UNL     1      36.302  14.768 123.590 +0.00 -0.00    +0.000 AC
DOCKED: BRANCH   5  12
DOCKED: ATOM     12  C   UNL     1      36.671  11.221 122.224 -0.64 -0.00    +0.000 C 
DOCKED: ATOM     13  C   UNL     1      36.596  11.893 123.383 -0.69 -0.00    +0.000 C 
DOCKED: BRANCH  11  14
DOCKED: ATOM     14  O   UNL     1      36.826   9.215 121.002 -2.65 +0.00    +0.000 OA
DOCKED: ATOM     15  C   UNL     1      36.795   9.752 122.141 -0.65 -0.00    +0.000 C 
DOCKED: ATOM     16  N   UNL     1      36.855   8.920 123.307 -0.62 -0.00    +0.000 N 
DOCKED: ATOM     17  O   UNL     1      37.075   7.591 123.181 -2.49 -0.00    +0.000 OA
DOCKED: ATOM     18  H   UNL     1      36.736   9.317 124.200 -0.50 -0.00    +0.000 HD
DOCKED: ENDBRANCH  11  14
DOCKED: ENDBRANCH   5  12
DOCKED: ENDBRANCH   4   8
DOCKED: ENDBRANCH   1   4
DOCKED: BRANCH   1  18
DOCKED: ATOM     19  C   UNL     1      36.046  17.300 121.424 -0.23 -0.00    +0.000 C 
DOCKED: BRANCH  18  19
DOCKED: ATOM     20  C   UNL     1      37.092  17.779 120.404 -0.12 -0.00    +0.000 C 
DOCKED: BRANCH  19  20
DOCKED: ATOM     21  C   UNL     1      38.308  16.899 120.448 -0.09 -0.00    +0.000 A 
DOCKED: ATOM     22  C   UNL     1      38.617  15.837 119.596 -0.15 -0.00    +0.000 A 
DOCKED: ATOM     23  N   UNL     1      39.765  15.232 119.983 -0.18 -0.00    +0.000 N 
DOCKED: ATOM     24  C   UNL     1      40.173  15.886 121.084 -0.21 -0.00    +0.000 A 
DOCKED: ATOM     25  C   UNL     1      39.307  16.904 121.403 -0.12 -0.00    +0.000 A 
DOCKED: ATOM     26  C   UNL     1      39.508  17.712 122.522 -0.13 -0.00    +0.000 A 
DOCKED: ATOM     27  C   UNL     1      40.637  17.460 123.321 -0.25 -0.00    +0.000 A 
DOCKED: ATOM     28  C   UNL     1      41.530  16.416 122.990 -0.37 -0.00    +0.000 A 
DOCKED: ATOM     29  C   UNL     1      41.299  15.613 121.859 -0.35 -0.00    +0.000 A 
DOCKED: ATOM     30  C   UNL     1      37.819  15.414 118.404 -0.19 -0.00    +0.000 C 
DOCKED: ATOM     31  H   UNL     1      40.209  14.468 119.548 -0.04 -0.00    +0.000 HD
DOCKED: ATOM     32  CM  UNL     1      39.251  16.122 120.486 +0.00 -0.00    +0.000 AC
DOCKED: ATOM     33  CM  UNL     1      40.409  16.666 122.197 +0.00 -0.00    +0.000 AC
DOCKED: ENDBRANCH  19  20
DOCKED: ENDBRANCH  18  19
DOCKED: ENDBRANCH   1  18
DOCKED: TORSDOF 7DOCKED: TER
DOCKED: ENDMDL
________________________________________________________________________________


	BEGINNING GENETIC ALGORITHM DOCKING 95 of 100
Run: 95 Seed: 1780402319 167496675 [ Run 95 of 100 GA/GALS ]
Beginning LAMARCKIAN GENETIC ALGORITHM (LGA), with a maximum of 2500000 energy evaluations.

Final-Value: -15.260


	FINAL GENETIC ALGORITHM DOCKED STATE
	_______________________________________________


Detailed state:  trans 37.266 17.626 123.371 quatxyzw -0.721107 0.228861 -0.577659 -0.306492 center 0.576 -0.005 0.140 ntor 7 23.5031 104.0104 167.4759 -80.7827 -118.1132 -53.0979 145.7122
State:	 37.266  17.626 123.371  -0.758  0.240 -0.607 -144.304     23.50  104.01  167.48  -80.78 -118.11  -53.10  145.71

DOCKED: MODEL       95
DOCKED: USER    Run = 95
DOCKED: USER    DPF = ligand_dock.biased.dpf
DOCKED: USER  
DOCKED: USER    Estimated Free Energy of Binding    =  -10.99 kcal/mol  [=(1)+(2)+(3)-(4)]
DOCKED: USER    Estimated Inhibition Constant, Ki   =    8.74 nM (nanomolar)  [Temperature = 298.15 K]
DOCKED: USER    
DOCKED: USER    (1) Final Intermolecular Energy     =  -13.08 kcal/mol
DOCKED: USER        vdW + Hbond + desolv Energy     =  -13.08 kcal/mol
DOCKED: USER        Electrostatic Energy            =   +0.00 kcal/mol
DOCKED: USER    (2) Final Total Internal Energy     =   -2.18 kcal/mol
DOCKED: USER    (3) Torsional Free Energy           =   +2.09 kcal/mol
DOCKED: USER    (4) Unbound System's Energy  [=(2)] =   -2.18 kcal/mol
DOCKED: USER    
DOCKED: USER    
DOCKED: USER    NEWDPF move ligand.dum.pdbqt
DOCKED: USER    NEWDPF about 0.576000 -0.005000 0.140000
DOCKED: USER    NEWDPF tran0 37.266280 17.626404 123.371445
DOCKED: USER    NEWDPF quaternion0 -0.721107 0.228861 -0.577659 -0.306492
DOCKED: USER    NEWDPF axisangle0 -0.757566 0.240433 -0.606866 -144.304108
DOCKED: USER    NEWDPF quat0 -0.757566 0.240433 -0.606866 -144.304108
DOCKED: USER    NEWDPF dihe0 23.50 104.01 167.48 -80.78 -118.11 -53.10 145.71 
DOCKED: USER  keepresnum = 1 
DOCKED: USER  
DOCKED: REMARK  Name = 
DOCKED: REMARK  8 active torsions:
DOCKED: REMARK  status: ('A' for Active; 'I' for Inactive)
DOCKED: REMARK    1  A    between atoms: C_2  and  C_3
DOCKED: REMARK    2  A    between atoms: C_4  and  C_5
DOCKED: REMARK    3  A    between atoms: C_8  and  C_9
DOCKED: REMARK    4  A    between atoms: C_9  and  N_10
DOCKED: REMARK    5  A    between atoms: N_10  and  C_11
DOCKED: REMARK    6  A    between atoms: C_11  and  C_12
DOCKED: REMARK    7  A    between atoms: C_12  and  C_13
DOCKED: REMARK    8  A    between atoms: C_14  and  C_22
DOCKED: REMARK                            x       y       z     vdW  Elec       q    Type
DOCKED: REMARK                         _______ _______ _______ _____ _____    ______ ____
DOCKED: USER                              x       y       z     vdW  Elec       q    Type
DOCKED: USER                           _______ _______ _______ _____ _____    ______ ____
DOCKED: ROOT
DOCKED: ATOM      1  N   UNL     1      37.405  18.080 122.750 -0.13 -0.00    +0.000 N 
DOCKED: ATOM      2  H   UNL     1      38.087  17.364 122.500 +0.00 -0.00    +0.000 HD
DOCKED: ATOM      3  H   UNL     1      37.819  18.796 123.349 +0.00 -0.00    +0.000 HD
DOCKED: ENDROOT
DOCKED: BRANCH   1   4
DOCKED: ATOM      4  C   UNL     1      36.311  17.450 123.499 -0.27 -0.00    +0.000 C 
DOCKED: BRANCH   4   8
DOCKED: ATOM      5  C   UNL     1      36.796  13.154 123.386 -0.54 -0.00    +0.000 A 
DOCKED: ATOM      6  C   UNL     1      35.590  13.727 123.836 -0.46 -0.00    +0.000 A 
DOCKED: ATOM      7  C   UNL     1      35.440  15.116 123.882 -0.48 -0.00    +0.000 A 
DOCKED: ATOM      8  C   UNL     1      36.490  15.957 123.485 -0.33 -0.00    +0.000 A 
DOCKED: ATOM      9  C   UNL     1      37.680  15.390 123.005 -0.33 -0.00    +0.000 A 
DOCKED: ATOM     10  C   UNL     1      37.830  14.003 122.957 -0.44 -0.00    +0.000 A 
DOCKED: ATOM     11  CM  UNL     1      36.638  14.558 123.425 +0.00 -0.00    +0.000 AC
DOCKED: BRANCH   5  12
DOCKED: ATOM     12  C   UNL     1      36.567  10.928 122.289 -0.65 -0.00    +0.000 C 
DOCKED: ATOM     13  C   UNL     1      37.004  11.686 123.305 -0.67 -0.00    +0.000 C 
DOCKED: BRANCH  11  14
DOCKED: ATOM     14  O   UNL     1      37.068   8.958 121.100 -2.71 -0.00    +0.000 OA
DOCKED: ATOM     15  C   UNL     1      36.775   9.468 122.215 -0.69 -0.00    +0.000 C 
DOCKED: ATOM     16  N   UNL     1      36.630   8.613 123.356 -0.64 -0.00    +0.000 N 
DOCKED: ATOM     17  O   UNL     1      36.933   7.297 123.261 -2.26 -0.00    +0.000 OA
DOCKED: ATOM     18  H   UNL     1      36.308   8.984 124.209 -0.34 -0.00    +0.000 HD
DOCKED: ENDBRANCH  11  14
DOCKED: ENDBRANCH   5  12
DOCKED: ENDBRANCH   4   8
DOCKED: ENDBRANCH   1   4
DOCKED: BRANCH   1  18
DOCKED: ATOM     19  C   UNL     1      36.937  18.738 121.521 -0.14 -0.00    +0.000 C 
DOCKED: BRANCH  18  19
DOCKED: ATOM     20  C   UNL     1      37.914  18.557 120.347 -0.06 -0.00    +0.000 C 
DOCKED: BRANCH  19  20
DOCKED: ATOM     21  C   UNL     1      38.140  17.098 120.075 -0.08 -0.00    +0.000 A 
DOCKED: ATOM     22  C   UNL     1      39.245  16.328 120.441 -0.13 -0.00    +0.000 A 
DOCKED: ATOM     23  N   UNL     1      39.129  15.066 119.963 -0.20 -0.00    +0.000 N 
DOCKED: ATOM     24  C   UNL     1      37.972  15.036 119.280 -0.21 -0.00    +0.000 A 
DOCKED: ATOM     25  C   UNL     1      37.344  16.257 119.320 -0.14 -0.00    +0.000 A 
DOCKED: ATOM     26  C   UNL     1      36.133  16.480 118.662 -0.14 -0.00    +0.000 A 
DOCKED: ATOM     27  C   UNL     1      35.562  15.406 117.956 -0.14 -0.00    +0.000 A 
DOCKED: ATOM     28  C   UNL     1      36.206  14.149 117.920 -0.34 -0.00    +0.000 A 
DOCKED: ATOM     29  C   UNL     1      37.429  13.955 118.587 -0.33 -0.00    +0.000 A 
DOCKED: ATOM     30  C   UNL     1      40.405  16.800 121.258 -0.17 -0.00    +0.000 C 
DOCKED: ATOM     31  H   UNL     1      39.763  14.323 120.089 -0.07 -0.00    +0.000 HD
DOCKED: ATOM     32  CM  UNL     1      38.391  15.928 119.821 +0.00 -0.00    +0.000 AC
DOCKED: ATOM     33  CM  UNL     1      36.773  15.214 118.621 +0.00 -0.00    +0.000 AC
DOCKED: ENDBRANCH  19  20
DOCKED: ENDBRANCH  18  19
DOCKED: ENDBRANCH   1  18
DOCKED: TORSDOF 7DOCKED: TER
DOCKED: ENDMDL
________________________________________________________________________________


	BEGINNING GENETIC ALGORITHM DOCKING 96 of 100
Run: 96 Seed: 1213045605 1509808406 [ Run 96 of 100 GA/GALS ]
Beginning LAMARCKIAN GENETIC ALGORITHM (LGA), with a maximum of 2500000 energy evaluations.

Final-Value: -15.362


	FINAL GENETIC ALGORITHM DOCKED STATE
	_______________________________________________


Detailed state:  trans 35.155 18.231 123.565 quatxyzw 0.384853 0.565695 -0.060794 0.726761 center 0.576 -0.005 0.140 ntor 7 3.3363 -50.2535 -179.8268 -152.7225 30.8088 141.0001 -179.8704
State:	 35.155  18.231 123.565   0.560  0.824 -0.089 86.769      3.34  -50.25 -179.83 -152.72   30.81  141.00 -179.87

DOCKED: MODEL       96
DOCKED: USER    Run = 96
DOCKED: USER    DPF = ligand_dock.biased.dpf
DOCKED: USER  
DOCKED: USER    Estimated Free Energy of Binding    =  -12.14 kcal/mol  [=(1)+(2)+(3)-(4)]
DOCKED: USER    Estimated Inhibition Constant, Ki   =    1.26 nM (nanomolar)  [Temperature = 298.15 K]
DOCKED: USER    
DOCKED: USER    (1) Final Intermolecular Energy     =  -14.23 kcal/mol
DOCKED: USER        vdW + Hbond + desolv Energy     =  -14.23 kcal/mol
DOCKED: USER        Electrostatic Energy            =   +0.00 kcal/mol
DOCKED: USER    (2) Final Total Internal Energy     =   -1.13 kcal/mol
DOCKED: USER    (3) Torsional Free Energy           =   +2.09 kcal/mol
DOCKED: USER    (4) Unbound System's Energy  [=(2)] =   -1.13 kcal/mol
DOCKED: USER    
DOCKED: USER    
DOCKED: USER    NEWDPF move ligand.dum.pdbqt
DOCKED: USER    NEWDPF about 0.576000 -0.005000 0.140000
DOCKED: USER    NEWDPF tran0 35.154948 18.231124 123.565252
DOCKED: USER    NEWDPF quaternion0 0.384853 0.565695 -0.060794 0.726761
DOCKED: USER    NEWDPF axisangle0 0.560283 0.823559 -0.088506 86.768876
DOCKED: USER    NEWDPF quat0 0.560283 0.823559 -0.088506 86.768876
DOCKED: USER    NEWDPF dihe0 3.34 -50.25 -179.83 -152.72 30.81 141.00 -179.87 
DOCKED: USER  keepresnum = 1 
DOCKED: USER  
DOCKED: REMARK  Name = 
DOCKED: REMARK  8 active torsions:
DOCKED: REMARK  status: ('A' for Active; 'I' for Inactive)
DOCKED: REMARK    1  A    between atoms: C_2  and  C_3
DOCKED: REMARK    2  A    between atoms: C_4  and  C_5
DOCKED: REMARK    3  A    between atoms: C_8  and  C_9
DOCKED: REMARK    4  A    between atoms: C_9  and  N_10
DOCKED: REMARK    5  A    between atoms: N_10  and  C_11
DOCKED: REMARK    6  A    between atoms: C_11  and  C_12
DOCKED: REMARK    7  A    between atoms: C_12  and  C_13
DOCKED: REMARK    8  A    between atoms: C_14  and  C_22
DOCKED: REMARK                            x       y       z     vdW  Elec       q    Type
DOCKED: REMARK                         _______ _______ _______ _____ _____    ______ ____
DOCKED: USER                              x       y       z     vdW  Elec       q    Type
DOCKED: USER                           _______ _______ _______ _____ _____    ______ ____
DOCKED: ROOT
DOCKED: ATOM      1  N   UNL     1      34.681  18.094 122.959 -0.32 -0.00    +0.000 N 
DOCKED: ATOM      2  H   UNL     1      34.593  19.109 122.922 -0.00 -0.00    +0.000 HD
DOCKED: ATOM      3  H   UNL     1      33.984  17.681 123.579 -0.02 -0.00    +0.000 HD
DOCKED: ENDROOT
DOCKED: BRANCH   1   4
DOCKED: ATOM      4  C   UNL     1      36.008  17.754 123.488 -0.27 -0.00    +0.000 C 
DOCKED: BRANCH   4   8
DOCKED: ATOM      5  C   UNL     1      36.669  13.486 123.260 -0.52 -0.00    +0.000 A 
DOCKED: ATOM      6  C   UNL     1      37.527  14.381 122.589 -0.40 -0.00    +0.000 A 
DOCKED: ATOM      7  C   UNL     1      37.303  15.759 122.655 -0.29 -0.00    +0.000 A 
DOCKED: ATOM      8  C   UNL     1      36.221  16.269 123.387 -0.32 -0.00    +0.000 A 
DOCKED: ATOM      9  C   UNL     1      35.385  15.384 124.083 -0.47 -0.00    +0.000 A 
DOCKED: ATOM     10  C   UNL     1      35.608  14.006 124.019 -0.43 -0.00    +0.000 A 
DOCKED: ATOM     11  CM  UNL     1      36.452  14.881 123.333 +0.00 -0.00    +0.000 AC
DOCKED: BRANCH   5  12
DOCKED: ATOM     12  C   UNL     1      36.617  11.250 122.160 -0.63 -0.00    +0.000 C 
DOCKED: ATOM     13  C   UNL     1      36.867  12.015 123.233 -0.67 -0.00    +0.000 C 
DOCKED: BRANCH  11  14
DOCKED: ATOM     14  O   UNL     1      36.928   9.210 121.025 -2.69 -0.00    +0.000 OA
DOCKED: ATOM     15  C   UNL     1      36.814   9.786 122.140 -0.65 -0.00    +0.000 C 
DOCKED: ATOM     16  N   UNL     1      36.853   9.001 123.339 -0.61 -0.00    +0.000 N 
DOCKED: ATOM     17  O   UNL     1      37.140   7.680 123.275 -2.56 -0.00    +0.000 OA
DOCKED: ATOM     18  H   UNL     1      36.670   9.424 124.208 -0.48 -0.00    +0.000 HD
DOCKED: ENDBRANCH  11  14
DOCKED: ENDBRANCH   5  12
DOCKED: ENDBRANCH   4   8
DOCKED: ENDBRANCH   1   4
DOCKED: BRANCH   1  18
DOCKED: ATOM     19  C   UNL     1      34.461  17.551 121.611 -0.34 -0.00    +0.000 C 
DOCKED: BRANCH  18  19
DOCKED: ATOM     20  C   UNL     1      34.504  18.636 120.523 -0.29 -0.00    +0.000 C 
DOCKED: BRANCH  19  20
DOCKED: ATOM     21  C   UNL     1      33.682  18.222 119.337 -0.24 -0.00    +0.000 A 
DOCKED: ATOM     22  C   UNL     1      34.105  17.494 118.224 -0.10 -0.00    +0.000 A 
DOCKED: ATOM     23  N   UNL     1      33.102  17.369 117.323 -0.16 -0.00    +0.000 N 
DOCKED: ATOM     24  C   UNL     1      32.054  18.030 117.846 -0.19 -0.00    +0.000 A 
DOCKED: ATOM     25  C   UNL     1      32.371  18.569 119.068 -0.32 -0.00    +0.000 A 
DOCKED: ATOM     26  C   UNL     1      31.450  19.323 119.797 -0.41 -0.00    +0.000 A 
DOCKED: ATOM     27  C   UNL     1      30.170  19.511 119.244 -0.32 -0.00    +0.000 A 
DOCKED: ATOM     28  C   UNL     1      29.844  18.951 117.989 -0.23 -0.00    +0.000 A 
DOCKED: ATOM     29  C   UNL     1      30.794  18.201 117.274 -0.17 -0.00    +0.000 A 
DOCKED: ATOM     30  C   UNL     1      35.467  16.907 118.032 -0.15 -0.00    +0.000 C 
DOCKED: ATOM     31  H   UNL     1      33.133  16.893 116.462 -0.00 -0.00    +0.000 HD
DOCKED: ATOM     32  CM  UNL     1      33.064  17.918 118.326 +0.00 -0.00    +0.000 AC
DOCKED: ATOM     33  CM  UNL     1      31.113  18.764 118.537 +0.00 -0.00    +0.000 AC
DOCKED: ENDBRANCH  19  20
DOCKED: ENDBRANCH  18  19
DOCKED: ENDBRANCH   1  18
DOCKED: TORSDOF 7DOCKED: TER
DOCKED: ENDMDL
________________________________________________________________________________


	BEGINNING GENETIC ALGORITHM DOCKING 97 of 100
Run: 97 Seed: 1783901922 462336091 [ Run 97 of 100 GA/GALS ]
Beginning LAMARCKIAN GENETIC ALGORITHM (LGA), with a maximum of 2500000 energy evaluations.

Final-Value: -14.827


	FINAL GENETIC ALGORITHM DOCKED STATE
	_______________________________________________


Detailed state:  trans 36.075 18.449 123.455 quatxyzw -0.184506 0.521725 0.469081 -0.688276 center 0.576 -0.005 0.140 ntor 7 19.6881 104.6045 -21.8943 -174.4868 15.6963 136.1125 176.9247
State:	 36.075  18.449 123.455  -0.254  0.719  0.647 -93.012     19.69  104.60  -21.89 -174.49   15.70  136.11  176.92

DOCKED: MODEL       97
DOCKED: USER    Run = 97
DOCKED: USER    DPF = ligand_dock.biased.dpf
DOCKED: USER  
DOCKED: USER    Estimated Free Energy of Binding    =  -11.63 kcal/mol  [=(1)+(2)+(3)-(4)]
DOCKED: USER    Estimated Inhibition Constant, Ki   =    2.96 nM (nanomolar)  [Temperature = 298.15 K]
DOCKED: USER    
DOCKED: USER    (1) Final Intermolecular Energy     =  -13.72 kcal/mol
DOCKED: USER        vdW + Hbond + desolv Energy     =  -13.72 kcal/mol
DOCKED: USER        Electrostatic Energy            =   +0.00 kcal/mol
DOCKED: USER    (2) Final Total Internal Energy     =   -1.10 kcal/mol
DOCKED: USER    (3) Torsional Free Energy           =   +2.09 kcal/mol
DOCKED: USER    (4) Unbound System's Energy  [=(2)] =   -1.10 kcal/mol
DOCKED: USER    
DOCKED: USER    
DOCKED: USER    NEWDPF move ligand.dum.pdbqt
DOCKED: USER    NEWDPF about 0.576000 -0.005000 0.140000
DOCKED: USER    NEWDPF tran0 36.074993 18.449283 123.455234
DOCKED: USER    NEWDPF quaternion0 -0.184506 0.521725 0.469081 -0.688276
DOCKED: USER    NEWDPF axisangle0 -0.254333 0.719176 0.646607 -93.012401
DOCKED: USER    NEWDPF quat0 -0.254333 0.719176 0.646607 -93.012401
DOCKED: USER    NEWDPF dihe0 19.69 104.60 -21.89 -174.49 15.70 136.11 176.92 
DOCKED: USER  keepresnum = 1 
DOCKED: USER  
DOCKED: REMARK  Name = 
DOCKED: REMARK  8 active torsions:
DOCKED: REMARK  status: ('A' for Active; 'I' for Inactive)
DOCKED: REMARK    1  A    between atoms: C_2  and  C_3
DOCKED: REMARK    2  A    between atoms: C_4  and  C_5
DOCKED: REMARK    3  A    between atoms: C_8  and  C_9
DOCKED: REMARK    4  A    between atoms: C_9  and  N_10
DOCKED: REMARK    5  A    between atoms: N_10  and  C_11
DOCKED: REMARK    6  A    between atoms: C_11  and  C_12
DOCKED: REMARK    7  A    between atoms: C_12  and  C_13
DOCKED: REMARK    8  A    between atoms: C_14  and  C_22
DOCKED: REMARK                            x       y       z     vdW  Elec       q    Type
DOCKED: REMARK                         _______ _______ _______ _____ _____    ______ ____
DOCKED: USER                              x       y       z     vdW  Elec       q    Type
DOCKED: USER                           _______ _______ _______ _____ _____    ______ ____
DOCKED: ROOT
DOCKED: ATOM      1  N   UNL     1      36.129  18.415 124.234 -0.21 -0.00    +0.000 N 
DOCKED: ATOM      2  H   UNL     1      35.862  19.398 124.200 -0.00 -0.00    +0.000 HD
DOCKED: ATOM      3  H   UNL     1      37.141  18.301 124.173 -0.00 -0.00    +0.000 HD
DOCKED: ENDROOT
DOCKED: BRANCH   1   4
DOCKED: ATOM      4  C   UNL     1      35.531  17.723 123.086 -0.31 -0.00    +0.000 C 
DOCKED: BRANCH   4   8
DOCKED: ATOM      5  C   UNL     1      36.476  13.503 123.204 -0.51 -0.00    +0.000 A 
DOCKED: ATOM      6  C   UNL     1      35.233  13.973 123.675 -0.28 -0.00    +0.000 A 
DOCKED: ATOM      7  C   UNL     1      34.936  15.339 123.647 -0.47 -0.00    +0.000 A 
DOCKED: ATOM      8  C   UNL     1      35.870  16.259 123.152 -0.33 -0.00    +0.000 A 
DOCKED: ATOM      9  C   UNL     1      37.094  15.792 122.651 -0.29 -0.00    +0.000 A 
DOCKED: ATOM     10  C   UNL     1      37.393  14.428 122.677 -0.40 -0.00    +0.000 A 
DOCKED: ATOM     11  CM  UNL     1      36.167  14.883 123.167 +0.00 -0.00    +0.000 AC
DOCKED: BRANCH   5  12
DOCKED: ATOM     12  C   UNL     1      36.455  11.203 122.244 -0.64 -0.00    +0.000 C 
DOCKED: ATOM     13  C   UNL     1      36.839  12.064 123.199 -0.67 -0.00    +0.000 C 
DOCKED: BRANCH  11  14
DOCKED: ATOM     14  O   UNL     1      37.059   9.211 121.144 -2.74 -0.00    +0.000 OA
DOCKED: ATOM     15  C   UNL     1      36.818   9.772 122.246 -0.65 -0.00    +0.000 C 
DOCKED: ATOM     16  N   UNL     1      36.877   8.997 123.450 -0.57 -0.00    +0.000 N 
DOCKED: ATOM     17  O   UNL     1      37.316   7.717 123.412 -2.61 -0.00    +0.000 OA
DOCKED: ATOM     18  H   UNL     1      36.599   9.396 124.306 -0.35 -0.00    +0.000 HD
DOCKED: ENDBRANCH  11  14
DOCKED: ENDBRANCH   5  12
DOCKED: ENDBRANCH   4   8
DOCKED: ENDBRANCH   1   4
DOCKED: BRANCH   1  18
DOCKED: ATOM     19  C   UNL     1      35.691  17.850 125.519 -0.20 -0.00    +0.000 C 
DOCKED: BRANCH  18  19
DOCKED: ATOM     20  C   UNL     1      34.762  18.799 126.294 -0.25 -0.00    +0.000 C 
DOCKED: BRANCH  19  20
DOCKED: ATOM     21  C   UNL     1      34.567  18.308 127.700 -0.17 -0.00    +0.000 A 
DOCKED: ATOM     22  C   UNL     1      35.515  18.265 128.723 -0.10 -0.00    +0.000 A 
DOCKED: ATOM     23  N   UNL     1      34.994  17.695 129.835 -0.16 -0.00    +0.000 N 
DOCKED: ATOM     24  C   UNL     1      33.732  17.357 129.519 -0.21 -0.00    +0.000 A 
DOCKED: ATOM     25  C   UNL     1      33.437  17.708 128.224 -0.25 -0.00    +0.000 A 
DOCKED: ATOM     26  C   UNL     1      32.190  17.438 127.658 -0.22 -0.00    +0.000 A 
DOCKED: ATOM     27  C   UNL     1      31.230  16.797 128.460 -0.43 -0.00    +0.000 A 
DOCKED: ATOM     28  C   UNL     1      31.532  16.441 129.794 -0.31 -0.00    +0.000 A 
DOCKED: ATOM     29  C   UNL     1      32.800  16.720 130.336 -0.27 -0.00    +0.000 A 
DOCKED: ATOM     30  C   UNL     1      36.916  18.782 128.636 -0.14 -0.00    +0.000 C 
DOCKED: ATOM     31  H   UNL     1      35.448  17.556 130.698 +0.00 -0.00    +0.000 HD
DOCKED: ATOM     32  CM  UNL     1      34.467  17.861 128.833 +0.00 -0.00    +0.000 AC
DOCKED: ATOM     33  CM  UNL     1      32.486  17.077 128.998 +0.00 -0.00    +0.000 AC
DOCKED: ENDBRANCH  19  20
DOCKED: ENDBRANCH  18  19
DOCKED: ENDBRANCH   1  18
DOCKED: TORSDOF 7DOCKED: TER
DOCKED: ENDMDL
________________________________________________________________________________


	BEGINNING GENETIC ALGORITHM DOCKING 98 of 100
Run: 98 Seed: 1516799404 651860715 [ Run 98 of 100 GA/GALS ]
Beginning LAMARCKIAN GENETIC ALGORITHM (LGA), with a maximum of 2500000 energy evaluations.

Final-Value: -15.107


	FINAL GENETIC ALGORITHM DOCKED STATE
	_______________________________________________


Detailed state:  trans 36.243 17.826 121.396 quatxyzw -0.748948 0.345244 0.532170 0.191516 center 0.576 -0.005 0.140 ntor 7 -5.4999 2.6684 26.0091 -174.9873 58.2315 -60.1635 -126.2803
State:	 36.243  17.826 121.396  -0.763  0.352  0.542 157.917     -5.50    2.67   26.01 -174.99   58.23  -60.16 -126.28

DOCKED: MODEL       98
DOCKED: USER    Run = 98
DOCKED: USER    DPF = ligand_dock.biased.dpf
DOCKED: USER  
DOCKED: USER    Estimated Free Energy of Binding    =  -11.79 kcal/mol  [=(1)+(2)+(3)-(4)]
DOCKED: USER    Estimated Inhibition Constant, Ki   =    2.28 nM (nanomolar)  [Temperature = 298.15 K]
DOCKED: USER    
DOCKED: USER    (1) Final Intermolecular Energy     =  -13.88 kcal/mol
DOCKED: USER        vdW + Hbond + desolv Energy     =  -13.88 kcal/mol
DOCKED: USER        Electrostatic Energy            =   +0.00 kcal/mol
DOCKED: USER    (2) Final Total Internal Energy     =   -1.23 kcal/mol
DOCKED: USER    (3) Torsional Free Energy           =   +2.09 kcal/mol
DOCKED: USER    (4) Unbound System's Energy  [=(2)] =   -1.23 kcal/mol
DOCKED: USER    
DOCKED: USER    
DOCKED: USER    NEWDPF move ligand.dum.pdbqt
DOCKED: USER    NEWDPF about 0.576000 -0.005000 0.140000
DOCKED: USER    NEWDPF tran0 36.242556 17.826230 121.395553
DOCKED: USER    NEWDPF quaternion0 -0.748948 0.345244 0.532170 0.191516
DOCKED: USER    NEWDPF axisangle0 -0.763073 0.351755 0.542207 157.917454
DOCKED: USER    NEWDPF quat0 -0.763073 0.351755 0.542207 157.917454
DOCKED: USER    NEWDPF dihe0 -5.50 2.67 26.01 -174.99 58.23 -60.16 -126.28 
DOCKED: USER  keepresnum = 1 
DOCKED: USER  
DOCKED: REMARK  Name = 
DOCKED: REMARK  8 active torsions:
DOCKED: REMARK  status: ('A' for Active; 'I' for Inactive)
DOCKED: REMARK    1  A    between atoms: C_2  and  C_3
DOCKED: REMARK    2  A    between atoms: C_4  and  C_5
DOCKED: REMARK    3  A    between atoms: C_8  and  C_9
DOCKED: REMARK    4  A    between atoms: C_9  and  N_10
DOCKED: REMARK    5  A    between atoms: N_10  and  C_11
DOCKED: REMARK    6  A    between atoms: C_11  and  C_12
DOCKED: REMARK    7  A    between atoms: C_12  and  C_13
DOCKED: REMARK    8  A    between atoms: C_14  and  C_22
DOCKED: REMARK                            x       y       z     vdW  Elec       q    Type
DOCKED: REMARK                         _______ _______ _______ _____ _____    ______ ____
DOCKED: USER                              x       y       z     vdW  Elec       q    Type
DOCKED: USER                           _______ _______ _______ _____ _____    ______ ____
DOCKED: ROOT
DOCKED: ATOM      1  N   UNL     1      35.782  18.279 121.836 -0.22 -0.00    +0.000 N 
DOCKED: ATOM      2  H   UNL     1      35.123  17.503 121.774 -0.01 -0.00    +0.000 HD
DOCKED: ATOM      3  H   UNL     1      35.662  18.933 121.062 -0.01 -0.00    +0.000 HD
DOCKED: ENDROOT
DOCKED: BRANCH   1   4
DOCKED: ATOM      4  C   UNL     1      37.148  17.745 121.762 -0.15 -0.00    +0.000 C 
DOCKED: BRANCH   4   8
DOCKED: ATOM      5  C   UNL     1      37.133  13.461 122.355 -0.45 -0.00    +0.000 A 
DOCKED: ATOM      6  C   UNL     1      37.175  14.005 121.055 -0.30 -0.00    +0.000 A 
DOCKED: ATOM      7  C   UNL     1      37.168  15.390 120.867 -0.21 -0.00    +0.000 A 
DOCKED: ATOM      8  C   UNL     1      37.115  16.256 121.968 -0.21 -0.00    +0.000 A 
DOCKED: ATOM      9  C   UNL     1      37.107  15.720 123.264 -0.32 -0.00    +0.000 A 
DOCKED: ATOM     10  C   UNL     1      37.116  14.336 123.454 -0.41 -0.00    +0.000 A 
DOCKED: ATOM     11  CM  UNL     1      37.136  14.862 122.161 +0.00 -0.00    +0.000 AC
DOCKED: BRANCH   5  12
DOCKED: ATOM     12  C   UNL     1      36.822  11.078 121.694 -0.55 -0.00    +0.000 C 
DOCKED: ATOM     13  C   UNL     1      37.151  11.999 122.613 -0.58 -0.00    +0.000 C 
DOCKED: BRANCH  11  14
DOCKED: ATOM     14  O   UNL     1      36.724   8.836 120.981 -2.62 -0.00    +0.000 OA
DOCKED: ATOM     15  C   UNL     1      36.840   9.625 121.957 -0.65 -0.00    +0.000 C 
DOCKED: ATOM     16  N   UNL     1      36.957   9.086 123.280 -0.62 -0.00    +0.000 N 
DOCKED: ATOM     17  O   UNL     1      37.074   7.749 123.460 -2.68 -0.00    +0.000 OA
DOCKED: ATOM     18  H   UNL     1      36.951   9.689 124.058 -0.51 -0.00    +0.000 HD
DOCKED: ENDBRANCH  11  14
DOCKED: ENDBRANCH   5  12
DOCKED: ENDBRANCH   4   8
DOCKED: ENDBRANCH   1   4
DOCKED: BRANCH   1  18
DOCKED: ATOM     19  C   UNL     1      35.534  19.011 123.087 -0.21 -0.00    +0.000 C 
DOCKED: BRANCH  18  19
DOCKED: ATOM     20  C   UNL     1      35.881  18.182 124.334 -0.26 -0.00    +0.000 C 
DOCKED: BRANCH  19  20
DOCKED: ATOM     21  C   UNL     1      34.707  18.128 125.269 -0.30 -0.00    +0.000 A 
DOCKED: ATOM     22  C   UNL     1      33.982  16.999 125.656 -0.38 -0.00    +0.000 A 
DOCKED: ATOM     23  N   UNL     1      32.949  17.347 126.459 -0.26 -0.00    +0.000 N 
DOCKED: ATOM     24  C   UNL     1      33.000  18.685 126.566 -0.26 -0.00    +0.000 A 
DOCKED: ATOM     25  C   UNL     1      34.053  19.198 125.850 -0.24 -0.00    +0.000 A 
DOCKED: ATOM     26  C   UNL     1      34.299  20.571 125.789 -0.14 -0.00    +0.000 A 
DOCKED: ATOM     27  C   UNL     1      33.434  21.425 126.497 -0.16 -0.00    +0.000 A 
DOCKED: ATOM     28  C   UNL     1      32.354  20.896 127.238 -0.17 -0.00    +0.000 A 
DOCKED: ATOM     29  C   UNL     1      32.126  19.509 127.275 -0.22 -0.00    +0.000 A 
DOCKED: ATOM     30  C   UNL     1      34.290  15.589 125.265 -0.42 -0.00    +0.000 C 
DOCKED: ATOM     31  H   UNL     1      32.294  16.742 126.877 -0.28 -0.00    +0.000 HD
DOCKED: ATOM     32  CM  UNL     1      33.713  18.048 125.976 -0.10 -0.00    +0.000 AC
DOCKED: ATOM     33  CM  UNL     1      33.211  20.048 126.536 +0.00 -0.00    +0.000 AC
DOCKED: ENDBRANCH  19  20
DOCKED: ENDBRANCH  18  19
DOCKED: ENDBRANCH   1  18
DOCKED: TORSDOF 7DOCKED: TER
DOCKED: ENDMDL
________________________________________________________________________________


	BEGINNING GENETIC ALGORITHM DOCKING 99 of 100
Run: 99 Seed: 112560110 2100905473 [ Run 99 of 100 GA/GALS ]
Beginning LAMARCKIAN GENETIC ALGORITHM (LGA), with a maximum of 2500000 energy evaluations.

Final-Value: -15.806


	FINAL GENETIC ALGORITHM DOCKED STATE
	_______________________________________________


Detailed state:  trans 37.101 17.378 123.764 quatxyzw -0.390106 0.388887 -0.627997 -0.549731 center 0.576 -0.005 0.140 ntor 7 -13.2146 152.8168 147.1803 -150.3508 -159.1262 -9.9677 115.8735
State:	 37.101  17.378 123.764  -0.467  0.466 -0.752 -113.303    -13.21  152.82  147.18 -150.35 -159.13   -9.97  115.87

DOCKED: MODEL       99
DOCKED: USER    Run = 99
DOCKED: USER    DPF = ligand_dock.biased.dpf
DOCKED: USER  
DOCKED: USER    Estimated Free Energy of Binding    =  -12.02 kcal/mol  [=(1)+(2)+(3)-(4)]
DOCKED: USER    Estimated Inhibition Constant, Ki   =    1.54 nM (nanomolar)  [Temperature = 298.15 K]
DOCKED: USER    
DOCKED: USER    (1) Final Intermolecular Energy     =  -14.11 kcal/mol
DOCKED: USER        vdW + Hbond + desolv Energy     =  -14.11 kcal/mol
DOCKED: USER        Electrostatic Energy            =   +0.00 kcal/mol
DOCKED: USER    (2) Final Total Internal Energy     =   -1.70 kcal/mol
DOCKED: USER    (3) Torsional Free Energy           =   +2.09 kcal/mol
DOCKED: USER    (4) Unbound System's Energy  [=(2)] =   -1.70 kcal/mol
DOCKED: USER    
DOCKED: USER    
DOCKED: USER    NEWDPF move ligand.dum.pdbqt
DOCKED: USER    NEWDPF about 0.576000 -0.005000 0.140000
DOCKED: USER    NEWDPF tran0 37.100665 17.378302 123.763961
DOCKED: USER    NEWDPF quaternion0 -0.390106 0.388887 -0.627997 -0.549731
DOCKED: USER    NEWDPF axisangle0 -0.467002 0.465542 -0.751784 -113.302888
DOCKED: USER    NEWDPF quat0 -0.467002 0.465542 -0.751784 -113.302888
DOCKED: USER    NEWDPF dihe0 -13.21 152.82 147.18 -150.35 -159.13 -9.97 115.87 
DOCKED: USER  keepresnum = 1 
DOCKED: USER  
DOCKED: REMARK  Name = 
DOCKED: REMARK  8 active torsions:
DOCKED: REMARK  status: ('A' for Active; 'I' for Inactive)
DOCKED: REMARK    1  A    between atoms: C_2  and  C_3
DOCKED: REMARK    2  A    between atoms: C_4  and  C_5
DOCKED: REMARK    3  A    between atoms: C_8  and  C_9
DOCKED: REMARK    4  A    between atoms: C_9  and  N_10
DOCKED: REMARK    5  A    between atoms: N_10  and  C_11
DOCKED: REMARK    6  A    between atoms: C_11  and  C_12
DOCKED: REMARK    7  A    between atoms: C_12  and  C_13
DOCKED: REMARK    8  A    between atoms: C_14  and  C_22
DOCKED: REMARK                            x       y       z     vdW  Elec       q    Type
DOCKED: REMARK                         _______ _______ _______ _____ _____    ______ ____
DOCKED: USER                              x       y       z     vdW  Elec       q    Type
DOCKED: USER                           _______ _______ _______ _____ _____    ______ ____
DOCKED: ROOT
DOCKED: ATOM      1  N   UNL     1      37.493  18.053 123.729 -0.17 -0.00    +0.000 N 
DOCKED: ATOM      2  H   UNL     1      38.246  17.485 123.341 -0.00 -0.00    +0.000 HD
DOCKED: ATOM      3  H   UNL     1      37.542  18.094 124.747 -0.01 -0.00    +0.000 HD
DOCKED: ENDROOT
DOCKED: BRANCH   1   4
DOCKED: ATOM      4  C   UNL     1      36.207  17.444 123.367 -0.28 -0.00    +0.000 C 
DOCKED: BRANCH   4   8
DOCKED: ATOM      5  C   UNL     1      36.532  13.131 123.376 -0.55 -0.00    +0.000 A 
DOCKED: ATOM      6  C   UNL     1      35.578  13.780 124.186 -0.29 -0.00    +0.000 A 
DOCKED: ATOM      7  C   UNL     1      35.484  15.175 124.190 -0.47 -0.00    +0.000 A 
DOCKED: ATOM      8  C   UNL     1      36.339  15.947 123.390 -0.34 -0.00    +0.000 A 
DOCKED: ATOM      9  C   UNL     1      37.266  15.304 122.557 -0.32 -0.00    +0.000 A 
DOCKED: ATOM     10  C   UNL     1      37.361  13.910 122.552 -0.44 -0.00    +0.000 A 
DOCKED: ATOM     11  CM  UNL     1      36.426  14.541 123.375 +0.00 -0.00    +0.000 AC
DOCKED: BRANCH   5  12
DOCKED: ATOM     12  C   UNL     1      36.705  10.950 122.182 -0.63 -0.00    +0.000 C 
DOCKED: ATOM     13  C   UNL     1      36.667  11.654 123.324 -0.70 -0.00    +0.000 C 
DOCKED: BRANCH  11  14
DOCKED: ATOM     14  O   UNL     1      36.931   8.919 121.013 -2.67 -0.00    +0.000 OA
DOCKED: ATOM     15  C   UNL     1      36.838   9.480 122.137 -0.67 -0.00    +0.000 C 
DOCKED: ATOM     16  N   UNL     1      36.836   8.673 123.321 -0.66 -0.00    +0.000 N 
DOCKED: ATOM     17  O   UNL     1      37.065   7.342 123.235 -2.37 -0.00    +0.000 OA
DOCKED: ATOM     18  H   UNL     1      36.668   9.087 124.198 -0.47 -0.00    +0.000 HD
DOCKED: ENDBRANCH  11  14
DOCKED: ENDBRANCH   5  12
DOCKED: ENDBRANCH   4   8
DOCKED: ENDBRANCH   1   4
DOCKED: BRANCH   1  18
DOCKED: ATOM     19  C   UNL     1      37.625  19.426 123.218 -0.11 -0.00    +0.000 C 
DOCKED: BRANCH  18  19
DOCKED: ATOM     20  C   UNL     1      39.044  19.989 123.402 -0.06 -0.00    +0.000 C 
DOCKED: BRANCH  19  20
DOCKED: ATOM     21  C   UNL     1      40.016  18.879 123.680 -0.13 -0.00    +0.000 A 
DOCKED: ATOM     22  C   UNL     1      40.850  18.740 124.791 -0.24 -0.00    +0.000 A 
DOCKED: ATOM     23  N   UNL     1      41.639  17.647 124.663 -0.30 -0.00    +0.000 N 
DOCKED: ATOM     24  C   UNL     1      41.327  17.105 123.473 -0.32 -0.00    +0.000 A 
DOCKED: ATOM     25  C   UNL     1      40.348  17.831 122.842 -0.17 -0.00    +0.000 A 
DOCKED: ATOM     26  C   UNL     1      39.873  17.477 121.578 -0.10 -0.00    +0.000 A 
DOCKED: ATOM     27  C   UNL     1      40.424  16.338 120.965 -0.17 -0.00    +0.000 A 
DOCKED: ATOM     28  C   UNL     1      41.428  15.588 121.618 -0.32 -0.00    +0.000 A 
DOCKED: ATOM     29  C   UNL     1      41.892  15.973 122.888 -0.41 -0.00    +0.000 A 
DOCKED: ATOM     30  C   UNL     1      40.881  19.649 125.978 -0.20 -0.00    +0.000 C 
DOCKED: ATOM     31  H   UNL     1      42.305  17.317 125.309 -0.56 -0.00    +0.000 HD
DOCKED: ATOM     32  CM  UNL     1      40.862  18.028 123.915 +0.00 -0.00    +0.000 AC
DOCKED: ATOM     33  CM  UNL     1      40.881  16.719 122.227 +0.00 -0.00    +0.000 AC
DOCKED: ENDBRANCH  19  20
DOCKED: ENDBRANCH  18  19
DOCKED: ENDBRANCH   1  18
DOCKED: TORSDOF 7DOCKED: TER
DOCKED: ENDMDL
________________________________________________________________________________


	BEGINNING GENETIC ALGORITHM DOCKING 100 of 100
Run: 100 Seed: 822573651 1049093868 [ Run 100 of 100 GA/GALS ]
Beginning LAMARCKIAN GENETIC ALGORITHM (LGA), with a maximum of 2500000 energy evaluations.

Final-Value: -14.511


	FINAL GENETIC ALGORITHM DOCKED STATE
	_______________________________________________


Detailed state:  trans 38.806 16.833 118.770 quatxyzw -0.537887 0.429939 -0.632264 -0.355067 center 0.576 -0.005 0.140 ntor 7 125.9770 78.7312 177.2319 154.4948 180.0000 -8.2258 -178.3059
State:	 38.806  16.833 118.770  -0.575  0.460 -0.676 -138.405    125.98   78.73  177.23  154.49  180.00   -8.23 -178.31

DOCKED: MODEL      100
DOCKED: USER    Run = 100
DOCKED: USER    DPF = ligand_dock.biased.dpf
DOCKED: USER  
DOCKED: USER    Estimated Free Energy of Binding    =  -10.47 kcal/mol  [=(1)+(2)+(3)-(4)]
DOCKED: USER    Estimated Inhibition Constant, Ki   =   21.21 nM (nanomolar)  [Temperature = 298.15 K]
DOCKED: USER    
DOCKED: USER    (1) Final Intermolecular Energy     =  -12.56 kcal/mol
DOCKED: USER        vdW + Hbond + desolv Energy     =  -12.56 kcal/mol
DOCKED: USER        Electrostatic Energy            =   +0.00 kcal/mol
DOCKED: USER    (2) Final Total Internal Energy     =   -1.95 kcal/mol
DOCKED: USER    (3) Torsional Free Energy           =   +2.09 kcal/mol
DOCKED: USER    (4) Unbound System's Energy  [=(2)] =   -1.95 kcal/mol
DOCKED: USER    
DOCKED: USER    
DOCKED: USER    NEWDPF move ligand.dum.pdbqt
DOCKED: USER    NEWDPF about 0.576000 -0.005000 0.140000
DOCKED: USER    NEWDPF tran0 38.806206 16.833408 118.769745
DOCKED: USER    NEWDPF quaternion0 -0.537887 0.429939 -0.632264 -0.355067
DOCKED: USER    NEWDPF axisangle0 -0.575378 0.459906 -0.676333 -138.404898
DOCKED: USER    NEWDPF quat0 -0.575378 0.459906 -0.676333 -138.404898
DOCKED: USER    NEWDPF dihe0 125.98 78.73 177.23 154.49 180.00 -8.23 -178.31 
DOCKED: USER  keepresnum = 1 
DOCKED: USER  
DOCKED: REMARK  Name = 
DOCKED: REMARK  8 active torsions:
DOCKED: REMARK  status: ('A' for Active; 'I' for Inactive)
DOCKED: REMARK    1  A    between atoms: C_2  and  C_3
DOCKED: REMARK    2  A    between atoms: C_4  and  C_5
DOCKED: REMARK    3  A    between atoms: C_8  and  C_9
DOCKED: REMARK    4  A    between atoms: C_9  and  N_10
DOCKED: REMARK    5  A    between atoms: N_10  and  C_11
DOCKED: REMARK    6  A    between atoms: C_11  and  C_12
DOCKED: REMARK    7  A    between atoms: C_12  and  C_13
DOCKED: REMARK    8  A    between atoms: C_14  and  C_22
DOCKED: REMARK                            x       y       z     vdW  Elec       q    Type
DOCKED: REMARK                         _______ _______ _______ _____ _____    ______ ____
DOCKED: USER                              x       y       z     vdW  Elec       q    Type
DOCKED: USER                           _______ _______ _______ _____ _____    ______ ____
DOCKED: ROOT
DOCKED: ATOM      1  N   UNL     1      39.226  17.384 118.408 -0.05 -0.00    +0.000 N 
DOCKED: ATOM      2  H   UNL     1      39.700  16.597 117.966 -0.00 -0.00    +0.000 HD
DOCKED: ATOM      3  H   UNL     1      39.672  17.643 119.288 +0.00 -0.00    +0.000 HD
DOCKED: ENDROOT
DOCKED: BRANCH   1   4
DOCKED: ATOM      4  C   UNL     1      37.842  16.996 118.705 -0.09 -0.00    +0.000 C 
DOCKED: BRANCH   4   8
DOCKED: ATOM      5  C   UNL     1      37.684  12.883 120.036 -0.42 -0.00    +0.000 A 
DOCKED: ATOM      6  C   UNL     1      38.309  13.869 120.827 -0.34 -0.00    +0.000 A 
DOCKED: ATOM      7  C   UNL     1      38.368  15.195 120.388 -0.22 -0.00    +0.000 A 
DOCKED: ATOM      8  C   UNL     1      37.811  15.561 119.154 -0.17 -0.00    +0.000 A 
DOCKED: ATOM      9  C   UNL     1      37.159  14.589 118.380 -0.27 -0.00    +0.000 A 
DOCKED: ATOM     10  C   UNL     1      37.098  13.264 118.818 -0.38 -0.00    +0.000 A 
DOCKED: ATOM     11  CM  UNL     1      37.738  14.227 119.600 +0.00 -0.00    +0.000 AC
DOCKED: BRANCH   5  12
DOCKED: ATOM     12  C   UNL     1      37.023  11.070 121.614 -0.53 -0.00    +0.000 C 
DOCKED: ATOM     13  C   UNL     1      37.582  11.464 120.459 -0.40 -0.00    +0.000 C 
DOCKED: BRANCH  11  14
DOCKED: ATOM     14  O   UNL     1      36.691   8.786 121.150 -2.56 -0.00    +0.000 OA
DOCKED: ATOM     15  C   UNL     1      36.926   9.657 122.030 -0.63 -0.00    +0.000 C 
DOCKED: ATOM     16  N   UNL     1      37.062   9.248 123.397 -0.57 -0.00    +0.000 N 
DOCKED: ATOM     17  O   UNL     1      37.070   7.933 123.714 -2.45 -0.00    +0.000 OA
DOCKED: ATOM     18  H   UNL     1      37.150   9.926 124.106 -0.52 -0.00    +0.000 HD
DOCKED: ENDBRANCH  11  14
DOCKED: ENDBRANCH   5  12
DOCKED: ENDBRANCH   4   8
DOCKED: ENDBRANCH   1   4
DOCKED: BRANCH   1  18
DOCKED: ATOM     19  C   UNL     1      39.300  18.546 117.509 -0.02 -0.00    +0.000 C 
DOCKED: BRANCH  18  19
DOCKED: ATOM     20  C   UNL     1      39.707  18.158 116.078 -0.04 -0.00    +0.000 C 
DOCKED: BRANCH  19  20
DOCKED: ATOM     21  C   UNL     1      40.025  16.693 116.002 -0.12 -0.00    +0.000 A 
DOCKED: ATOM     22  C   UNL     1      41.273  16.086 116.158 -0.22 -0.00    +0.000 A 
DOCKED: ATOM     23  N   UNL     1      41.185  14.751 115.955 -0.35 -0.00    +0.000 N 
DOCKED: ATOM     24  C   UNL     1      39.898  14.509 115.651 -0.34 -0.00    +0.000 A 
DOCKED: ATOM     25  C   UNL     1      39.162  15.668 115.663 -0.19 -0.00    +0.000 A 
DOCKED: ATOM     26  C   UNL     1      37.801  15.674 115.355 -0.13 -0.00    +0.000 A 
DOCKED: ATOM     27  C   UNL     1      37.193  14.447 115.037 -0.26 -0.00    +0.000 A 
DOCKED: ATOM     28  C   UNL     1      37.950  13.254 115.030 -0.42 -0.00    +0.000 A 
DOCKED: ATOM     29  C   UNL     1      39.322  13.278 115.338 -0.42 -0.00    +0.000 A 
DOCKED: ATOM     30  C   UNL     1      42.545  16.788 116.514 -0.18 -0.00    +0.000 C 
DOCKED: ATOM     31  H   UNL     1      41.914  14.092 116.017 -0.26 -0.00    +0.000 HD
DOCKED: ATOM     32  CM  UNL     1      40.337  15.516 115.888 +0.00 -0.00    +0.000 AC
DOCKED: ATOM     33  CM  UNL     1      38.554  14.472 115.346 +0.00 -0.00    +0.000 AC
DOCKED: ENDBRANCH  19  20
DOCKED: ENDBRANCH  18  19
DOCKED: ENDBRANCH   1  18
DOCKED: TORSDOF 7DOCKED: TER
DOCKED: ENDMDL
________________________________________________________________________________

DPF> analysis                             # perform a ranked cluster analysis


		CLUSTER ANALYSIS OF CONFORMATIONS
		_________________________________

Number of conformations = 100

RMSD cluster analysis will be performed using the ligand atoms only (33 / 33 total atoms).

Outputting structurally similar clusters, ranked in order of increasing energy.


________________________________________________________________________________

Number of distinct conformational clusters found = 12,  out of 100 runs,
Using an rmsd-tolerance of 2.0 A


	CLUSTERING HISTOGRAM
	____________________

________________________________________________________________________________
     |           |     |           |     |                                    
Clus | Lowest    | Run | Mean      | Num | Histogram                          
-ter | Binding   |     | Binding   | in  |                                    
Rank | Energy    |     | Energy    | Clus|    5    10   15   20   25   30   35
_____|___________|_____|___________|_____|____:____|____:____|____:____|____:___
   1 |    -12.72 |  47 |    -11.90 |  11 |###########
   2 |    -12.24 |  43 |    -11.71 |  20 |####################
   3 |    -12.14 |  96 |    -11.39 |   9 |#########
   4 |    -12.01 |   2 |    -11.07 |  22 |######################
   5 |    -11.90 |  33 |    -11.16 |  15 |###############
   6 |    -11.83 |  16 |    -10.95 |  10 |##########
   7 |    -11.23 |  80 |    -11.01 |   2 |##
   8 |    -10.99 |  95 |    -10.30 |   4 |####
   9 |    -10.81 |  30 |    -10.56 |   2 |##
  10 |    -10.62 |  42 |    -10.62 |   1 |#
  11 |    -10.49 |  87 |    -10.43 |   3 |###
  12 |     -9.85 |  52 |     -9.85 |   1 |#
_____|___________|_____|___________|_____|______________________________________


Number of multi-member conformational clusters found = 10, out of 100 runs.

	RMSD TABLE
	__________

_____________________________________________________________________
     |      |      |           |         |                 |
Rank | Sub- | Run  | Binding   | Cluster | Reference       | Grep
     | Rank |      | Energy    | RMSD    | RMSD            | Pattern
_____|______|______|___________|_________|_________________|___________
   1      1     47      -12.72      0.00    129.28           RANKING
   1      2     75      -12.20      1.99    128.49           RANKING
   1      3     50      -12.18      1.78    128.95           RANKING
   1      4     83      -12.05      1.61    128.71           RANKING
   1      5     81      -12.03      1.60    129.02           RANKING
   1      6     48      -11.94      1.52    129.13           RANKING
   1      7     91      -11.89      1.67    128.97           RANKING
   1      8     97      -11.63      1.90    129.79           RANKING
   1      9     12      -11.59      1.78    129.24           RANKING
   1     10     68      -11.35      1.97    128.24           RANKING
   1     11     15      -11.28      1.95    128.91           RANKING
   2      1     43      -12.24      0.00    129.73           RANKING
   2      2     13      -12.17      1.76    128.38           RANKING
   2      3     93      -12.17      1.79    128.38           RANKING
   2      4     14      -12.12      1.87    128.27           RANKING
   2      5     58      -12.08      1.84    128.30           RANKING
   2      6     99      -12.02      1.80    128.26           RANKING
   2      7      5      -12.01      1.80    128.28           RANKING
   2      8     49      -11.99      0.65    129.80           RANKING
   2      9     38      -11.94      1.72    128.57           RANKING
   2     10     89      -11.79      1.91    127.93           RANKING
   2     11     79      -11.72      0.46    129.78           RANKING
   2     12     44      -11.65      1.77    130.14           RANKING
   2     13     54      -11.58      1.05    130.01           RANKING
   2     14     36      -11.53      1.27    130.07           RANKING
   2     15     64      -11.49      1.88    129.02           RANKING
   2     16     71      -11.33      1.78    128.42           RANKING
   2     17     92      -11.24      1.77    128.66           RANKING
   2     18     22      -11.22      1.43    128.61           RANKING
   2     19     35      -10.98      1.11    129.62           RANKING
   2     20     74      -10.84      1.90    127.70           RANKING
   3      1     96      -12.14      0.00    125.22           RANKING
   3      2     76      -12.04      0.37    125.06           RANKING
   3      3     88      -11.92      0.78    124.95           RANKING
   3      4     25      -11.63      1.59    125.31           RANKING
   3      5     20      -11.45      1.54    125.88           RANKING
   3      6      6      -11.08      0.79    125.41           RANKING
   3      7     72      -10.98      1.29    125.47           RANKING
   3      8     34      -10.95      1.85    125.33           RANKING
   3      9     46      -10.33      1.42    125.07           RANKING
   4      1      2      -12.01      0.00    128.24           RANKING
   4      2     98      -11.79      1.84    128.16           RANKING
   4      3     11      -11.77      1.18    128.90           RANKING
   4      4     18      -11.66      1.31    128.20           RANKING
   4      5     55      -11.55      1.12    128.08           RANKING
   4      6      8      -11.30      1.47    127.32           RANKING
   4      7     39      -11.29      0.78    128.29           RANKING
   4      8     63      -11.17      1.45    127.47           RANKING
   4      9     51      -11.12      1.63    128.22           RANKING
   4     10      3      -11.11      1.64    126.98           RANKING
   4     11     82      -11.11      1.62    127.36           RANKING
   4     12     31      -11.10      1.70    128.03           RANKING
   4     13     41      -10.94      1.75    126.67           RANKING
   4     14     65      -10.92      1.54    127.69           RANKING
   4     15     37      -10.90      1.37    127.36           RANKING
   4     16     70      -10.86      1.48    127.39           RANKING
   4     17     10      -10.73      1.49    128.18           RANKING
   4     18     85      -10.72      1.70    127.00           RANKING
   4     19     24      -10.64      1.62    127.84           RANKING
   4     20     77      -10.55      1.85    126.99           RANKING
   4     21     53      -10.51      1.78    127.84           RANKING
   4     22     78       -9.73      1.92    126.64           RANKING
   5      1     33      -11.90      0.00    127.83           RANKING
   5      2     62      -11.79      1.56    128.08           RANKING
   5      3     57      -11.79      1.66    127.59           RANKING
   5      4     32      -11.65      0.96    127.87           RANKING
   5      5     94      -11.48      1.81    126.91           RANKING
   5      6     59      -11.39      1.59    128.00           RANKING
   5      7     29      -11.26      1.60    127.59           RANKING
   5      8     19      -11.26      1.57    127.21           RANKING
   5      9     28      -11.11      1.68    128.01           RANKING
   5     10     27      -10.98      1.89    127.02           RANKING
   5     11     90      -10.72      1.73    127.95           RANKING
   5     12     17      -10.70      1.87    127.87           RANKING
   5     13      7      -10.57      1.94    127.70           RANKING
   5     14     61      -10.47      1.57    127.50           RANKING
   5     15     56      -10.30      1.74    127.54           RANKING
   6      1     16      -11.83      0.00    125.38           RANKING
   6      2     23      -11.65      1.64    125.65           RANKING
   6      3      1      -11.16      1.90    125.83           RANKING
   6      4     67      -11.08      1.14    124.91           RANKING
   6      5     86      -11.05      1.62    125.40           RANKING
   6      6     73      -10.82      1.86    125.59           RANKING
   6      7      9      -10.64      1.28    125.57           RANKING
   6      8     26      -10.50      1.95    125.95           RANKING
   6      9     84      -10.49      1.60    125.22           RANKING
   6     10     60      -10.32      1.89    125.74           RANKING
   7      1     80      -11.23      0.00    125.16           RANKING
   7      2     45      -10.80      1.32    125.70           RANKING
   8      1     95      -10.99      0.00    126.11           RANKING
   8      2      4      -10.37      1.48    126.41           RANKING
   8      3     21       -9.92      1.98    127.06           RANKING
   8      4     69       -9.90      1.92    126.36           RANKING
   9      1     30      -10.81      0.00    125.65           RANKING
   9      2     40      -10.31      1.54    126.53           RANKING
  10      1     42      -10.62      0.00    127.40           RANKING
  11      1     87      -10.49      0.00    123.25           RANKING
  11      2    100      -10.47      0.80    123.40           RANKING
  11      3     66      -10.33      0.77    123.49           RANKING
  12      1     52       -9.85      0.00    127.81           RANKING
_______________________________________________________________________



	INFORMATION ENTROPY ANALYSIS FOR THIS CLUSTERING
	________________________________________________


Information entropy for this clustering = 0.46  (rmstol = 2.00 Angstrom)

_______________________________________________________________________


	STATISTICAL MECHANICAL ANALYSIS
	_______________________________


Partition function, Q =   101.92            at Temperature, T = 298.15 K
Free energy,        A ~ -2739.72 kcal/mol   at Temperature, T = 298.15 K
Internal energy,    U =   -11.24 kcal/mol   at Temperature, T = 298.15 K
Entropy,            S =     9.15 kcal/mol/K at Temperature, T = 298.15 K

_______________________________________________________________________


	LOWEST ENERGY DOCKED CONFORMATION from EACH CLUSTER
	___________________________________________________



Keeping original residue number (specified in the input PDBQ file) for outputting.

MODEL       47
USER    Run = 47
USER    Cluster Rank = 1
USER    Number of conformations in this cluster = 11
USER  
USER    RMSD from reference structure       = 129.279 A
USER  
USER    Estimated Free Energy of Binding    =  -12.72 kcal/mol  [=(1)+(2)+(3)-(4)]
USER    Estimated Inhibition Constant, Ki   =  472.86 pM (picomolar)  [Temperature = 298.15 K]
USER    
USER    (1) Final Intermolecular Energy     =  -14.81 kcal/mol
USER        vdW + Hbond + desolv Energy     =  -14.81 kcal/mol
USER        Electrostatic Energy            =   +0.00 kcal/mol
USER    (2) Final Total Internal Energy     =   -1.16 kcal/mol
USER    (3) Torsional Free Energy           =   +2.09 kcal/mol
USER    (4) Unbound System's Energy  [=(2)] =   -1.16 kcal/mol
USER    
USER    
USER  
USER    DPF = ligand_dock.biased.dpf
USER    NEWDPF move	ligand.dum.pdbqt
USER    NEWDPF about	0.576000 -0.005000 0.140000
USER    NEWDPF tran0	35.185815 17.132656 124.835755
USER    NEWDPF axisangle0	0.385932 0.027866 -0.922106 -55.205575
USER    NEWDPF quaternion0	0.178817 0.012911 -0.427248 -0.886181
USER    NEWDPF dihe0	27.17 -96.08 -6.01 -32.37 101.49 20.21 122.61 
USER  
USER                              x       y       z    vdW   Elec        q     RMS 
ATOM      1  N   UNL     1      34.788  17.635 125.284 -0.34 -0.00    +0.000    129.279
ATOM      2  H   UNL     1      35.547  17.492 125.950 -0.02 -0.00    +0.000    129.279
ATOM      3  H   UNL     1      34.043  16.951 125.414 -0.02 -0.00    +0.000    129.279
ATOM      4  C   UNL     1      35.317  17.468 123.924 -0.36 -0.00    +0.000    129.279
ATOM      5  C   UNL     1      36.531  13.347 123.418 -0.53 -0.00    +0.000    129.279
ATOM      6  C   UNL     1      37.469  14.391 123.292 -0.39 -0.00    +0.000    129.279
ATOM      7  C   UNL     1      37.071  15.723 123.445 -0.32 -0.00    +0.000    129.279
ATOM      8  C   UNL     1      35.733  16.037 123.721 -0.39 -0.00    +0.000    129.279
ATOM      9  C   UNL     1      34.803  14.999 123.881 -0.50 -0.00    +0.000    129.279
ATOM     10  C   UNL     1      35.199  13.668 123.730 -0.10 -0.00    +0.000    129.279
ATOM     11  CM  UNL     1      36.134  14.695 123.582 +0.00 -0.00    +0.000    129.279
ATOM     12  C   UNL     1      36.394  11.105 122.338 -0.66 -0.00    +0.000    129.279
ATOM     13  C   UNL     1      36.901  11.917 123.279 -0.67 -0.00    +0.000    129.279
ATOM     14  O   UNL     1      36.992   9.225 121.053 -2.70 -0.00    +0.000    129.279
ATOM     15  C   UNL     1      36.765   9.682 122.205 -0.67 -0.00    +0.000    129.279
ATOM     16  N   UNL     1      36.847   8.802 123.333 -0.63 -0.00    +0.000    129.279
ATOM     17  O   UNL     1      37.292   7.534 123.173 -2.34 -0.00    +0.000    129.279
ATOM     18  H   UNL     1      36.579   9.121 124.225 -0.42 -0.00    +0.000    129.279
ATOM     19  C   UNL     1      34.214  18.971 125.500 -0.29 -0.00    +0.000    129.279
ATOM     20  C   UNL     1      34.013  19.292 126.990 -0.20 -0.00    +0.000    129.279
ATOM     21  C   UNL     1      32.724  18.701 127.484 -0.22 -0.00    +0.000    129.279
ATOM     22  C   UNL     1      32.507  17.399 127.936 -0.32 -0.00    +0.000    129.279
ATOM     23  N   UNL     1      31.200  17.208 128.236 -0.42 -0.00    +0.000    129.279
ATOM     24  C   UNL     1      30.585  18.371 127.958 -0.25 -0.00    +0.000    129.279
ATOM     25  C   UNL     1      31.480  19.302 127.491 -0.23 -0.00    +0.000    129.279
ATOM     26  C   UNL     1      31.073  20.582 127.111 -0.24 -0.00    +0.000    129.279
ATOM     27  C   UNL     1      29.708  20.900 127.229 -0.29 -0.00    +0.000    129.279
ATOM     28  C   UNL     1      28.790  19.943 127.715 -0.46 -0.00    +0.000    129.279
ATOM     29  C   UNL     1      29.227  18.658 128.084 -0.28 -0.00    +0.000    129.279
ATOM     30  C   UNL     1      33.554  16.343 128.092 -0.37 -0.00    +0.000    129.279
ATOM     31  H   UNL     1      30.785  16.386 128.586 -0.17 -0.00    +0.000    129.279
ATOM     32  CM  UNL     1      31.683  18.164 127.834 +0.00 -0.00    +0.000    129.279
ATOM     33  CM  UNL     1      30.144  19.627 127.598 +0.00 -0.00    +0.000    129.279
TER
ENDMDL
MODEL       43
USER    Run = 43
USER    Cluster Rank = 2
USER    Number of conformations in this cluster = 20
USER  
USER    RMSD from reference structure       = 129.728 A
USER  
USER    Estimated Free Energy of Binding    =  -12.24 kcal/mol  [=(1)+(2)+(3)-(4)]
USER    Estimated Inhibition Constant, Ki   =    1.06 nM (nanomolar)  [Temperature = 298.15 K]
USER    
USER    (1) Final Intermolecular Energy     =  -14.33 kcal/mol
USER        vdW + Hbond + desolv Energy     =  -14.33 kcal/mol
USER        Electrostatic Energy            =   +0.00 kcal/mol
USER    (2) Final Total Internal Energy     =   -1.36 kcal/mol
USER    (3) Torsional Free Energy           =   +2.09 kcal/mol
USER    (4) Unbound System's Energy  [=(2)] =   -1.36 kcal/mol
USER    
USER    
USER  
USER    DPF = ligand_dock.biased.dpf
USER    NEWDPF move	ligand.dum.pdbqt
USER    NEWDPF about	0.576000 -0.005000 0.140000
USER    NEWDPF tran0	37.801598 17.531090 123.496099
USER    NEWDPF axisangle0	0.287628 -0.772615 0.565982 79.569515
USER    NEWDPF quaternion0	0.184055 -0.494400 0.362175 0.768454
USER    NEWDPF dihe0	-49.66 177.79 7.35 180.00 144.36 46.35 130.19 
USER  
USER                              x       y       z    vdW   Elec        q     RMS 
ATOM      1  N   UNL     1      37.944  18.113 123.998 -0.18 -0.00    +0.000    129.728
ATOM      2  H   UNL     1      38.834  18.190 123.508 +0.00 -0.00    +0.000    129.728
ATOM      3  H   UNL     1      38.000  17.450 124.772 -0.02 -0.00    +0.000    129.728
ATOM      4  C   UNL     1      36.929  17.620 123.060 -0.21 -0.00    +0.000    129.728
ATOM      5  C   UNL     1      36.661  13.307 123.248 -0.53 -0.00    +0.000    129.728
ATOM      6  C   UNL     1      35.817  14.112 124.039 -0.45 -0.00    +0.000    129.728
ATOM      7  C   UNL     1      35.915  15.506 123.985 -0.40 -0.00    +0.000    129.728
ATOM      8  C   UNL     1      36.855  16.120 123.145 -0.29 -0.00    +0.000    129.728
ATOM      9  C   UNL     1      37.673  15.323 122.331 -0.30 -0.00    +0.000    129.728
ATOM     10  C   UNL     1      37.576  13.930 122.384 -0.43 -0.00    +0.000    129.728
ATOM     11  CM  UNL     1      36.750  14.717 123.188 +0.00 -0.00    +0.000    129.728
ATOM     12  C   UNL     1      36.992  11.054 122.234 -0.57 -0.00    +0.000    129.728
ATOM     13  C   UNL     1      36.592  11.824 123.258 -0.69 -0.00    +0.000    129.728
ATOM     14  O   UNL     1      36.697   8.978 121.164 -2.62 -0.00    +0.000    129.728
ATOM     15  C   UNL     1      36.919   9.579 122.248 -0.64 -0.00    +0.000    129.728
ATOM     16  N   UNL     1      37.065   8.815 123.453 -0.62 -0.00    +0.000    129.728
ATOM     17  O   UNL     1      37.095   7.463 123.399 -2.48 -0.00    +0.000    129.728
ATOM     18  H   UNL     1      37.143   9.275 124.319 -0.55 -0.00    +0.000    129.728
ATOM     19  C   UNL     1      37.597  19.428 124.558 -0.13 -0.00    +0.000    129.728
ATOM     20  C   UNL     1      38.829  20.199 125.058 -0.08 -0.00    +0.000    129.728
ATOM     21  C   UNL     1      39.785  19.269 125.747 -0.17 -0.00    +0.000    129.728
ATOM     22  C   UNL     1      40.925  18.671 125.206 -0.26 -0.00    +0.000    129.728
ATOM     23  N   UNL     1      41.501  17.840 126.106 -0.34 -0.00    +0.000    129.728
ATOM     24  C   UNL     1      40.726  17.890 127.203 -0.37 -0.00    +0.000    129.728
ATOM     25  C   UNL     1      39.667  18.744 127.020 -0.23 -0.00    +0.000    129.728
ATOM     26  C   UNL     1      38.708  18.945 128.014 -0.16 -0.00    +0.000    129.728
ATOM     27  C   UNL     1      38.860  18.247 129.225 -0.22 -0.00    +0.000    129.728
ATOM     28  C   UNL     1      39.953  17.372 129.414 -0.37 -0.00    +0.000    129.728
ATOM     29  C   UNL     1      40.902  17.184 128.393 -0.37 -0.00    +0.000    129.728
ATOM     30  C   UNL     1      41.465  18.908 123.832 -0.20 -0.00    +0.000    129.728
ATOM     31  H   UNL     1      42.320  17.307 125.982 -0.43 -0.00    +0.000    129.728
ATOM     32  CM  UNL     1      40.553  18.462 126.251 +0.00 -0.00    +0.000    129.728
ATOM     33  CM  UNL     1      39.802  18.064 128.212 +0.00 -0.00    +0.000    129.728
TER
ENDMDL
MODEL       96
USER    Run = 96
USER    Cluster Rank = 3
USER    Number of conformations in this cluster = 9
USER  
USER    RMSD from reference structure       = 125.222 A
USER  
USER    Estimated Free Energy of Binding    =  -12.14 kcal/mol  [=(1)+(2)+(3)-(4)]
USER    Estimated Inhibition Constant, Ki   =    1.26 nM (nanomolar)  [Temperature = 298.15 K]
USER    
USER    (1) Final Intermolecular Energy     =  -14.23 kcal/mol
USER        vdW + Hbond + desolv Energy     =  -14.23 kcal/mol
USER        Electrostatic Energy            =   +0.00 kcal/mol
USER    (2) Final Total Internal Energy     =   -1.13 kcal/mol
USER    (3) Torsional Free Energy           =   +2.09 kcal/mol
USER    (4) Unbound System's Energy  [=(2)] =   -1.13 kcal/mol
USER    
USER    
USER  
USER    DPF = ligand_dock.biased.dpf
USER    NEWDPF move	ligand.dum.pdbqt
USER    NEWDPF about	0.576000 -0.005000 0.140000
USER    NEWDPF tran0	35.154948 18.231124 123.565252
USER    NEWDPF axisangle0	0.560283 0.823559 -0.088506 86.768876
USER    NEWDPF quaternion0	0.384853 0.565695 -0.060794 0.726761
USER    NEWDPF dihe0	3.34 -50.25 -179.83 -152.72 30.81 141.00 -179.87 
USER  
USER                              x       y       z    vdW   Elec        q     RMS 
ATOM      1  N   UNL     1      34.681  18.094 122.959 -0.32 -0.00    +0.000    125.222
ATOM      2  H   UNL     1      34.593  19.109 122.922 -0.00 -0.00    +0.000    125.222
ATOM      3  H   UNL     1      33.984  17.681 123.579 -0.02 -0.00    +0.000    125.222
ATOM      4  C   UNL     1      36.008  17.754 123.488 -0.27 -0.00    +0.000    125.222
ATOM      5  C   UNL     1      36.669  13.486 123.260 -0.52 -0.00    +0.000    125.222
ATOM      6  C   UNL     1      37.527  14.381 122.589 -0.40 -0.00    +0.000    125.222
ATOM      7  C   UNL     1      37.303  15.759 122.655 -0.29 -0.00    +0.000    125.222
ATOM      8  C   UNL     1      36.221  16.269 123.387 -0.32 -0.00    +0.000    125.222
ATOM      9  C   UNL     1      35.385  15.384 124.083 -0.47 -0.00    +0.000    125.222
ATOM     10  C   UNL     1      35.608  14.006 124.019 -0.43 -0.00    +0.000    125.222
ATOM     11  CM  UNL     1      36.452  14.881 123.333 +0.00 -0.00    +0.000    125.222
ATOM     12  C   UNL     1      36.617  11.250 122.160 -0.63 -0.00    +0.000    125.222
ATOM     13  C   UNL     1      36.867  12.015 123.233 -0.67 -0.00    +0.000    125.222
ATOM     14  O   UNL     1      36.928   9.210 121.025 -2.69 -0.00    +0.000    125.222
ATOM     15  C   UNL     1      36.814   9.786 122.140 -0.65 -0.00    +0.000    125.222
ATOM     16  N   UNL     1      36.853   9.001 123.339 -0.61 -0.00    +0.000    125.222
ATOM     17  O   UNL     1      37.140   7.680 123.275 -2.56 -0.00    +0.000    125.222
ATOM     18  H   UNL     1      36.670   9.424 124.208 -0.48 -0.00    +0.000    125.222
ATOM     19  C   UNL     1      34.461  17.551 121.611 -0.34 -0.00    +0.000    125.222
ATOM     20  C   UNL     1      34.504  18.636 120.523 -0.29 -0.00    +0.000    125.222
ATOM     21  C   UNL     1      33.682  18.222 119.337 -0.24 -0.00    +0.000    125.222
ATOM     22  C   UNL     1      34.105  17.494 118.224 -0.10 -0.00    +0.000    125.222
ATOM     23  N   UNL     1      33.102  17.369 117.323 -0.16 -0.00    +0.000    125.222
ATOM     24  C   UNL     1      32.054  18.030 117.846 -0.19 -0.00    +0.000    125.222
ATOM     25  C   UNL     1      32.371  18.569 119.068 -0.32 -0.00    +0.000    125.222
ATOM     26  C   UNL     1      31.450  19.323 119.797 -0.41 -0.00    +0.000    125.222
ATOM     27  C   UNL     1      30.170  19.511 119.244 -0.32 -0.00    +0.000    125.222
ATOM     28  C   UNL     1      29.844  18.951 117.989 -0.23 -0.00    +0.000    125.222
ATOM     29  C   UNL     1      30.794  18.201 117.274 -0.17 -0.00    +0.000    125.222
ATOM     30  C   UNL     1      35.467  16.907 118.032 -0.15 -0.00    +0.000    125.222
ATOM     31  H   UNL     1      33.133  16.893 116.462 -0.00 -0.00    +0.000    125.222
ATOM     32  CM  UNL     1      33.064  17.918 118.326 +0.00 -0.00    +0.000    125.222
ATOM     33  CM  UNL     1      31.113  18.764 118.537 +0.00 -0.00    +0.000    125.222
TER
ENDMDL
MODEL        2
USER    Run = 2
USER    Cluster Rank = 4
USER    Number of conformations in this cluster = 22
USER  
USER    RMSD from reference structure       = 128.238 A
USER  
USER    Estimated Free Energy of Binding    =  -12.01 kcal/mol  [=(1)+(2)+(3)-(4)]
USER    Estimated Inhibition Constant, Ki   =    1.58 nM (nanomolar)  [Temperature = 298.15 K]
USER    
USER    (1) Final Intermolecular Energy     =  -14.10 kcal/mol
USER        vdW + Hbond + desolv Energy     =  -14.10 kcal/mol
USER        Electrostatic Energy            =   +0.00 kcal/mol
USER    (2) Final Total Internal Energy     =   -1.38 kcal/mol
USER    (3) Torsional Free Energy           =   +2.09 kcal/mol
USER    (4) Unbound System's Energy  [=(2)] =   -1.38 kcal/mol
USER    
USER    
USER  
USER    DPF = ligand_dock.biased.dpf
USER    NEWDPF move	ligand.dum.pdbqt
USER    NEWDPF about	0.576000 -0.005000 0.140000
USER    NEWDPF tran0	37.810137 17.346564 123.307854
USER    NEWDPF axisangle0	0.213702 0.160889 -0.963559 -64.185453
USER    NEWDPF quaternion0	0.113538 0.085479 -0.511930 -0.847189
USER    NEWDPF dihe0	152.02 178.67 -179.92 -78.32 -147.24 33.43 21.05 
USER  
USER                              x       y       z    vdW   Elec        q     RMS 
ATOM      1  N   UNL     1      37.599  17.917 123.799 -0.19 -0.00    +0.000    128.238
ATOM      2  H   UNL     1      38.454  17.671 124.298 -0.01 -0.00    +0.000    128.238
ATOM      3  H   UNL     1      36.806  17.363 124.123 -0.01 -0.00    +0.000    128.238
ATOM      4  C   UNL     1      37.789  17.634 122.371 -0.15 -0.00    +0.000    128.238
ATOM      5  C   UNL     1      37.342  13.386 121.691 -0.42 -0.00    +0.000    128.238
ATOM      6  C   UNL     1      37.925  14.211 120.709 -0.32 -0.00    +0.000    128.238
ATOM      7  C   UNL     1      38.057  15.586 120.927 -0.20 -0.00    +0.000    128.238
ATOM      8  C   UNL     1      37.608  16.162 122.124 -0.22 -0.00    +0.000    128.238
ATOM      9  C   UNL     1      37.059  15.338 123.118 -0.35 -0.00    +0.000    128.238
ATOM     10  C   UNL     1      36.927  13.965 122.902 -0.45 -0.00    +0.000    128.238
ATOM     11  CM  UNL     1      37.486  14.775 121.912 +0.00 -0.00    +0.000    128.238
ATOM     12  C   UNL     1      37.088  11.056 122.539 -0.55 -0.00    +0.000    128.238
ATOM     13  C   UNL     1      37.189  11.920 121.517 -0.53 -0.00    +0.000    128.238
ATOM     14  O   UNL     1      36.685   9.157 121.206 -2.62 -0.00    +0.000    128.238
ATOM     15  C   UNL     1      36.938   9.598 122.359 -0.64 -0.00    +0.000    128.238
ATOM     16  N   UNL     1      37.043   8.675 123.451 -0.64 -0.00    +0.000    128.238
ATOM     17  O   UNL     1      37.001   7.342 123.219 -2.33 -0.00    +0.000    128.238
ATOM     18  H   UNL     1      37.144   9.012 124.371 -0.54 -0.00    +0.000    128.238
ATOM     19  C   UNL     1      37.293  19.332 124.053 -0.14 -0.00    +0.000    128.238
ATOM     20  C   UNL     1      35.781  19.604 124.126 -0.20 -0.00    +0.000    128.238
ATOM     21  C   UNL     1      35.051  18.382 124.603 -0.27 -0.00    +0.000    128.238
ATOM     22  C   UNL     1      34.536  17.344 123.824 -0.38 -0.00    +0.000    128.238
ATOM     23  N   UNL     1      33.882  16.445 124.597 -0.43 -0.00    +0.000    128.238
ATOM     24  C   UNL     1      33.960  16.916 125.854 -0.37 -0.00    +0.000    128.238
ATOM     25  C   UNL     1      34.658  18.097 125.897 -0.28 -0.00    +0.000    128.238
ATOM     26  C   UNL     1      34.852  18.791 127.092 -0.17 -0.00    +0.000    128.238
ATOM     27  C   UNL     1      34.314  18.237 128.268 -0.16 -0.00    +0.000    128.238
ATOM     28  C   UNL     1      33.599  17.019 128.224 -0.31 -0.00    +0.000    128.238
ATOM     29  C   UNL     1      33.414  16.345 127.003 -0.34 -0.00    +0.000    128.238
ATOM     30  C   UNL     1      34.683  17.210 122.342 -0.38 -0.00    +0.000    128.238
ATOM     31  H   UNL     1      33.439  15.618 124.299 -0.08 -0.00    +0.000    128.238
ATOM     32  CM  UNL     1      34.400  17.405 124.943 -0.38 -0.00    +0.000    128.238
ATOM     33  CM  UNL     1      34.133  17.568 127.057 -0.02 -0.00    +0.000    128.238
TER
ENDMDL
MODEL       33
USER    Run = 33
USER    Cluster Rank = 5
USER    Number of conformations in this cluster = 15
USER  
USER    RMSD from reference structure       = 127.828 A
USER  
USER    Estimated Free Energy of Binding    =  -11.90 kcal/mol  [=(1)+(2)+(3)-(4)]
USER    Estimated Inhibition Constant, Ki   =    1.88 nM (nanomolar)  [Temperature = 298.15 K]
USER    
USER    (1) Final Intermolecular Energy     =  -13.99 kcal/mol
USER        vdW + Hbond + desolv Energy     =  -13.99 kcal/mol
USER        Electrostatic Energy            =   +0.00 kcal/mol
USER    (2) Final Total Internal Energy     =   -1.57 kcal/mol
USER    (3) Torsional Free Energy           =   +2.09 kcal/mol
USER    (4) Unbound System's Energy  [=(2)] =   -1.57 kcal/mol
USER    
USER    
USER  
USER    DPF = ligand_dock.biased.dpf
USER    NEWDPF move	ligand.dum.pdbqt
USER    NEWDPF about	0.576000 -0.005000 0.140000
USER    NEWDPF tran0	36.436620 18.355769 122.737996
USER    NEWDPF axisangle0	-0.185430 -0.359108 -0.914690 -173.663043
USER    NEWDPF quaternion0	-0.185147 -0.358559 -0.913291 -0.055272
USER    NEWDPF dihe0	-5.07 162.76 177.29 164.97 -1.47 -112.73 168.48 
USER  
USER                              x       y       z    vdW   Elec        q     RMS 
ATOM      1  N   UNL     1      37.212  18.451 122.753 -0.12 -0.00    +0.000    127.828
ATOM      2  H   UNL     1      37.110  18.336 123.761 +0.00 -0.00    +0.000    127.828
ATOM      3  H   UNL     1      37.112  19.428 122.476 +0.00 -0.00    +0.000    127.828
ATOM      4  C   UNL     1      36.155  17.685 122.081 -0.23 -0.00    +0.000    127.828
ATOM      5  C   UNL     1      36.720  13.445 122.724 -0.48 -0.00    +0.000    127.828
ATOM      6  C   UNL     1      36.170  14.256 123.737 -0.47 -0.00    +0.000    127.828
ATOM      7  C   UNL     1      36.000  15.629 123.530 -0.39 -0.00    +0.000    127.828
ATOM      8  C   UNL     1      36.377  16.216 122.314 -0.25 -0.00    +0.000    127.828
ATOM      9  C   UNL     1      36.893  15.406 121.292 -0.19 -0.00    +0.000    127.828
ATOM     10  C   UNL     1      37.062  14.035 121.496 -0.31 -0.00    +0.000    127.828
ATOM     11  CM  UNL     1      36.537  14.831 122.515 +0.00 -0.00    +0.000    127.828
ATOM     12  C   UNL     1      36.675  11.089 121.912 -0.61 -0.00    +0.000    127.828
ATOM     13  C   UNL     1      36.911  11.982 122.886 -0.65 -0.00    +0.000    127.828
ATOM     14  O   UNL     1      36.833   8.902 121.054 -2.65 -0.00    +0.000    127.828
ATOM     15  C   UNL     1      36.865   9.634 122.079 -0.64 -0.00    +0.000    127.828
ATOM     16  N   UNL     1      37.057   9.028 123.364 -0.61 -0.00    +0.000    127.828
ATOM     17  O   UNL     1      37.331   7.706 123.456 -2.62 -0.00    +0.000    127.828
ATOM     18  H   UNL     1      36.988   9.574 124.180 -0.56 -0.00    +0.000    127.828
ATOM     19  C   UNL     1      38.559  18.008 122.361 -0.12 -0.00    +0.000    127.828
ATOM     20  C   UNL     1      39.373  17.472 123.551 -0.24 -0.00    +0.000    127.828
ATOM     21  C   UNL     1      40.680  16.906 123.077 -0.28 -0.00    +0.000    127.828
ATOM     22  C   UNL     1      40.954  15.582 122.729 -0.41 -0.00    +0.000    127.828
ATOM     23  N   UNL     1      42.263  15.432 122.415 -0.48 -0.00    +0.000    127.828
ATOM     24  C   UNL     1      42.823  16.642 122.583 -0.37 -0.00    +0.000    127.828
ATOM     25  C   UNL     1      41.893  17.564 122.992 -0.27 -0.00    +0.000    127.828
ATOM     26  C   UNL     1      42.241  18.890 123.256 -0.15 -0.00    +0.000    127.828
ATOM     27  C   UNL     1      43.586  19.263 123.080 -0.07 -0.00    +0.000    127.828
ATOM     28  C   UNL     1      44.542  18.314 122.653 -0.20 -0.00    +0.000    127.828
ATOM     29  C   UNL     1      44.163  16.983 122.401 -0.30 -0.00    +0.000    127.828
ATOM     30  C   UNL     1      39.959  14.468 122.685 -0.30 -0.00    +0.000    127.828
ATOM     31  H   UNL     1      42.712  14.605 122.124 -0.03 -0.00    +0.000    127.828
ATOM     32  CM  UNL     1      41.740  16.393 122.748 +0.00 -0.00    +0.000    127.828
ATOM     33  CM  UNL     1      43.208  17.943 122.827 +0.00 -0.00    +0.000    127.828
TER
ENDMDL
MODEL       16
USER    Run = 16
USER    Cluster Rank = 6
USER    Number of conformations in this cluster = 10
USER  
USER    RMSD from reference structure       = 125.379 A
USER  
USER    Estimated Free Energy of Binding    =  -11.83 kcal/mol  [=(1)+(2)+(3)-(4)]
USER    Estimated Inhibition Constant, Ki   =    2.15 nM (nanomolar)  [Temperature = 298.15 K]
USER    
USER    (1) Final Intermolecular Energy     =  -13.91 kcal/mol
USER        vdW + Hbond + desolv Energy     =  -13.91 kcal/mol
USER        Electrostatic Energy            =   +0.00 kcal/mol
USER    (2) Final Total Internal Energy     =   -1.85 kcal/mol
USER    (3) Torsional Free Energy           =   +2.09 kcal/mol
USER    (4) Unbound System's Energy  [=(2)] =   -1.85 kcal/mol
USER    
USER    
USER  
USER    DPF = ligand_dock.biased.dpf
USER    NEWDPF move	ligand.dum.pdbqt
USER    NEWDPF about	0.576000 -0.005000 0.140000
USER    NEWDPF tran0	35.067878 18.181577 123.457894
USER    NEWDPF axisangle0	0.659002 0.749764 0.059751 113.571975
USER    NEWDPF quaternion0	0.551341 0.627275 0.049990 0.547768
USER    NEWDPF dihe0	48.57 -97.26 7.51 -174.14 12.15 173.11 -172.05 
USER  
USER                              x       y       z    vdW   Elec        q     RMS 
ATOM      1  N   UNL     1      34.817  17.981 122.745 -0.32 -0.00    +0.000    125.379
ATOM      2  H   UNL     1      35.076  18.934 122.491 -0.01 -0.00    +0.000    125.379
ATOM      3  H   UNL     1      33.855  17.933 123.082 -0.03 -0.00    +0.000    125.379
ATOM      4  C   UNL     1      35.694  17.527 123.832 -0.32 -0.00    +0.000    125.379
ATOM      5  C   UNL     1      36.774  13.376 123.271 -0.52 -0.00    +0.000    125.379
ATOM      6  C   UNL     1      37.657  14.405 122.884 -0.41 -0.00    +0.000    125.379
ATOM      7  C   UNL     1      37.300  15.746 123.056 -0.31 -0.00    +0.000    125.379
ATOM      8  C   UNL     1      36.058  16.085 123.612 -0.35 -0.00    +0.000    125.379
ATOM      9  C   UNL     1      35.191  15.064 124.029 -0.50 -0.00    +0.000    125.379
ATOM     10  C   UNL     1      35.546  13.724 123.859 -0.42 -0.00    +0.000    125.379
ATOM     11  CM  UNL     1      36.421  14.733 123.452 +0.00 -0.00    +0.000    125.379
ATOM     12  C   UNL     1      36.389  11.080 122.381 -0.67 -0.00    +0.000    125.379
ATOM     13  C   UNL     1      37.107  11.938 123.123 -0.64 -0.00    +0.000    125.379
ATOM     14  O   UNL     1      37.066   9.222 121.103 -2.73 -0.00    +0.000    125.379
ATOM     15  C   UNL     1      36.724   9.649 122.238 -0.69 -0.00    +0.000    125.379
ATOM     16  N   UNL     1      36.648   8.731 123.336 -0.63 -0.00    +0.000    125.379
ATOM     17  O   UNL     1      37.066   7.453 123.181 -2.41 -0.00    +0.000    125.379
ATOM     18  H   UNL     1      36.292   9.030 124.203 -0.33 -0.00    +0.000    125.379
ATOM     19  C   UNL     1      34.919  17.128 121.551 -0.23 -0.00    +0.000    125.379
ATOM     20  C   UNL     1      35.840  17.727 120.476 -0.21 -0.00    +0.000    125.379
ATOM     21  C   UNL     1      35.762  16.921 119.212 -0.11 -0.00    +0.000    125.379
ATOM     22  C   UNL     1      34.995  17.195 118.078 -0.13 -0.00    +0.000    125.379
ATOM     23  N   UNL     1      35.127  16.207 117.161 -0.15 -0.00    +0.000    125.379
ATOM     24  C   UNL     1      35.953  15.302 117.712 -0.22 -0.00    +0.000    125.379
ATOM     25  C   UNL     1      36.356  15.698 118.964 -0.16 -0.00    +0.000    125.379
ATOM     26  C   UNL     1      37.200  14.909 119.746 -0.23 -0.00    +0.000    125.379
ATOM     27  C   UNL     1      37.641  13.686 119.209 -0.33 -0.00    +0.000    125.379
ATOM     28  C   UNL     1      37.231  13.282 117.919 -0.35 -0.00    +0.000    125.379
ATOM     29  C   UNL     1      36.374  14.095 117.155 -0.33 -0.00    +0.000    125.379
ATOM     30  C   UNL     1      34.146  18.408 117.871 -0.15 -0.00    +0.000    125.379
ATOM     31  H   UNL     1      34.704  16.162 116.273 +0.00 -0.00    +0.000    125.379
ATOM     32  CM  UNL     1      35.622  16.263 118.191 +0.00 -0.00    +0.000    125.379
ATOM     33  CM  UNL     1      36.793  14.495 118.451 +0.00 -0.00    +0.000    125.379
TER
ENDMDL
MODEL       80
USER    Run = 80
USER    Cluster Rank = 7
USER    Number of conformations in this cluster = 2
USER  
USER    RMSD from reference structure       = 125.162 A
USER  
USER    Estimated Free Energy of Binding    =  -11.23 kcal/mol  [=(1)+(2)+(3)-(4)]
USER    Estimated Inhibition Constant, Ki   =    5.89 nM (nanomolar)  [Temperature = 298.15 K]
USER    
USER    (1) Final Intermolecular Energy     =  -13.32 kcal/mol
USER        vdW + Hbond + desolv Energy     =  -13.32 kcal/mol
USER        Electrostatic Energy            =   +0.00 kcal/mol
USER    (2) Final Total Internal Energy     =   -1.01 kcal/mol
USER    (3) Torsional Free Energy           =   +2.09 kcal/mol
USER    (4) Unbound System's Energy  [=(2)] =   -1.01 kcal/mol
USER    
USER    
USER  
USER    DPF = ligand_dock.biased.dpf
USER    NEWDPF move	ligand.dum.pdbqt
USER    NEWDPF about	0.576000 -0.005000 0.140000
USER    NEWDPF tran0	36.632383 17.604759 121.710752
USER    NEWDPF axisangle0	-0.812915 0.485842 -0.321134 -167.303260
USER    NEWDPF quaternion0	-0.807930 0.482863 -0.319164 -0.110573
USER    NEWDPF dihe0	-36.06 -180.00 165.51 -77.78 -19.85 -27.02 -176.98 
USER  
USER                              x       y       z    vdW   Elec        q     RMS 
ATOM      1  N   UNL     1      36.503  18.107 121.126 -0.14 -0.00    +0.000    125.162
ATOM      2  H   UNL     1      36.518  17.275 120.536 +0.00 -0.00    +0.000    125.162
ATOM      3  H   UNL     1      37.437  18.501 121.239 +0.00 -0.00    +0.000    125.162
ATOM      4  C   UNL     1      36.011  17.733 122.458 -0.25 -0.00    +0.000    125.162
ATOM      5  C   UNL     1      36.338  13.448 122.943 -0.47 -0.00    +0.000    125.162
ATOM      6  C   UNL     1      35.540  14.209 123.820 -0.49 -0.00    +0.000    125.162
ATOM      7  C   UNL     1      35.445  15.596 123.668 -0.44 -0.00    +0.000    125.162
ATOM      8  C   UNL     1      36.147  16.247 122.643 -0.28 -0.00    +0.000    125.162
ATOM      9  C   UNL     1      36.915  15.489 121.748 -0.23 -0.00    +0.000    125.162
ATOM     10  C   UNL     1      37.010  14.103 121.898 -0.33 -0.00    +0.000    125.162
ATOM     11  CM  UNL     1      36.232  14.849 122.786 +0.00 -0.00    +0.000    125.162
ATOM     12  C   UNL     1      36.827  11.180 122.032 -0.60 -0.00    +0.000    125.162
ATOM     13  C   UNL     1      36.464  11.973 123.052 -0.68 -0.00    +0.000    125.162
ATOM     14  O   UNL     1      36.927   9.024 121.091 -2.68 -0.00    +0.000    125.162
ATOM     15  C   UNL     1      36.949   9.713 122.146 -0.62 -0.00    +0.000    125.162
ATOM     16  N   UNL     1      37.062   9.048 123.411 -0.59 -0.00    +0.000    125.162
ATOM     17  O   UNL     1      37.276   7.712 123.458 -2.64 -0.00    +0.000    125.162
ATOM     18  H   UNL     1      36.984   9.564 124.245 -0.54 -0.00    +0.000    125.162
ATOM     19  C   UNL     1      35.660  19.126 120.483 -0.18 -0.00    +0.000    125.162
ATOM     20  C   UNL     1      34.755  18.538 119.388 -0.23 -0.00    +0.000    125.162
ATOM     21  C   UNL     1      33.552  19.411 119.179 -0.22 -0.00    +0.000    125.162
ATOM     22  C   UNL     1      32.247  19.174 119.614 -0.35 -0.00    +0.000    125.162
ATOM     23  N   UNL     1      31.413  20.149 119.180 -0.33 -0.00    +0.000    125.162
ATOM     24  C   UNL     1      32.174  20.988 118.456 -0.17 -0.00    +0.000    125.162
ATOM     25  C   UNL     1      33.481  20.568 118.426 -0.13 -0.00    +0.000    125.162
ATOM     26  C   UNL     1      34.459  21.266 117.716 -0.10 -0.00    +0.000    125.162
ATOM     27  C   UNL     1      34.068  22.429 117.029 -0.07 -0.00    +0.000    125.162
ATOM     28  C   UNL     1      32.724  22.864 117.065 -0.08 -0.00    +0.000    125.162
ATOM     29  C   UNL     1      31.758  22.137 117.784 -0.14 -0.00    +0.000    125.162
ATOM     30  C   UNL     1      31.804  18.021 120.457 -0.30 -0.00    +0.000    125.162
ATOM     31  H   UNL     1      30.448  20.227 119.358 -0.03 -0.00    +0.000    125.162
ATOM     32  CM  UNL     1      32.536  20.061 118.978 +0.00 -0.00    +0.000    125.162
ATOM     33  CM  UNL     1      33.111  21.709 117.746 +0.00 -0.00    +0.000    125.162
TER
ENDMDL
MODEL       95
USER    Run = 95
USER    Cluster Rank = 8
USER    Number of conformations in this cluster = 4
USER  
USER    RMSD from reference structure       = 126.111 A
USER  
USER    Estimated Free Energy of Binding    =  -10.99 kcal/mol  [=(1)+(2)+(3)-(4)]
USER    Estimated Inhibition Constant, Ki   =    8.74 nM (nanomolar)  [Temperature = 298.15 K]
USER    
USER    (1) Final Intermolecular Energy     =  -13.08 kcal/mol
USER        vdW + Hbond + desolv Energy     =  -13.08 kcal/mol
USER        Electrostatic Energy            =   +0.00 kcal/mol
USER    (2) Final Total Internal Energy     =   -2.18 kcal/mol
USER    (3) Torsional Free Energy           =   +2.09 kcal/mol
USER    (4) Unbound System's Energy  [=(2)] =   -2.18 kcal/mol
USER    
USER    
USER  
USER    DPF = ligand_dock.biased.dpf
USER    NEWDPF move	ligand.dum.pdbqt
USER    NEWDPF about	0.576000 -0.005000 0.140000
USER    NEWDPF tran0	37.266280 17.626404 123.371445
USER    NEWDPF axisangle0	-0.757566 0.240433 -0.606866 -144.304108
USER    NEWDPF quaternion0	-0.721107 0.228861 -0.577659 -0.306492
USER    NEWDPF dihe0	23.50 104.01 167.48 -80.78 -118.11 -53.10 145.71 
USER  
USER                              x       y       z    vdW   Elec        q     RMS 
ATOM      1  N   UNL     1      37.405  18.080 122.750 -0.13 -0.00    +0.000    126.111
ATOM      2  H   UNL     1      38.087  17.364 122.500 +0.00 -0.00    +0.000    126.111
ATOM      3  H   UNL     1      37.819  18.796 123.349 +0.00 -0.00    +0.000    126.111
ATOM      4  C   UNL     1      36.311  17.450 123.499 -0.27 -0.00    +0.000    126.111
ATOM      5  C   UNL     1      36.796  13.154 123.386 -0.54 -0.00    +0.000    126.111
ATOM      6  C   UNL     1      35.590  13.727 123.836 -0.46 -0.00    +0.000    126.111
ATOM      7  C   UNL     1      35.440  15.116 123.882 -0.48 -0.00    +0.000    126.111
ATOM      8  C   UNL     1      36.490  15.957 123.485 -0.33 -0.00    +0.000    126.111
ATOM      9  C   UNL     1      37.680  15.390 123.005 -0.33 -0.00    +0.000    126.111
ATOM     10  C   UNL     1      37.830  14.003 122.957 -0.44 -0.00    +0.000    126.111
ATOM     11  CM  UNL     1      36.638  14.558 123.425 +0.00 -0.00    +0.000    126.111
ATOM     12  C   UNL     1      36.567  10.928 122.289 -0.65 -0.00    +0.000    126.111
ATOM     13  C   UNL     1      37.004  11.686 123.305 -0.67 -0.00    +0.000    126.111
ATOM     14  O   UNL     1      37.068   8.958 121.100 -2.71 -0.00    +0.000    126.111
ATOM     15  C   UNL     1      36.775   9.468 122.215 -0.69 -0.00    +0.000    126.111
ATOM     16  N   UNL     1      36.630   8.613 123.356 -0.64 -0.00    +0.000    126.111
ATOM     17  O   UNL     1      36.933   7.297 123.261 -2.26 -0.00    +0.000    126.111
ATOM     18  H   UNL     1      36.308   8.984 124.209 -0.34 -0.00    +0.000    126.111
ATOM     19  C   UNL     1      36.937  18.738 121.521 -0.14 -0.00    +0.000    126.111
ATOM     20  C   UNL     1      37.914  18.557 120.347 -0.06 -0.00    +0.000    126.111
ATOM     21  C   UNL     1      38.140  17.098 120.075 -0.08 -0.00    +0.000    126.111
ATOM     22  C   UNL     1      39.245  16.328 120.441 -0.13 -0.00    +0.000    126.111
ATOM     23  N   UNL     1      39.129  15.066 119.963 -0.20 -0.00    +0.000    126.111
ATOM     24  C   UNL     1      37.972  15.036 119.280 -0.21 -0.00    +0.000    126.111
ATOM     25  C   UNL     1      37.344  16.257 119.320 -0.14 -0.00    +0.000    126.111
ATOM     26  C   UNL     1      36.133  16.480 118.662 -0.14 -0.00    +0.000    126.111
ATOM     27  C   UNL     1      35.562  15.406 117.956 -0.14 -0.00    +0.000    126.111
ATOM     28  C   UNL     1      36.206  14.149 117.920 -0.34 -0.00    +0.000    126.111
ATOM     29  C   UNL     1      37.429  13.955 118.587 -0.33 -0.00    +0.000    126.111
ATOM     30  C   UNL     1      40.405  16.800 121.258 -0.17 -0.00    +0.000    126.111
ATOM     31  H   UNL     1      39.763  14.323 120.089 -0.07 -0.00    +0.000    126.111
ATOM     32  CM  UNL     1      38.391  15.928 119.821 +0.00 -0.00    +0.000    126.111
ATOM     33  CM  UNL     1      36.773  15.214 118.621 +0.00 -0.00    +0.000    126.111
TER
ENDMDL
MODEL       30
USER    Run = 30
USER    Cluster Rank = 9
USER    Number of conformations in this cluster = 2
USER  
USER    RMSD from reference structure       = 125.646 A
USER  
USER    Estimated Free Energy of Binding    =  -10.81 kcal/mol  [=(1)+(2)+(3)-(4)]
USER    Estimated Inhibition Constant, Ki   =   11.96 nM (nanomolar)  [Temperature = 298.15 K]
USER    
USER    (1) Final Intermolecular Energy     =  -12.90 kcal/mol
USER        vdW + Hbond + desolv Energy     =  -12.90 kcal/mol
USER        Electrostatic Energy            =   +0.00 kcal/mol
USER    (2) Final Total Internal Energy     =   -1.71 kcal/mol
USER    (3) Torsional Free Energy           =   +2.09 kcal/mol
USER    (4) Unbound System's Energy  [=(2)] =   -1.71 kcal/mol
USER    
USER    
USER  
USER    DPF = ligand_dock.biased.dpf
USER    NEWDPF move	ligand.dum.pdbqt
USER    NEWDPF about	0.576000 -0.005000 0.140000
USER    NEWDPF tran0	37.218308 17.161854 119.312750
USER    NEWDPF axisangle0	0.560249 -0.695473 -0.449932 -117.898570
USER    NEWDPF quaternion0	0.479971 -0.595819 -0.385462 -0.515797
USER    NEWDPF dihe0	145.82 -137.63 164.46 158.52 -171.84 0.28 159.31 
USER  
USER                              x       y       z    vdW   Elec        q     RMS 
ATOM      1  N   UNL     1      36.901  17.868 119.203 -0.08 -0.00    +0.000    125.646
ATOM      2  H   UNL     1      36.212  17.559 119.888 -0.00 -0.00    +0.000    125.646
ATOM      3  H   UNL     1      36.625  17.611 118.254 +0.00 -0.00    +0.000    125.646
ATOM      4  C   UNL     1      38.181  17.209 119.489 -0.08 -0.00    +0.000    125.646
ATOM      5  C   UNL     1      37.582  12.979 120.170 -0.43 -0.00    +0.000    125.646
ATOM      6  C   UNL     1      37.446  13.523 118.877 -0.37 -0.00    +0.000    125.646
ATOM      7  C   UNL     1      37.629  14.893 118.662 -0.22 -0.00    +0.000    125.646
ATOM      8  C   UNL     1      37.946  15.743 119.731 -0.17 -0.00    +0.000    125.646
ATOM      9  C   UNL     1      38.115  15.200 121.013 -0.24 -0.00    +0.000    125.646
ATOM     10  C   UNL     1      37.934  13.832 121.229 -0.37 -0.00    +0.000    125.646
ATOM     11  CM  UNL     1      37.776  14.362 119.947 +0.00 -0.00    +0.000    125.646
ATOM     12  C   UNL     1      37.158  11.037 121.673 -0.42 -0.00    +0.000    125.646
ATOM     13  C   UNL     1      37.411  11.532 120.452 -0.43 -0.00    +0.000    125.646
ATOM     14  O   UNL     1      36.756   8.823 120.980 -2.61 -0.00    +0.000    125.646
ATOM     15  C   UNL     1      36.991   9.595 121.947 -0.62 -0.00    +0.000    125.646
ATOM     16  N   UNL     1      37.059   9.054 123.273 -0.63 -0.00    +0.000    125.646
ATOM     17  O   UNL     1      37.004   7.715 123.462 -2.66 -0.00    +0.000    125.646
ATOM     18  H   UNL     1      37.146   9.657 124.046 -0.53 -0.00    +0.000    125.646
ATOM     19  C   UNL     1      37.001  19.333 119.260 -0.07 -0.00    +0.000    125.646
ATOM     20  C   UNL     1      35.941  19.962 120.180 -0.00 -0.00    +0.000    125.646
ATOM     21  C   UNL     1      35.134  18.891 120.855 -0.21 -0.00    +0.000    125.646
ATOM     22  C   UNL     1      33.826  18.502 120.560 -0.29 -0.00    +0.000    125.646
ATOM     23  N   UNL     1      33.404  17.550 121.426 -0.31 -0.00    +0.000    125.646
ATOM     24  C   UNL     1      34.423  17.348 122.278 -0.35 -0.00    +0.000    125.646
ATOM     25  C   UNL     1      35.493  18.152 121.967 -0.25 -0.00    +0.000    125.646
ATOM     26  C   UNL     1      36.664  18.139 122.726 -0.16 -0.00    +0.000    125.646
ATOM     27  C   UNL     1      36.725  17.265 123.825 -0.24 -0.00    +0.000    125.646
ATOM     28  C   UNL     1      35.626  16.434 124.141 -0.36 -0.00    +0.000    125.646
ATOM     29  C   UNL     1      34.456  16.473 123.363 -0.42 -0.00    +0.000    125.646
ATOM     30  C   UNL     1      32.988  19.034 119.442 -0.34 -0.00    +0.000    125.646
ATOM     31  H   UNL     1      32.528  17.098 121.430 -0.03 -0.00    +0.000    125.646
ATOM     32  CM  UNL     1      34.422  18.071 121.417 +0.00 -0.00    +0.000    125.646
ATOM     33  CM  UNL     1      35.565  17.302 123.050 -0.02 -0.00    +0.000    125.646
TER
ENDMDL
MODEL       42
USER    Run = 42
USER    Cluster Rank = 10
USER    Number of conformations in this cluster = 1
USER  
USER    RMSD from reference structure       = 127.405 A
USER  
USER    Estimated Free Energy of Binding    =  -10.62 kcal/mol  [=(1)+(2)+(3)-(4)]
USER    Estimated Inhibition Constant, Ki   =   16.49 nM (nanomolar)  [Temperature = 298.15 K]
USER    
USER    (1) Final Intermolecular Energy     =  -12.71 kcal/mol
USER        vdW + Hbond + desolv Energy     =  -12.71 kcal/mol
USER        Electrostatic Energy            =   +0.00 kcal/mol
USER    (2) Final Total Internal Energy     =   -1.27 kcal/mol
USER    (3) Torsional Free Energy           =   +2.09 kcal/mol
USER    (4) Unbound System's Energy  [=(2)] =   -1.27 kcal/mol
USER    
USER    
USER  
USER    DPF = ligand_dock.biased.dpf
USER    NEWDPF move	ligand.dum.pdbqt
USER    NEWDPF about	0.576000 -0.005000 0.140000
USER    NEWDPF tran0	37.593592 16.125538 119.803789
USER    NEWDPF axisangle0	-0.153032 -0.940946 -0.301996 147.460319
USER    NEWDPF quaternion0	-0.146904 -0.903264 -0.289902 0.280161
USER    NEWDPF dihe0	144.26 148.47 36.23 -166.25 -35.86 149.55 133.52 
USER  
USER                              x       y       z    vdW   Elec        q     RMS 
ATOM      1  N   UNL     1      38.354  16.053 119.969 -0.14 -0.00    +0.000    127.405
ATOM      2  H   UNL     1      38.387  17.059 119.809 +0.00 -0.00    +0.000    127.405
ATOM      3  H   UNL     1      38.506  15.532 119.105 -0.01 -0.00    +0.000    127.405
ATOM      4  C   UNL     1      37.023  15.699 120.476 -0.21 -0.00    +0.000    127.405
ATOM      5  C   UNL     1      37.068  11.731 122.197 -0.51 -0.00    +0.000    127.405
ATOM      6  C   UNL     1      36.994  12.870 123.024 -0.54 -0.00    +0.000    127.405
ATOM      7  C   UNL     1      36.992  14.151 122.465 -0.40 -0.00    +0.000    127.405
ATOM      8  C   UNL     1      37.066  14.320 121.075 -0.26 -0.00    +0.000    127.405
ATOM      9  C   UNL     1      37.105  13.188 120.248 -0.40 -0.00    +0.000    127.405
ATOM     10  C   UNL     1      37.106  11.907 120.804 -0.45 -0.00    +0.000    127.405
ATOM     11  CM  UNL     1      37.055  13.028 121.635 +0.00 -0.00    +0.000    127.405
ATOM     12  C   UNL     1      36.195   9.401 122.345 -0.70 -0.00    +0.000    127.405
ATOM     13  C   UNL     1      37.061  10.348 122.737 -0.58 -0.00    +0.000    127.405
ATOM     14  O   UNL     1      37.229   7.608 123.467 -2.57 -0.00    +0.000    127.405
ATOM     15  C   UNL     1      36.193   8.027 122.887 -0.78 -0.00    +0.000    127.405
ATOM     16  N   UNL     1      35.066   7.150 122.751 -0.64 -0.00    +0.000    127.405
ATOM     17  O   UNL     1      35.073   5.939 123.355 -0.88 -0.00    +0.000    127.405
ATOM     18  H   UNL     1      34.288   7.430 122.218 -0.01 -0.00    +0.000    127.405
ATOM     19  C   UNL     1      39.425  15.688 120.908 -0.24 -0.00    +0.000    127.405
ATOM     20  C   UNL     1      40.673  16.573 120.751 -0.17 -0.00    +0.000    127.405
ATOM     21  C   UNL     1      41.247  16.912 122.097 -0.22 -0.00    +0.000    127.405
ATOM     22  C   UNL     1      42.562  16.728 122.529 -0.35 -0.00    +0.000    127.405
ATOM     23  N   UNL     1      42.693  17.088 123.827 -0.33 -0.00    +0.000    127.405
ATOM     24  C   UNL     1      41.471  17.478 124.227 -0.29 -0.00    +0.000    127.405
ATOM     25  C   UNL     1      40.562  17.378 123.203 -0.24 -0.00    +0.000    127.405
ATOM     26  C   UNL     1      39.217  17.705 123.383 -0.19 -0.00    +0.000    127.405
ATOM     27  C   UNL     1      38.814  18.153 124.653 -0.19 -0.00    +0.000    127.405
ATOM     28  C   UNL     1      39.751  18.260 125.705 -0.24 -0.00    +0.000    127.405
ATOM     29  C   UNL     1      41.099  17.918 125.497 -0.28 -0.00    +0.000    127.405
ATOM     30  C   UNL     1      43.691  16.218 121.692 -0.28 -0.00    +0.000    127.405
ATOM     31  H   UNL     1      43.516  17.067 124.368 -0.61 -0.00    +0.000    127.405
ATOM     32  CM  UNL     1      41.739  17.116 123.197 +0.00 -0.00    +0.000    127.405
ATOM     33  CM  UNL     1      40.151  17.816 124.444 +0.00 -0.00    +0.000    127.405
TER
ENDMDL
MODEL       87
USER    Run = 87
USER    Cluster Rank = 11
USER    Number of conformations in this cluster = 3
USER  
USER    RMSD from reference structure       = 123.248 A
USER  
USER    Estimated Free Energy of Binding    =  -10.49 kcal/mol  [=(1)+(2)+(3)-(4)]
USER    Estimated Inhibition Constant, Ki   =   20.28 nM (nanomolar)  [Temperature = 298.15 K]
USER    
USER    (1) Final Intermolecular Energy     =  -12.58 kcal/mol
USER        vdW + Hbond + desolv Energy     =  -12.58 kcal/mol
USER        Electrostatic Energy            =   +0.00 kcal/mol
USER    (2) Final Total Internal Energy     =   -2.12 kcal/mol
USER    (3) Torsional Free Energy           =   +2.09 kcal/mol
USER    (4) Unbound System's Energy  [=(2)] =   -2.12 kcal/mol
USER    
USER    
USER  
USER    DPF = ligand_dock.biased.dpf
USER    NEWDPF move	ligand.dum.pdbqt
USER    NEWDPF about	0.576000 -0.005000 0.140000
USER    NEWDPF tran0	37.346160 17.049123 118.341795
USER    NEWDPF axisangle0	-0.282287 0.959273 -0.010420 147.034169
USER    NEWDPF quaternion0	-0.270686 0.919852 -0.009992 0.283729
USER    NEWDPF dihe0	144.94 -106.45 174.57 63.64 148.74 49.34 56.09 
USER  
USER                              x       y       z    vdW   Elec        q     RMS 
ATOM      1  N   UNL     1      37.618  17.449 117.728 -0.05 -0.00    +0.000    123.248
ATOM      2  H   UNL     1      36.643  17.715 117.591 +0.00 -0.00    +0.000    123.248
ATOM      3  H   UNL     1      37.839  16.579 117.242 +0.00 -0.00    +0.000    123.248
ATOM      4  C   UNL     1      37.853  17.232 119.161 -0.08 -0.00    +0.000    123.248
ATOM      5  C   UNL     1      37.508  13.007 120.021 -0.42 -0.00    +0.000    123.248
ATOM      6  C   UNL     1      36.868  13.564 118.895 -0.37 -0.00    +0.000    123.248
ATOM      7  C   UNL     1      36.972  14.932 118.626 -0.23 -0.00    +0.000    123.248
ATOM      8  C   UNL     1      37.711  15.769 119.475 -0.16 -0.00    +0.000    123.248
ATOM      9  C   UNL     1      38.376  15.213 120.578 -0.22 -0.00    +0.000    123.248
ATOM     10  C   UNL     1      38.275  13.846 120.847 -0.35 -0.00    +0.000    123.248
ATOM     11  CM  UNL     1      37.619  14.389 119.741 +0.00 -0.00    +0.000    123.248
ATOM     12  C   UNL     1      37.098  11.085 121.553 -0.49 -0.00    +0.000    123.248
ATOM     13  C   UNL     1      37.441  11.561 120.346 -0.40 -0.00    +0.000    123.248
ATOM     14  O   UNL     1      36.968   8.821 120.920 -2.66 -0.00    +0.000    123.248
ATOM     15  C   UNL     1      37.035   9.644 121.871 -0.59 -0.00    +0.000    123.248
ATOM     16  N   UNL     1      37.021   9.156 123.219 -0.63 -0.00    +0.000    123.248
ATOM     17  O   UNL     1      37.068   7.824 123.458 -2.66 -0.00    +0.000    123.248
ATOM     18  H   UNL     1      36.976   9.790 123.970 -0.47 -0.00    +0.000    123.248
ATOM     19  C   UNL     1      38.479  18.504 117.173 -0.02 -0.00    +0.000    123.248
ATOM     20  C   UNL     1      39.222  18.053 115.905 -0.04 -0.00    +0.000    123.248
ATOM     21  C   UNL     1      39.602  16.604 116.008 -0.11 -0.00    +0.000    123.248
ATOM     22  C   UNL     1      40.819  16.076 116.441 -0.21 -0.00    +0.000    123.248
ATOM     23  N   UNL     1      40.820  14.726 116.333 -0.29 -0.00    +0.000    123.248
ATOM     24  C   UNL     1      39.624  14.397 115.816 -0.33 -0.00    +0.000    123.248
ATOM     25  C   UNL     1      38.856  15.515 115.598 -0.19 -0.00    +0.000    123.248
ATOM     26  C   UNL     1      37.579  15.430 115.043 -0.15 -0.00    +0.000    123.248
ATOM     27  C   UNL     1      37.088  14.153 114.717 -0.28 -0.00    +0.000    123.248
ATOM     28  C   UNL     1      37.876  13.003 114.947 -0.41 -0.00    +0.000    123.248
ATOM     29  C   UNL     1      39.163  13.120 115.502 -0.46 -0.00    +0.000    123.248
ATOM     30  C   UNL     1      41.975  16.865 116.969 -0.15 -0.00    +0.000    123.248
ATOM     31  H   UNL     1      41.548  14.111 116.582 -0.15 -0.00    +0.000    123.248
ATOM     32  CM  UNL     1      39.973  15.440 116.049 +0.00 -0.00    +0.000    123.248
ATOM     33  CM  UNL     1      38.363  14.270 115.270 +0.00 -0.00    +0.000    123.248
TER
ENDMDL
MODEL       52
USER    Run = 52
USER    Cluster Rank = 12
USER    Number of conformations in this cluster = 1
USER  
USER    RMSD from reference structure       = 127.808 A
USER  
USER    Estimated Free Energy of Binding    =   -9.85 kcal/mol  [=(1)+(2)+(3)-(4)]
USER    Estimated Inhibition Constant, Ki   =   60.46 nM (nanomolar)  [Temperature = 298.15 K]
USER    
USER    (1) Final Intermolecular Energy     =  -11.94 kcal/mol
USER        vdW + Hbond + desolv Energy     =  -11.94 kcal/mol
USER        Electrostatic Energy            =   +0.00 kcal/mol
USER    (2) Final Total Internal Energy     =   -1.34 kcal/mol
USER    (3) Torsional Free Energy           =   +2.09 kcal/mol
USER    (4) Unbound System's Energy  [=(2)] =   -1.34 kcal/mol
USER    
USER    
USER  
USER    DPF = ligand_dock.biased.dpf
USER    NEWDPF move	ligand.dum.pdbqt
USER    NEWDPF about	0.576000 -0.005000 0.140000
USER    NEWDPF tran0	36.247504 18.249961 124.018525
USER    NEWDPF axisangle0	-0.702580 -0.665211 -0.252738 -109.655365
USER    NEWDPF quaternion0	-0.574305 -0.543759 -0.206594 -0.576037
USER    NEWDPF dihe0	-158.57 90.28 -170.39 178.96 166.18 170.64 -152.07 
USER  
USER                              x       y       z    vdW   Elec        q     RMS 
ATOM      1  N   UNL     1      36.004  18.278 123.276 -0.20 -0.00    +0.000    127.808
ATOM      2  H   UNL     1      36.537  19.146 123.235 +0.00 -0.00    +0.000    127.808
ATOM      3  H   UNL     1      35.045  18.444 123.583 -0.01 -0.00    +0.000    127.808
ATOM      4  C   UNL     1      36.636  17.381 124.251 -0.25 -0.00    +0.000    127.808
ATOM      5  C   UNL     1      36.402  13.277 122.906 -0.48 -0.00    +0.000    127.808
ATOM      6  C   UNL     1      37.522  14.072 122.589 -0.43 -0.00    +0.000    127.808
ATOM      7  C   UNL     1      37.589  15.402 123.016 -0.33 -0.00    +0.000    127.808
ATOM      8  C   UNL     1      36.542  15.963 123.761 -0.32 -0.00    +0.000    127.808
ATOM      9  C   UNL     1      35.442  15.165 124.107 -0.47 -0.00    +0.000    127.808
ATOM     10  C   UNL     1      35.374  13.836 123.683 -0.32 -0.00    +0.000    127.808
ATOM     11  CM  UNL     1      36.478  14.619 123.344 +0.00 -0.00    +0.000    127.808
ATOM     12  C   UNL     1      37.065  10.875 122.968 -0.61 -0.00    +0.000    127.808
ATOM     13  C   UNL     1      36.285  11.857 122.490 -0.63 -0.00    +0.000    127.808
ATOM     14  O   UNL     1      36.691   9.216 121.339 -2.52 -0.00    +0.000    127.808
ATOM     15  C   UNL     1      36.945   9.464 122.548 -0.65 -0.00    +0.000    127.808
ATOM     16  N   UNL     1      37.080   8.375 123.470 -0.68 -0.00    +0.000    127.808
ATOM     17  O   UNL     1      37.066   7.099 123.020 -2.02 -0.00    +0.000    127.808
ATOM     18  H   UNL     1      37.183   8.556 124.432 -0.50 -0.00    +0.000    127.808
ATOM     19  C   UNL     1      35.949  17.691 121.929 -0.25 -0.00    +0.000    127.808
ATOM     20  C   UNL     1      37.292  17.791 121.188 -0.12 -0.00    +0.000    127.808
ATOM     21  C   UNL     1      38.169  18.827 121.830 -0.06 -0.00    +0.000    127.808
ATOM     22  C   UNL     1      38.106  20.212 121.665 -0.06 -0.00    +0.000    127.808
ATOM     23  N   UNL     1      39.102  20.822 122.350 -0.03 -0.00    +0.000    127.808
ATOM     24  C   UNL     1      39.807  19.835 122.929 -0.04 -0.00    +0.000    127.808
ATOM     25  C   UNL     1      39.274  18.606 122.630 -0.08 -0.00    +0.000    127.808
ATOM     26  C   UNL     1      39.849  17.424 123.100 -0.20 -0.00    +0.000    127.808
ATOM     27  C   UNL     1      40.998  17.527 123.904 -0.30 -0.00    +0.000    127.808
ATOM     28  C   UNL     1      41.543  18.792 124.216 -0.19 -0.00    +0.000    127.808
ATOM     29  C   UNL     1      40.946  19.966 123.723 -0.08 -0.00    +0.000    127.808
ATOM     30  C   UNL     1      37.082  20.949 120.861 -0.10 -0.00    +0.000    127.808
ATOM     31  H   UNL     1      39.274  21.789 122.411 +0.00 -0.00    +0.000    127.808
ATOM     32  CM  UNL     1      38.898  19.698 122.283 +0.00 -0.00    +0.000    127.808
ATOM     33  CM  UNL     1      40.403  18.691 123.417 +0.00 -0.00    +0.000    127.808
TER
ENDMDL


AVSFLD: # AVS field file
AVSFLD: #
AVSFLD: # Created by AutoDock
AVSFLD: #
AVSFLD: ndim=2           # number of dimensions in the field
AVSFLD: nspace=1         # number of physical coordinates
AVSFLD: veclen=7         # vector size
AVSFLD: dim1=33          # atoms
AVSFLD: dim2=12          # conformations
AVSFLD: data=Real       # data type (byte,integer,Real,double)
AVSFLD: field=uniform    # field coordinate layout
AVSFLD: label= x y z vdW Elec q RMS
AVSFLD: variable 1 file = ligand_dock.biased.dlg.pdb filetype = ascii offset = 5 stride = 12
AVSFLD: variable 2 file = ligand_dock.biased.dlg.pdb filetype = ascii offset = 6 stride = 12
AVSFLD: variable 3 file = ligand_dock.biased.dlg.pdb filetype = ascii offset = 7 stride = 12
AVSFLD: variable 4 file = ligand_dock.biased.dlg.pdb filetype = ascii offset = 8 stride = 12
AVSFLD: variable 5 file = ligand_dock.biased.dlg.pdb filetype = ascii offset = 9 stride = 12
AVSFLD: variable 6 file = ligand_dock.biased.dlg.pdb filetype = ascii offset = 10 stride = 12
AVSFLD: variable 7 file = ligand_dock.biased.dlg.pdb filetype = ascii offset = 11 stride = 12
AVSFLD: # end of file

>>> Closing the docking parameter file (DPF)...
This docking finished at:			6:23 02" p.m., 11/08/2024


________________________________________________________________________________

autodock4: Successful Completion on "ThinkStation-P620"

Real= 15m 53.23s,  CPU= 15m 52.92s,  System= 0.18s
________________________________________________________________________________

