REMARK  Name = 
REMARK  6 active torsions:
REMARK  status: ('A' for Active; 'I' for Inactive)
REMARK    1  A    between atoms: S_2  and  N_3
REMARK    2  A    between atoms: S_2  and  C_10
REMARK    3  A    between atoms: N_3  and  C_4
REMARK    4  A    between atoms: C_12  and  C_13
REMARK    5  A    between atoms: C_14  and  C_15
REMARK    6  A    between atoms: N_16  and  O_17
REMARK                            x       y       z     vdW  Elec       q    Type
REMARK                         _______ _______ _______ _____ _____    ______ ____
ROOT
ATOM      1  C   UNL     1      -0.136   0.637  -1.957  0.00  0.00     0.000 A 
ATOM      2  C   UNL     1       0.591   0.543  -0.763  0.00  0.00     0.000 A 
ATOM      3  C   UNL     1       1.565  -0.456  -0.592  0.00  0.00     0.000 A 
ATOM      4  C   UNL     1       1.787  -1.375  -1.638  0.00  0.00     0.000 A 
ATOM      5  C   UNL     1       1.066  -1.275  -2.831  0.00  0.00     0.000 A 
ATOM      6  C   UNL     1       0.111  -0.270  -2.994  0.00  0.00     0.000 A 
ATOM     26  CM  UNL     1       0.831  -0.366  -1.796  1.00  0.00     0.000 AC
ENDROOT
BRANCH   1   8
ATOM      7  O   UNL     1      -2.391   1.478  -3.158  0.00  0.00     0.000 OA
ATOM      8  S   UNL     1      -1.359   1.891  -2.146  0.00  0.00     0.000 S 
ATOM      9  O   UNL     1      -0.690   3.151  -2.614  0.00  0.00     0.000 OA
BRANCH   8  10
ATOM     10  N   UNL     1      -2.146   2.192  -0.627  0.00  0.00     0.000 N 
ATOM     11  H   UNL     1      -2.181   3.120  -0.301  0.00  0.00     0.000 HD
BRANCH  10  12
ATOM     12  C   UNL     1      -2.749   1.166   0.182  0.00  0.00     0.000 A 
ATOM     13  C   UNL     1      -2.956  -0.141  -0.301  0.00  0.00     0.000 A 
ATOM     14  C   UNL     1      -3.537  -1.114   0.518  0.00  0.00     0.000 A 
ATOM     15  C   UNL     1      -3.921  -0.794   1.822  0.00  0.00     0.000 A 
ATOM     16  C   UNL     1      -3.728   0.500   2.309  0.00  0.00     0.000 A 
ATOM     17  C   UNL     1      -3.146   1.476   1.494  0.00  0.00     0.000 A 
ATOM     27  CM  UNL     1      -3.339   0.182   1.004  1.00  0.00     0.000 AC
ENDBRANCH  10  12
ENDBRANCH   8  10
ENDBRANCH   1   8
BRANCH   3  18
ATOM     18  C   UNL     1       2.290  -0.524   0.701  0.00  0.00     0.000 C 
ATOM     19  C   UNL     1       3.479  -1.126   0.856  0.00  0.00     0.000 C 
BRANCH  19  20
ATOM     20  C   UNL     1       4.197  -1.191   2.146  0.00  0.00     0.000 C 
ATOM     21  N   UNL     1       3.894  -0.314   3.239  0.00  0.00     0.000 N 
ATOM     22  O   UNL     1       5.127  -2.032   2.273  0.00  0.00     0.000 OA
ATOM     23  H   UNL     1       3.251   0.421   3.115  0.00  0.00     0.000 HD
BRANCH  21  24
ATOM     24  O   UNL     1       4.489  -0.495   4.443  0.00  0.00     0.000 OA
ATOM     25  H   UNL     1       5.088  -1.256   4.396  0.00  0.00     0.000 HD
ENDBRANCH  21  24
ENDBRANCH  19  20
ENDBRANCH   3  18
TORSDOF 6